#      Rotatable Fragment
#      Build by yxyuan
#
# Name:          frag5-559-48/41815
# Creation time: Sat Jun  5 12:52:53 2010


@<TRIPOS>MOLECULE
frag5-559-48/41815
   46    46     1     1     1
SMALL
USER_CHARGES


@<TRIPOS>ATOM
      1 S1         -2.6987    4.6451   -0.3329 S.3        1 <1>        0.000
      2 S2         -3.6022    3.4321    0.9649 S.3        1 <1>        0.000
      3 C1         -3.5067    1.6536    0.7436 C.3        1 <1>        0.000
      4 C2         -3.6652    0.7936    1.9741 C.3        1 <1>        0.000
      5 C3         -2.7949    1.0698    3.1777 C.2        1 <1>        0.000
      6 N1         -1.8362    0.1802    3.5674 N.am       1 <1>        0.000
      7 C4         -1.1998    0.1826    4.8704 C.3        1 <1>        0.000
      8 C5         -0.4272    1.4716    5.1543 C.2        1 <1>        0.000
      9 C11         0.8687    1.3898    0.6202 C.2        1 <1>        0.000
     10 N2          0.0723    2.1765    4.1049 N.am       1 <1>        0.000
     11 C6          0.4499    3.5581    4.1529 C.3        1 <1>        0.000
     12 C7          1.7954    3.8280    3.4983 C.2        1 <1>        0.000
     13 N3          1.8715    4.7459    2.4925 N.am       1 <1>        0.000
     14 C8          3.0200    4.9275    1.6377 C.3        1 <1>        0.000
     15 C9          2.8302    3.9514    0.4809 C.2        1 <1>        0.000
     16 N4          2.8596    2.6110    0.7665 N.am       1 <1>        0.000
     17 C10         2.2428    1.5646   -0.0137 C.3        1 <1>        0.000
     18 N5         -0.1432    2.2610    0.3897 N.am       1 <1>        0.000
     19 C12        -0.3275    3.2332   -0.6613 C.3        1 <1>        0.000
     20 C13        -0.9157    4.6092   -0.3998 C.3        1 <1>        0.000
     21 O4          0.6872    0.4900    1.4509 O.2        1 <1>        0.000
     22 O6          2.5908    4.3878   -0.6305 O.2        1 <1>        0.000
     23 O7          2.7886    3.1790    3.8192 O.2        1 <1>        0.000
     24 O8         -0.2881    1.8378    6.3231 O.2        1 <1>        0.000
     25 O10        -2.9908    2.1124    3.8147 O.2        1 <1>        0.000
     26 H          -4.3400    1.3922    0.0914 H.spc      1 <1>        0.000
     27 H          -2.5009    1.4559    0.3729 H.spc      1 <1>        0.000
     28 H          -3.3890   -0.2105    1.6524 H.spc      1 <1>        0.000
     29 H          -4.6837    0.9775    2.3159 H.spc      1 <1>        0.000
     30 H          -1.5483   -0.5335    2.8980 H.spc      1 <1>        0.000
     31 H          -1.9829    0.0917    5.6231 H.spc      1 <1>        0.000
     32 H          -0.4890   -0.6434    4.8948 H.spc      1 <1>        0.000
     33 H           0.1868    1.6860    3.2180 H.spc      1 <1>        0.000
     34 H          -0.3042    4.1280    3.6101 H.spc      1 <1>        0.000
     35 H           0.5266    3.8456    5.2015 H.spc      1 <1>        0.000
     36 H           1.0614    5.3449    2.3336 H.spc      1 <1>        0.000
     37 H           3.0937    5.9556    1.2830 H.spc      1 <1>        0.000
     38 H           3.9494    4.7341    2.1733 H.spc      1 <1>        0.000
     39 H           3.3632    2.3271    1.6069 H.spc      1 <1>        0.000
     40 H           2.1793    1.8217   -1.0710 H.spc      1 <1>        0.000
     41 H           2.8238    0.6425    0.0010 H.spc      1 <1>        0.000
     42 H          -0.9004    2.2236    1.0721 H.spc      1 <1>        0.000
     43 H           0.6896    3.4498   -0.9880 H.spc      1 <1>        0.000
     44 H          -1.0617    2.7634   -1.3158 H.spc      1 <1>        0.000
     45 H          -0.5516    4.9337    0.5750 H.spc      1 <1>        0.000
     46 H          -0.6129    5.2501   -1.2278 H.spc      1 <1>        0.000
@<TRIPOS>BOND
     1    3    4 1  
     2    1   20 1  
     3    1    2 1  
     4    2    3 1  
     5   19   20 1  
     6   18   19 1  
     7    9   21 2  
     8    9   18 am 
     9   17    9 1  
    10   16   17 1  
    11   15   22 2  
    12   15   16 am 
    13   14   15 1  
    14   13   14 1  
    15   12   23 2  
    16   12   13 am 
    17   11   12 1  
    18   10   11 1  
    19    8   24 2  
    20    8   10 am 
    21    7    8 1  
    22    6    7 1  
    23    5   25 2  
    24    5    6 am 
    25    4    5 1  
    26    3   26 1  
    27    3   27 1  
    28    4   28 1  
    29    4   29 1  
    30    6   30 1  
    31    7   31 1  
    32    7   32 1  
    33   10   33 1  
    34   11   34 1  
    35   11   35 1  
    36   13   36 1  
    37   14   37 1  
    38   14   38 1  
    39   16   39 1  
    40   17   40 1  
    41   17   41 1  
    42   18   42 1  
    43   19   43 1  
    44   19   44 1  
    45   20   45 1  
    46   20   46 1  
# Name:          frag5-559-48/41815
# Creation time: Sat Jun  5 12:52:53 2010


@<TRIPOS>MOLECULE
frag5-559-48/41815
   46    46     1     1     1
SMALL
USER_CHARGES


@<TRIPOS>ATOM
      1 S1         -2.5704    2.1065   -1.1845 S.3        1 <1>        0.000
      2 S2         -3.8286    2.6886    0.2433 S.3        1 <1>        0.000
      3 C1         -3.1381    2.7426    1.8947 C.3        1 <1>        0.000
      4 C2         -2.7160    1.4377    2.5459 C.3        1 <1>        0.000
      5 C3         -2.6406    1.4885    4.0395 C.2        1 <1>        0.000
      6 N1         -1.6109    0.9157    4.7018 N.am       1 <1>        0.000
      7 C4         -1.4753    0.9037    6.1506 C.3        1 <1>        0.000
      8 C5         -0.7159    2.0022    6.8506 C.2        1 <1>        0.000
      9 C11         1.5622    4.2550   -2.5322 C.2        1 <1>        0.000
     10 N2          0.1096    2.8896    6.2548 N.am       1 <1>        0.000
     11 C6          0.4664    3.1390    4.8821 C.3        1 <1>        0.000
     12 C7          1.4978    2.1676    4.3118 C.2        1 <1>        0.000
     13 N3          1.9499    2.3347    3.0423 N.am       1 <1>        0.000
     14 C8          1.5628    3.3044    2.0430 C.3        1 <1>        0.000
     15 C9          2.3203    3.1483    0.7308 C.2        1 <1>        0.000
     16 N4          2.2240    4.1339   -0.1925 N.am       1 <1>        0.000
     17 C10         2.7072    4.1135   -1.5432 C.3        1 <1>        0.000
     18 N5          0.4981    3.4153   -2.5677 N.am       1 <1>        0.000
     19 C12         0.2255    2.1956   -1.8350 C.3        1 <1>        0.000
     20 C13        -0.8393    2.2728   -0.7525 C.3        1 <1>        0.000
     21 O4          1.6066    5.1646   -3.3679 O.2        1 <1>        0.000
     22 O6          2.9515    2.1071    0.5382 O.2        1 <1>        0.000
     23 O7          1.9086    1.2225    4.9903 O.2        1 <1>        0.000
     24 O8         -0.8214    2.0966    8.0706 O.2        1 <1>        0.000
     25 O10        -3.5533    2.0461    4.6510 O.2        1 <1>        0.000
     26 H          -2.2211    3.3244    1.8014 H.spc      1 <1>        0.000
     27 H          -3.9378    3.1305    2.5256 H.spc      1 <1>        0.000
     28 H          -1.7143    1.2082    2.1826 H.spc      1 <1>        0.000
     29 H          -3.4696    0.6934    2.2887 H.spc      1 <1>        0.000
     30 H          -0.8820    0.4627    4.1506 H.spc      1 <1>        0.000
     31 H          -2.4963    1.0031    6.5190 H.spc      1 <1>        0.000
     32 H          -0.9017    0.0011    6.3614 H.spc      1 <1>        0.000
     33 H           0.5773    3.5122    6.9136 H.spc      1 <1>        0.000
     34 H          -0.4416    3.0255    4.2899 H.spc      1 <1>        0.000
     35 H           0.9084    4.1346    4.8423 H.spc      1 <1>        0.000
     36 H           2.6719    1.6763    2.7497 H.spc      1 <1>        0.000
     37 H           0.5035    3.1571    1.8326 H.spc      1 <1>        0.000
     38 H           1.7881    4.2947    2.4388 H.spc      1 <1>        0.000
     39 H           1.7543    4.9885    0.1064 H.spc      1 <1>        0.000
     40 H           3.3946    4.9480   -1.6817 H.spc      1 <1>        0.000
     41 H           3.2082    3.1620   -1.7215 H.spc      1 <1>        0.000
     42 H          -0.2353    3.6890   -3.2216 H.spc      1 <1>        0.000
     43 H          -0.1445    1.4804   -2.5696 H.spc      1 <1>        0.000
     44 H           1.1538    1.9378   -1.3252 H.spc      1 <1>        0.000
     45 H          -0.6358    1.4171   -0.1087 H.spc      1 <1>        0.000
     46 H          -0.7532    3.2850   -0.3574 H.spc      1 <1>        0.000
@<TRIPOS>BOND
     1    3    4 1  
     2    1   20 1  
     3    1    2 1  
     4    2    3 1  
     5   19   20 1  
     6   18   19 1  
     7    9   21 2  
     8    9   18 am 
     9   17    9 1  
    10   16   17 1  
    11   15   22 2  
    12   15   16 am 
    13   14   15 1  
    14   13   14 1  
    15   12   23 2  
    16   12   13 am 
    17   11   12 1  
    18   10   11 1  
    19    8   24 2  
    20    8   10 am 
    21    7    8 1  
    22    6    7 1  
    23    5   25 2  
    24    5    6 am 
    25    4    5 1  
    26    3   26 1  
    27    3   27 1  
    28    4   28 1  
    29    4   29 1  
    30    6   30 1  
    31    7   31 1  
    32    7   32 1  
    33   10   33 1  
    34   11   34 1  
    35   11   35 1  
    36   13   36 1  
    37   14   37 1  
    38   14   38 1  
    39   16   39 1  
    40   17   40 1  
    41   17   41 1  
    42   18   42 1  
    43   19   43 1  
    44   19   44 1  
    45   20   45 1  
    46   20   46 1  
# Name:          frag5-559-48/41815
# Creation time: Sat Jun  5 12:52:53 2010


@<TRIPOS>MOLECULE
frag5-559-48/41815
   46    46     1     1     1
SMALL
USER_CHARGES


@<TRIPOS>ATOM
      1 S1         -3.4134    4.4897    0.0811 S.3        1 <1>        0.000
      2 S2         -4.4238    2.8508    0.6398 S.3        1 <1>        0.000
      3 C1         -3.6943    1.7653    1.8630 C.3        1 <1>        0.000
      4 C2         -2.2110    1.9754    2.0156 C.3        1 <1>        0.000
      5 C3         -1.3545    1.0901    2.8655 C.2        1 <1>        0.000
      6 N1         -1.8218    0.5552    4.0151 N.am       1 <1>        0.000
      7 C4         -0.9348    0.2924    5.1156 C.3        1 <1>        0.000
      8 C5         -0.7053    1.7108    5.6256 C.2        1 <1>        0.000
      9 C11         0.6546    2.2787   -1.0613 C.2        1 <1>        0.000
     10 N2          0.4524    2.3523    5.3085 N.am       1 <1>        0.000
     11 C6          0.6531    3.7868    5.3535 C.3        1 <1>        0.000
     12 C7          1.6193    4.2437    4.2634 C.2        1 <1>        0.000
     13 N3          2.1134    3.3475    3.3697 N.am       1 <1>        0.000
     14 C8          3.1023    3.6107    2.3587 C.3        1 <1>        0.000
     15 C9          3.0304    2.6503    1.1777 C.2        1 <1>        0.000
     16 N4          1.9067    1.9064    0.9532 N.am       1 <1>        0.000
     17 C10         1.5453    1.2989   -0.2988 C.3        1 <1>        0.000
     18 N5         -0.6862    2.0643   -1.1954 N.am       1 <1>        0.000
     19 C12        -1.6090    3.0883   -1.6210 C.3        1 <1>        0.000
     20 C13        -1.8258    4.3135   -0.7345 C.3        1 <1>        0.000
     21 O4          1.1545    3.3222   -1.4963 O.2        1 <1>        0.000
     22 O6          3.9925    2.6071    0.4085 O.2        1 <1>        0.000
     23 O7          1.9328    5.4374    4.2215 O.2        1 <1>        0.000
     24 O8         -1.6317    2.2844    6.1968 O.2        1 <1>        0.000
     25 O10        -0.1652    0.9699    2.5406 O.2        1 <1>        0.000
     26 H          -4.1633    1.9801    2.8232 H.spc      1 <1>        0.000
     27 H          -3.8550    0.7377    1.5369 H.spc      1 <1>        0.000
     28 H          -2.1440    2.9429    2.5132 H.spc      1 <1>        0.000
     29 H          -1.8281    1.8048    1.0094 H.spc      1 <1>        0.000
     30 H          -2.8140    0.3356    4.1030 H.spc      1 <1>        0.000
     31 H          -1.3383   -0.3918    5.8621 H.spc      1 <1>        0.000
     32 H          -0.0229   -0.2367    4.8389 H.spc      1 <1>        0.000
     33 H           1.2422    1.7772    5.0156 H.spc      1 <1>        0.000
     34 H          -0.3072    4.2775    5.1952 H.spc      1 <1>        0.000
     35 H           1.0745    4.0488    6.3240 H.spc      1 <1>        0.000
     36 H           1.7480    2.3966    3.4205 H.spc      1 <1>        0.000
     37 H           2.9223    4.6156    1.9766 H.spc      1 <1>        0.000
     38 H           4.0830    3.4922    2.8195 H.spc      1 <1>        0.000
     39 H           1.2711    1.7707    1.7394 H.spc      1 <1>        0.000
     40 H           2.4398    1.0738   -0.8795 H.spc      1 <1>        0.000
     41 H           1.0122    0.3645   -0.1233 H.spc      1 <1>        0.000
     42 H          -1.0534    1.1363   -0.9848 H.spc      1 <1>        0.000
     43 H          -1.1812    3.4833   -2.5424 H.spc      1 <1>        0.000
     44 H          -2.5793    2.5928   -1.6536 H.spc      1 <1>        0.000
     45 H          -1.0955    4.2223    0.0695 H.spc      1 <1>        0.000
     46 H          -1.7459    5.1717   -1.4017 H.spc      1 <1>        0.000
@<TRIPOS>BOND
     1    3    4 1  
     2    1   20 1  
     3    1    2 1  
     4    2    3 1  
     5   19   20 1  
     6   18   19 1  
     7    9   21 2  
     8    9   18 am 
     9   17    9 1  
    10   16   17 1  
    11   15   22 2  
    12   15   16 am 
    13   14   15 1  
    14   13   14 1  
    15   12   23 2  
    16   12   13 am 
    17   11   12 1  
    18   10   11 1  
    19    8   24 2  
    20    8   10 am 
    21    7    8 1  
    22    6    7 1  
    23    5   25 2  
    24    5    6 am 
    25    4    5 1  
    26    3   26 1  
    27    3   27 1  
    28    4   28 1  
    29    4   29 1  
    30    6   30 1  
    31    7   31 1  
    32    7   32 1  
    33   10   33 1  
    34   11   34 1  
    35   11   35 1  
    36   13   36 1  
    37   14   37 1  
    38   14   38 1  
    39   16   39 1  
    40   17   40 1  
    41   17   41 1  
    42   18   42 1  
    43   19   43 1  
    44   19   44 1  
    45   20   45 1  
    46   20   46 1  
# Name:          frag5-559-48/41815
# Creation time: Sat Jun  5 12:52:53 2010


@<TRIPOS>MOLECULE
frag5-559-48/41815
   46    46     1     1     1
SMALL
USER_CHARGES


@<TRIPOS>ATOM
      1 S1         -2.2130    3.1421    0.2671 S.3        1 <1>        0.000
      2 S2         -4.0907    2.4956    0.4568 S.3        1 <1>        0.000
      3 C1         -4.3586    1.2340    1.6886 C.3        1 <1>        0.000
      4 C2         -4.8371    1.6576    3.0557 C.3        1 <1>        0.000
      5 C3         -3.9734    1.1723    4.1780 C.2        1 <1>        0.000
      6 N1         -2.9159    1.9027    4.6245 N.am       1 <1>        0.000
      7 C4         -2.0254    1.3324    5.5999 C.3        1 <1>        0.000
      8 C5         -0.6236    1.8906    5.7481 C.2        1 <1>        0.000
      9 C11         1.9710    3.5596   -1.7073 C.2        1 <1>        0.000
     10 N2         -0.1982    2.9720    5.0547 N.am       1 <1>        0.000
     11 C6          1.1709    3.3892    5.0130 C.3        1 <1>        0.000
     12 C7          1.5614    3.4609    3.5452 C.2        1 <1>        0.000
     13 N3          2.5979    2.6878    3.1529 N.am       1 <1>        0.000
     14 C8          2.9326    2.2778    1.8262 C.3        1 <1>        0.000
     15 C9          3.5200    3.2942    0.8588 C.2        1 <1>        0.000
     16 N4          2.7435    4.3003    0.3628 N.am       1 <1>        0.000
     17 C10         2.8078    4.6490   -1.0383 C.3        1 <1>        0.000
     18 N5          0.7330    3.3445   -1.1850 N.am       1 <1>        0.000
     19 C12        -0.0271    2.1360   -1.2104 C.3        1 <1>        0.000
     20 C13        -1.0042    1.8803   -0.0902 C.3        1 <1>        0.000
     21 O4          2.4296    2.8870   -2.6306 O.2        1 <1>        0.000
     22 O6          4.6723    3.1112    0.4584 O.2        1 <1>        0.000
     23 O7          0.9049    4.1453    2.7549 O.2        1 <1>        0.000
     24 O8          0.1401    1.3030    6.5231 O.2        1 <1>        0.000
     25 O10        -4.2373    0.0666    4.6589 O.2        1 <1>        0.000
     26 H          -5.1554    0.6073    1.2879 H.spc      1 <1>        0.000
     27 H          -3.3800    0.7837    1.8547 H.spc      1 <1>        0.000
     28 H          -5.8281    1.2274    3.2000 H.spc      1 <1>        0.000
     29 H          -4.8205    2.7472    3.0817 H.spc      1 <1>        0.000
     30 H          -2.7559    2.8460    4.2709 H.spc      1 <1>        0.000
     31 H          -2.5040    1.5286    6.5594 H.spc      1 <1>        0.000
     32 H          -1.8799    0.3028    5.2729 H.spc      1 <1>        0.000
     33 H          -0.8870    3.5169    4.5360 H.spc      1 <1>        0.000
     34 H           1.2965    4.3582    5.4961 H.spc      1 <1>        0.000
     35 H           1.8076    2.6864    5.5504 H.spc      1 <1>        0.000
     36 H           3.2160    2.3570    3.8938 H.spc      1 <1>        0.000
     37 H           3.7161    1.5311    1.9550 H.spc      1 <1>        0.000
     38 H           1.9836    1.9833    1.3782 H.spc      1 <1>        0.000
     39 H           2.1144    4.8090    0.9839 H.spc      1 <1>        0.000
     40 H           2.4315    5.6519   -1.2399 H.spc      1 <1>        0.000
     41 H           3.8296    4.6862   -1.4161 H.spc      1 <1>        0.000
     42 H           0.2964    4.1407   -0.7204 H.spc      1 <1>        0.000
     43 H          -0.6361    2.2000   -2.1121 H.spc      1 <1>        0.000
     44 H           0.7078    1.3343   -1.1376 H.spc      1 <1>        0.000
     45 H          -1.5790    1.0076   -0.4003 H.spc      1 <1>        0.000
     46 H          -0.3968    1.7971    0.8111 H.spc      1 <1>        0.000
@<TRIPOS>BOND
     1    3    4 1  
     2    1   20 1  
     3    1    2 1  
     4    2    3 1  
     5   19   20 1  
     6   18   19 1  
     7    9   21 2  
     8    9   18 am 
     9   17    9 1  
    10   16   17 1  
    11   15   22 2  
    12   15   16 am 
    13   14   15 1  
    14   13   14 1  
    15   12   23 2  
    16   12   13 am 
    17   11   12 1  
    18   10   11 1  
    19    8   24 2  
    20    8   10 am 
    21    7    8 1  
    22    6    7 1  
    23    5   25 2  
    24    5    6 am 
    25    4    5 1  
    26    3   26 1  
    27    3   27 1  
    28    4   28 1  
    29    4   29 1  
    30    6   30 1  
    31    7   31 1  
    32    7   32 1  
    33   10   33 1  
    34   11   34 1  
    35   11   35 1  
    36   13   36 1  
    37   14   37 1  
    38   14   38 1  
    39   16   39 1  
    40   17   40 1  
    41   17   41 1  
    42   18   42 1  
    43   19   43 1  
    44   19   44 1  
    45   20   45 1  
    46   20   46 1  
# Name:          frag5-559-48/41815
# Creation time: Sat Jun  5 12:52:53 2010


@<TRIPOS>MOLECULE
frag5-559-48/41815
   46    46     1     1     1
SMALL
USER_CHARGES


@<TRIPOS>ATOM
      1 S1         -3.3636    2.8153   -0.8044 S.3        1 <1>        0.000
      2 S2         -3.7139    2.8556    1.1605 S.3        1 <1>        0.000
      3 C1         -2.3508    2.4672    2.2573 C.3        1 <1>        0.000
      4 C2         -1.7229    1.0864    2.2114 C.3        1 <1>        0.000
      5 C3         -2.3018    0.1406    3.2242 C.2        1 <1>        0.000
      6 N1         -1.9969    0.2101    4.5375 N.am       1 <1>        0.000
      7 C4         -0.8887    0.8196    5.2390 C.3        1 <1>        0.000
      8 C5         -0.8715    2.3345    5.4624 C.2        1 <1>        0.000
      9 C11         0.4607    3.3553   -0.5191 C.2        1 <1>        0.000
     10 N2          0.2471    3.0861    5.3191 N.am       1 <1>        0.000
     11 C6          1.5808    2.7942    4.8822 C.3        1 <1>        0.000
     12 C7          1.9479    3.5489    3.5995 C.2        1 <1>        0.000
     13 N3          3.2473    3.4892    3.1694 N.am       1 <1>        0.000
     14 C8          3.6504    3.7070    1.8032 C.3        1 <1>        0.000
     15 C9          3.4457    2.3554    1.1020 C.2        1 <1>        0.000
     16 N4          2.6592    2.2112    0.0024 N.am       1 <1>        0.000
     17 C10         1.9634    3.1987   -0.8021 C.3        1 <1>        0.000
     18 N5         -0.1186    4.5633   -0.7644 N.am       1 <1>        0.000
     19 C12        -1.5060    4.9345   -0.6817 C.3        1 <1>        0.000
     20 C13        -2.5959    4.2594   -1.5063 C.3        1 <1>        0.000
     21 O4         -0.1827    2.3885   -0.1267 O.2        1 <1>        0.000
     22 O6          3.9955    1.3603    1.5891 O.2        1 <1>        0.000
     23 O7          1.0911    4.1197    2.9520 O.2        1 <1>        0.000
     24 O8         -1.9005    2.9100    5.8153 O.2        1 <1>        0.000
     25 O10        -3.0946   -0.7190    2.8439 O.2        1 <1>        0.000
     26 H          -1.5517    3.1441    1.9550 H.spc      1 <1>        0.000
     27 H          -2.7719    2.5459    3.2596 H.spc      1 <1>        0.000
     28 H          -0.6614    1.1983    2.4322 H.spc      1 <1>        0.000
     29 H          -1.9133    0.6692    1.2226 H.spc      1 <1>        0.000
     30 H          -2.6719   -0.2520    5.1468 H.spc      1 <1>        0.000
     31 H          -0.9315    0.3947    6.2418 H.spc      1 <1>        0.000
     32 H          -0.0229    0.6256    4.6058 H.spc      1 <1>        0.000
     33 H           0.1117    4.0639    5.5758 H.spc      1 <1>        0.000
     34 H           2.2704    3.1042    5.6673 H.spc      1 <1>        0.000
     35 H           1.6443    1.7256    4.6770 H.spc      1 <1>        0.000
     36 H           3.9714    3.2783    3.8561 H.spc      1 <1>        0.000
     37 H           3.0650    4.4968    1.3324 H.spc      1 <1>        0.000
     38 H           4.6860    4.0409    1.7380 H.spc      1 <1>        0.000
     39 H           2.5378    1.2476   -0.3094 H.spc      1 <1>        0.000
     40 H           2.4214    4.1607   -0.5721 H.spc      1 <1>        0.000
     41 H           2.0484    2.8673   -1.8370 H.spc      1 <1>        0.000
     42 H           0.5195    5.3077   -1.0456 H.spc      1 <1>        0.000
     43 H          -1.7722    4.6740    0.3427 H.spc      1 <1>        0.000
     44 H          -1.5117    5.9590   -1.0538 H.spc      1 <1>        0.000
     45 H          -3.3908    4.9980   -1.6100 H.spc      1 <1>        0.000
     46 H          -2.1102    3.9225   -2.4221 H.spc      1 <1>        0.000
@<TRIPOS>BOND
     1    3    4 1  
     2    1   20 1  
     3    1    2 1  
     4    2    3 1  
     5   19   20 1  
     6   18   19 1  
     7    9   21 2  
     8    9   18 am 
     9   17    9 1  
    10   16   17 1  
    11   15   22 2  
    12   15   16 am 
    13   14   15 1  
    14   13   14 1  
    15   12   23 2  
    16   12   13 am 
    17   11   12 1  
    18   10   11 1  
    19    8   24 2  
    20    8   10 am 
    21    7    8 1  
    22    6    7 1  
    23    5   25 2  
    24    5    6 am 
    25    4    5 1  
    26    3   26 1  
    27    3   27 1  
    28    4   28 1  
    29    4   29 1  
    30    6   30 1  
    31    7   31 1  
    32    7   32 1  
    33   10   33 1  
    34   11   34 1  
    35   11   35 1  
    36   13   36 1  
    37   14   37 1  
    38   14   38 1  
    39   16   39 1  
    40   17   40 1  
    41   17   41 1  
    42   18   42 1  
    43   19   43 1  
    44   19   44 1  
    45   20   45 1  
    46   20   46 1  
# Name:          frag5-559-48/41815
# Creation time: Sat Jun  5 12:52:53 2010


@<TRIPOS>MOLECULE
frag5-559-48/41815
   46    46     1     1     1
SMALL
USER_CHARGES


@<TRIPOS>ATOM
      1 S1         -3.6791    3.0619   -1.1775 S.3        1 <1>        0.000
      2 S2         -3.7241    1.0633   -0.6758 S.3        1 <1>        0.000
      3 C1         -2.4074    0.3407    0.3930 C.3        1 <1>        0.000
      4 C2         -2.8665    0.2199    1.8387 C.3        1 <1>        0.000
      5 C3         -2.6611    1.3904    2.7731 C.2        1 <1>        0.000
      6 N1         -1.3991    1.7743    3.0802 N.am       1 <1>        0.000
      7 C4         -1.0091    2.8187    4.0015 C.3        1 <1>        0.000
      8 C5         -0.2583    2.2450    5.1892 C.2        1 <1>        0.000
      9 C11         0.0435    3.6347    0.3474 C.2        1 <1>        0.000
     10 N2          0.9851    1.7433    5.0672 N.am       1 <1>        0.000
     11 C6          1.8957    1.7440    3.9477 C.3        1 <1>        0.000
     12 C7          2.8940    2.9141    4.0670 C.2        1 <1>        0.000
     13 N3          3.8318    3.1749    3.1217 N.am       1 <1>        0.000
     14 C8          4.2355    2.3884    1.9615 C.3        1 <1>        0.000
     15 C9          3.2672    2.6477    0.7796 C.2        1 <1>        0.000
     16 N4          2.4242    3.7307    0.8043 N.am       1 <1>        0.000
     17 C10         1.4047    4.0718   -0.1750 C.3        1 <1>        0.000
     18 N5         -1.0631    4.3804    0.0916 N.am       1 <1>        0.000
     19 C12        -2.2744    4.3433    0.8698 C.3        1 <1>        0.000
     20 C13        -3.6431    4.2045    0.2280 C.3        1 <1>        0.000
     21 O4         -0.0543    2.6198    1.0438 O.2        1 <1>        0.000
     22 O6          3.2844    1.9005   -0.2033 O.2        1 <1>        0.000
     23 O7          2.8768    3.6602    5.0533 O.2        1 <1>        0.000
     24 O8         -0.7922    2.2217    6.3037 O.2        1 <1>        0.000
     25 O10        -3.6304    1.9976    3.2351 O.2        1 <1>        0.000
     26 H          -2.1698   -0.6562    0.0218 H.spc      1 <1>        0.000
     27 H          -1.5376    0.9969    0.3606 H.spc      1 <1>        0.000
     28 H          -2.2624   -0.5842    2.2589 H.spc      1 <1>        0.000
     29 H          -3.9476    0.0935    1.7804 H.spc      1 <1>        0.000
     30 H          -0.6436    1.2738    2.6121 H.spc      1 <1>        0.000
     31 H          -0.3559    3.5185    3.4802 H.spc      1 <1>        0.000
     32 H          -1.9075    3.3181    4.3642 H.spc      1 <1>        0.000
     33 H           1.3432    1.2865    5.9060 H.spc      1 <1>        0.000
     34 H           2.4489    0.8049    3.9395 H.spc      1 <1>        0.000
     35 H           1.3249    1.8569    3.0260 H.spc      1 <1>        0.000
     36 H           4.3312    4.0563    3.2407 H.spc      1 <1>        0.000
     37 H           5.2446    2.6769    1.6672 H.spc      1 <1>        0.000
     38 H           4.2091    1.3298    2.2201 H.spc      1 <1>        0.000
     39 H           2.5238    4.3658    1.5963 H.spc      1 <1>        0.000
     40 H           1.4038    5.1489   -0.3424 H.spc      1 <1>        0.000
     41 H           1.6162    3.5634   -1.1157 H.spc      1 <1>        0.000
     42 H          -1.0339    5.0118   -0.7090 H.spc      1 <1>        0.000
     43 H          -2.1735    3.4294    1.4552 H.spc      1 <1>        0.000
     44 H          -2.3093    5.3288    1.3342 H.spc      1 <1>        0.000
     45 H          -4.3190    3.8087    0.9861 H.spc      1 <1>        0.000
     46 H          -3.9283    5.1881   -0.1453 H.spc      1 <1>        0.000
@<TRIPOS>BOND
     1    3    4 1  
     2    1   20 1  
     3    1    2 1  
     4    2    3 1  
     5   19   20 1  
     6   18   19 1  
     7    9   21 2  
     8    9   18 am 
     9   17    9 1  
    10   16   17 1  
    11   15   22 2  
    12   15   16 am 
    13   14   15 1  
    14   13   14 1  
    15   12   23 2  
    16   12   13 am 
    17   11   12 1  
    18   10   11 1  
    19    8   24 2  
    20    8   10 am 
    21    7    8 1  
    22    6    7 1  
    23    5   25 2  
    24    5    6 am 
    25    4    5 1  
    26    3   26 1  
    27    3   27 1  
    28    4   28 1  
    29    4   29 1  
    30    6   30 1  
    31    7   31 1  
    32    7   32 1  
    33   10   33 1  
    34   11   34 1  
    35   11   35 1  
    36   13   36 1  
    37   14   37 1  
    38   14   38 1  
    39   16   39 1  
    40   17   40 1  
    41   17   41 1  
    42   18   42 1  
    43   19   43 1  
    44   19   44 1  
    45   20   45 1  
    46   20   46 1  
# Name:          frag5-559-48/41815
# Creation time: Sat Jun  5 12:52:53 2010


@<TRIPOS>MOLECULE
frag5-559-48/41815
   46    46     1     1     1
SMALL
USER_CHARGES


@<TRIPOS>ATOM
      1 S1         -1.3887    0.7562   -0.9282 S.3        1 <1>        0.000
      2 S2         -1.5710    0.6209    1.0558 S.3        1 <1>        0.000
      3 C1         -3.2435    0.8663    1.6867 C.3        1 <1>        0.000
      4 C2         -3.5066    2.2834    2.1605 C.3        1 <1>        0.000
      5 C3         -2.9960    2.5034    3.5516 C.2        1 <1>        0.000
      6 N1         -2.0592    3.4474    3.8179 N.am       1 <1>        0.000
      7 C4         -1.5439    3.7916    5.1344 C.3        1 <1>        0.000
      8 C5         -0.4433    2.8356    5.5826 C.2        1 <1>        0.000
      9 C11         1.2986    3.4862   -1.5445 C.2        1 <1>        0.000
     10 N2         -0.2217    1.6479    4.9485 N.am       1 <1>        0.000
     11 C6          0.9425    0.7936    5.1078 C.3        1 <1>        0.000
     12 C7          2.0438    1.2597    4.1434 C.2        1 <1>        0.000
     13 N3          1.7030    1.8675    2.9643 N.am       1 <1>        0.000
     14 C8          1.6746    3.3111    2.8677 C.3        1 <1>        0.000
     15 C9          1.8461    3.9278    1.4915 C.2        1 <1>        0.000
     16 N4          2.5218    3.2832    0.5113 N.am       1 <1>        0.000
     17 C10         2.6251    3.7690   -0.8460 C.3        1 <1>        0.000
     18 N5          0.1676    3.9866   -0.9536 N.am       1 <1>        0.000
     19 C12        -1.2021    3.6145   -1.1213 C.3        1 <1>        0.000
     20 C13        -1.6600    2.3358   -1.8156 C.3        1 <1>        0.000
     21 O4          1.2872    2.8252   -2.5809 O.2        1 <1>        0.000
     22 O6          1.3597    5.0513    1.2956 O.2        1 <1>        0.000
     23 O7          3.2216    1.0474    4.4375 O.2        1 <1>        0.000
     24 O8          0.2513    3.1879    6.5377 O.2        1 <1>        0.000
     25 O10        -3.4259    1.7925    4.4611 O.2        1 <1>        0.000
     26 H          -3.9362    0.6585    0.8712 H.spc      1 <1>        0.000
     27 H          -3.3722    0.2043    2.5430 H.spc      1 <1>        0.000
     28 H          -4.5833    2.4531    2.1580 H.spc      1 <1>        0.000
     29 H          -2.9904    2.9717    1.4913 H.spc      1 <1>        0.000
     30 H          -1.6816    3.9630    3.0229 H.spc      1 <1>        0.000
     31 H          -1.1244    4.7964    5.0851 H.spc      1 <1>        0.000
     32 H          -2.3640    3.7278    5.8496 H.spc      1 <1>        0.000
     33 H          -0.9423    1.3294    4.3007 H.spc      1 <1>        0.000
     34 H           1.3042    0.8543    6.1343 H.spc      1 <1>        0.000
     35 H           0.6729   -0.2388    4.8851 H.spc      1 <1>        0.000
     36 H           1.4680    1.2997    2.1501 H.spc      1 <1>        0.000
     37 H           0.6789    3.6067    3.1985 H.spc      1 <1>        0.000
     38 H           2.5257    3.6600    3.4525 H.spc      1 <1>        0.000
     39 H           2.9844    2.4044    0.7440 H.spc      1 <1>        0.000
     40 H           2.8346    4.8387   -0.8502 H.spc      1 <1>        0.000
     41 H           3.4413    3.2678   -1.3663 H.spc      1 <1>        0.000
     42 H           0.3289    4.7439   -0.2896 H.spc      1 <1>        0.000
     43 H          -1.5374    3.4639   -0.0952 H.spc      1 <1>        0.000
     44 H          -1.5842    4.3950   -1.7792 H.spc      1 <1>        0.000
     45 H          -2.7402    2.4305   -1.9268 H.spc      1 <1>        0.000
     46 H          -1.0684    2.2672   -2.7285 H.spc      1 <1>        0.000
@<TRIPOS>BOND
     1    3    4 1  
     2    1   20 1  
     3    1    2 1  
     4    2    3 1  
     5   19   20 1  
     6   18   19 1  
     7    9   21 2  
     8    9   18 am 
     9   17    9 1  
    10   16   17 1  
    11   15   22 2  
    12   15   16 am 
    13   14   15 1  
    14   13   14 1  
    15   12   23 2  
    16   12   13 am 
    17   11   12 1  
    18   10   11 1  
    19    8   24 2  
    20    8   10 am 
    21    7    8 1  
    22    6    7 1  
    23    5   25 2  
    24    5    6 am 
    25    4    5 1  
    26    3   26 1  
    27    3   27 1  
    28    4   28 1  
    29    4   29 1  
    30    6   30 1  
    31    7   31 1  
    32    7   32 1  
    33   10   33 1  
    34   11   34 1  
    35   11   35 1  
    36   13   36 1  
    37   14   37 1  
    38   14   38 1  
    39   16   39 1  
    40   17   40 1  
    41   17   41 1  
    42   18   42 1  
    43   19   43 1  
    44   19   44 1  
    45   20   45 1  
    46   20   46 1  
# Name:          frag5-559-48/41815
# Creation time: Sat Jun  5 12:52:53 2010


@<TRIPOS>MOLECULE
frag5-559-48/41815
   46    46     1     1     1
SMALL
USER_CHARGES


@<TRIPOS>ATOM
      1 S1         -1.2653    1.4215   -0.3808 S.3        1 <1>        0.000
      2 S2         -2.5758    0.2381    0.5852 S.3        1 <1>        0.000
      3 C1         -3.5801    1.0996    1.8104 C.3        1 <1>        0.000
      4 C2         -4.2614    0.3316    2.9041 C.3        1 <1>        0.000
      5 C3         -3.9741    0.7450    4.3206 C.2        1 <1>        0.000
      6 N1         -3.1153    1.7738    4.6022 N.am       1 <1>        0.000
      7 C4         -1.8052    1.5468    5.2552 C.3        1 <1>        0.000
      8 C5         -0.6862    2.3935    4.6083 C.2        1 <1>        0.000
      9 C11         0.7058    5.1653   -0.6259 C.2        1 <1>        0.000
     10 N2          0.5071    2.5266    5.2690 N.am       1 <1>        0.000
     11 C6          1.6806    3.1786    4.7660 C.3        1 <1>        0.000
     12 C7          2.6728    2.1533    4.2075 C.2        1 <1>        0.000
     13 N3          3.1573    2.2587    2.9421 N.am       1 <1>        0.000
     14 C8          2.7600    3.2399    1.9689 C.3        1 <1>        0.000
     15 C9          3.3154    3.1601    0.5538 C.2        1 <1>        0.000
     16 N4          2.9716    4.1188   -0.3591 N.am       1 <1>        0.000
     17 C10         2.1577    5.3140   -0.1631 C.3        1 <1>        0.000
     18 N5          0.3329    4.1540   -1.4461 N.am       1 <1>        0.000
     19 C12        -1.0402    3.8440   -1.7792 C.3        1 <1>        0.000
     20 C13        -1.8660    3.0701   -0.7699 C.3        1 <1>        0.000
     21 O4         -0.1074    5.9913   -0.2054 O.2        1 <1>        0.000
     22 O6          4.0816    2.2457    0.2293 O.2        1 <1>        0.000
     23 O7          3.0653    1.2445    4.9468 O.2        1 <1>        0.000
     24 O8         -0.8839    2.9194    3.5044 O.2        1 <1>        0.000
     25 O10        -4.5666    0.1579    5.2217 O.2        1 <1>        0.000
     26 H          -2.8744    1.7456    2.3327 H.spc      1 <1>        0.000
     27 H          -4.3978    1.5323    1.2340 H.spc      1 <1>        0.000
     28 H          -3.8972   -0.6920    2.8163 H.spc      1 <1>        0.000
     29 H          -5.3290    0.4974    2.7596 H.spc      1 <1>        0.000
     30 H          -3.3860    2.7256    4.3547 H.spc      1 <1>        0.000
     31 H          -1.8904    1.8352    6.3029 H.spc      1 <1>        0.000
     32 H          -1.5453    0.4940    5.1444 H.spc      1 <1>        0.000
     33 H           0.5657    2.1248    6.2047 H.spc      1 <1>        0.000
     34 H           1.3898    3.8594    3.9660 H.spc      1 <1>        0.000
     35 H           2.1578    3.7229    5.5809 H.spc      1 <1>        0.000
     36 H           3.8654    1.5819    2.6576 H.spc      1 <1>        0.000
     37 H           1.6859    3.0953    1.8530 H.spc      1 <1>        0.000
     38 H           3.1353    4.1854    2.3604 H.spc      1 <1>        0.000
     39 H           3.3323    3.9797   -1.3030 H.spc      1 <1>        0.000
     40 H           2.1354    5.5167    0.9077 H.spc      1 <1>        0.000
     41 H           2.6056    6.1100   -0.7580 H.spc      1 <1>        0.000
     42 H           1.0663    3.5746   -1.8545 H.spc      1 <1>        0.000
     43 H          -1.5370    4.8093   -1.8770 H.spc      1 <1>        0.000
     44 H          -0.9845    3.2014   -2.6579 H.spc      1 <1>        0.000
     45 H          -1.8344    3.6394    0.1591 H.spc      1 <1>        0.000
     46 H          -2.8555    2.9444   -1.2094 H.spc      1 <1>        0.000
@<TRIPOS>BOND
     1    3    4 1  
     2    1   20 1  
     3    1    2 1  
     4    2    3 1  
     5   19   20 1  
     6   18   19 1  
     7    9   21 2  
     8    9   18 am 
     9   17    9 1  
    10   16   17 1  
    11   15   22 2  
    12   15   16 am 
    13   14   15 1  
    14   13   14 1  
    15   12   23 2  
    16   12   13 am 
    17   11   12 1  
    18   10   11 1  
    19    8   24 2  
    20    8   10 am 
    21    7    8 1  
    22    6    7 1  
    23    5   25 2  
    24    5    6 am 
    25    4    5 1  
    26    3   26 1  
    27    3   27 1  
    28    4   28 1  
    29    4   29 1  
    30    6   30 1  
    31    7   31 1  
    32    7   32 1  
    33   10   33 1  
    34   11   34 1  
    35   11   35 1  
    36   13   36 1  
    37   14   37 1  
    38   14   38 1  
    39   16   39 1  
    40   17   40 1  
    41   17   41 1  
    42   18   42 1  
    43   19   43 1  
    44   19   44 1  
    45   20   45 1  
    46   20   46 1  
# Name:          frag5-559-48/41815
# Creation time: Sat Jun  5 12:52:53 2010


@<TRIPOS>MOLECULE
frag5-559-48/41815
   46    46     1     1     1
SMALL
USER_CHARGES


@<TRIPOS>ATOM
      1 S1         -2.6209    1.1857   -1.1873 S.3        1 <1>        0.000
      2 S2         -1.1950    0.3367   -0.0558 S.3        1 <1>        0.000
      3 C1         -1.5331    0.0098    1.6743 C.3        1 <1>        0.000
      4 C2         -2.3964    1.0283    2.4052 C.3        1 <1>        0.000
      5 C3         -1.6888    2.3050    2.8303 C.2        1 <1>        0.000
      6 N1         -1.8610    2.7566    4.0904 N.am       1 <1>        0.000
      7 C4         -1.1943    3.8680    4.7371 C.3        1 <1>        0.000
      8 C5         -0.2553    3.2154    5.7558 C.2        1 <1>        0.000
      9 C11        -0.0513    3.7994   -1.4310 C.2        1 <1>        0.000
     10 N2          1.0906    3.3334    5.6218 N.am       1 <1>        0.000
     11 C6          1.9844    2.2392    5.8811 C.3        1 <1>        0.000
     12 C7          1.8637    1.2510    4.7049 C.2        1 <1>        0.000
     13 N3          1.9136    1.6381    3.3880 N.am       1 <1>        0.000
     14 C8          2.1237    2.9675    2.8830 C.3        1 <1>        0.000
     15 C9          2.3366    3.3612    1.4339 C.2        1 <1>        0.000
     16 N4          1.3351    3.2395    0.5194 N.am       1 <1>        0.000
     17 C10         1.3035    3.9758   -0.7325 C.3        1 <1>        0.000
     18 N5         -1.1374    4.3815   -0.8784 N.am       1 <1>        0.000
     19 C12        -2.5055    4.1000   -1.2196 C.3        1 <1>        0.000
     20 C13        -3.1750    2.8387   -0.6994 C.3        1 <1>        0.000
     21 O4         -0.0886    3.1447   -2.4704 O.2        1 <1>        0.000
     22 O6          3.4167    3.8798    1.1419 O.2        1 <1>        0.000
     23 O7          1.7690    0.0417    4.9460 O.2        1 <1>        0.000
     24 O8         -0.7659    2.4860    6.6093 O.2        1 <1>        0.000
     25 O10        -0.9879    2.9091    2.0178 O.2        1 <1>        0.000
     26 H          -2.0877   -0.9282    1.7003 H.spc      1 <1>        0.000
     27 H          -0.5659    0.0197    2.1768 H.spc      1 <1>        0.000
     28 H          -2.7381    0.5445    3.3202 H.spc      1 <1>        0.000
     29 H          -3.1802    1.3261    1.7088 H.spc      1 <1>        0.000
     30 H          -2.5443    2.2537    4.6566 H.spc      1 <1>        0.000
     31 H          -0.6531    4.4895    4.0237 H.spc      1 <1>        0.000
     32 H          -1.9021    4.5473    5.2121 H.spc      1 <1>        0.000
     33 H           1.4801    4.2289    5.3272 H.spc      1 <1>        0.000
     34 H           3.0094    2.5987    5.9723 H.spc      1 <1>        0.000
     35 H           1.7230    1.7485    6.8186 H.spc      1 <1>        0.000
     36 H           1.7879    0.9023    2.6928 H.spc      1 <1>        0.000
     37 H           1.1657    3.4396    3.1008 H.spc      1 <1>        0.000
     38 H           3.0880    3.2205    3.3237 H.spc      1 <1>        0.000
     39 H           0.5682    2.5988    0.7237 H.spc      1 <1>        0.000
     40 H           1.4568    5.0344   -0.5228 H.spc      1 <1>        0.000
     41 H           2.0889    3.5950   -1.3853 H.spc      1 <1>        0.000
     42 H          -0.9728    5.0822   -0.1557 H.spc      1 <1>        0.000
     43 H          -3.0718    4.9148   -0.7684 H.spc      1 <1>        0.000
     44 H          -2.4961    3.9765   -2.3025 H.spc      1 <1>        0.000
     45 H          -2.9786    2.8683    0.3724 H.spc      1 <1>        0.000
     46 H          -4.1852    2.8997   -1.1043 H.spc      1 <1>        0.000
@<TRIPOS>BOND
     1    3    4 1  
     2    1   20 1  
     3    1    2 1  
     4    2    3 1  
     5   19   20 1  
     6   18   19 1  
     7    9   21 2  
     8    9   18 am 
     9   17    9 1  
    10   16   17 1  
    11   15   22 2  
    12   15   16 am 
    13   14   15 1  
    14   13   14 1  
    15   12   23 2  
    16   12   13 am 
    17   11   12 1  
    18   10   11 1  
    19    8   24 2  
    20    8   10 am 
    21    7    8 1  
    22    6    7 1  
    23    5   25 2  
    24    5    6 am 
    25    4    5 1  
    26    3   26 1  
    27    3   27 1  
    28    4   28 1  
    29    4   29 1  
    30    6   30 1  
    31    7   31 1  
    32    7   32 1  
    33   10   33 1  
    34   11   34 1  
    35   11   35 1  
    36   13   36 1  
    37   14   37 1  
    38   14   38 1  
    39   16   39 1  
    40   17   40 1  
    41   17   41 1  
    42   18   42 1  
    43   19   43 1  
    44   19   44 1  
    45   20   45 1  
    46   20   46 1  
# Name:          frag5-559-48/41815
# Creation time: Sat Jun  5 12:52:53 2010


@<TRIPOS>MOLECULE
frag5-559-48/41815
   46    46     1     1     1
SMALL
USER_CHARGES


@<TRIPOS>ATOM
      1 S1         -1.3753    4.1834   -0.0208 S.3        1 <1>        0.000
      2 S2         -2.8923    3.7883    1.2070 S.3        1 <1>        0.000
      3 C1         -3.2335    2.1159    1.7478 C.3        1 <1>        0.000
      4 C2         -2.0413    1.2465    2.0760 C.3        1 <1>        0.000
      5 C3         -1.8427    0.8267    3.5081 C.2        1 <1>        0.000
      6 N1         -1.8609    1.7409    4.5126 N.am       1 <1>        0.000
      7 C4         -1.5650    1.4416    5.8936 C.3        1 <1>        0.000
      8 C5         -0.9361    2.5687    6.7142 C.2        1 <1>        0.000
      9 C11         1.1943    1.5407   -1.8416 C.2        1 <1>        0.000
     10 N2         -0.0758    3.4902    6.2281 N.am       1 <1>        0.000
     11 C6          0.3752    3.7801    4.8916 C.3        1 <1>        0.000
     12 C7          1.3244    2.7597    4.2416 C.2        1 <1>        0.000
     13 N3          1.8113    2.9642    2.9838 N.am       1 <1>        0.000
     14 C8          1.6583    4.1087    2.1402 C.3        1 <1>        0.000
     15 C9          2.0500    3.8780    0.7007 C.2        1 <1>        0.000
     16 N4          2.0083    2.6260    0.1736 N.am       1 <1>        0.000
     17 C10         2.3394    2.2950   -1.1829 C.3        1 <1>        0.000
     18 N5          0.1249    2.1615   -2.3893 N.am       1 <1>        0.000
     19 C12        -0.2575    3.5450   -2.4949 C.3        1 <1>        0.000
     20 C13        -1.5041    4.0467   -1.7924 C.3        1 <1>        0.000
     21 O4          1.2107    0.3031   -1.8557 O.2        1 <1>        0.000
     22 O6          2.3508    4.8714    0.0333 O.2        1 <1>        0.000
     23 O7          1.6545    1.7432    4.8520 O.2        1 <1>        0.000
     24 O8         -1.1983    2.6381    7.9220 O.2        1 <1>        0.000
     25 O10        -1.6385   -0.3715    3.7172 O.2        1 <1>        0.000
     26 H          -3.7975    2.2115    2.6756 H.spc      1 <1>        0.000
     27 H          -3.7369    1.6291    0.9125 H.spc      1 <1>        0.000
     28 H          -1.1678    1.8497    1.8286 H.spc      1 <1>        0.000
     29 H          -2.1989    0.3204    1.5233 H.spc      1 <1>        0.000
     30 H          -2.0997    2.7037    4.2752 H.spc      1 <1>        0.000
     31 H          -2.5216    1.2201    6.3669 H.spc      1 <1>        0.000
     32 H          -0.8332    0.6339    5.8781 H.spc      1 <1>        0.000
     33 H           0.3308    4.0943    6.9423 H.spc      1 <1>        0.000
     34 H          -0.5204    3.7928    4.2704 H.spc      1 <1>        0.000
     35 H           0.9393    4.7101    4.9619 H.spc      1 <1>        0.000
     36 H           2.3582    2.1974    2.5923 H.spc      1 <1>        0.000
     37 H           0.6005    4.3717    2.1460 H.spc      1 <1>        0.000
     38 H           2.3166    4.8847    2.5308 H.spc      1 <1>        0.000
     39 H           1.7201    1.8647    0.7882 H.spc      1 <1>        0.000
     40 H           2.5228    3.2153   -1.7375 H.spc      1 <1>        0.000
     41 H           3.2280    1.6638   -1.1867 H.spc      1 <1>        0.000
     42 H          -0.5457    1.5201   -2.8128 H.spc      1 <1>        0.000
     43 H           0.5589    4.0890   -2.0199 H.spc      1 <1>        0.000
     44 H          -0.4674    3.6881   -3.5549 H.spc      1 <1>        0.000
     45 H          -1.6928    5.0515   -2.1704 H.spc      1 <1>        0.000
     46 H          -2.2903    3.3189   -1.9933 H.spc      1 <1>        0.000
@<TRIPOS>BOND
     1    3    4 1  
     2    1   20 1  
     3    1    2 1  
     4    2    3 1  
     5   19   20 1  
     6   18   19 1  
     7    9   21 2  
     8    9   18 am 
     9   17    9 1  
    10   16   17 1  
    11   15   22 2  
    12   15   16 am 
    13   14   15 1  
    14   13   14 1  
    15   12   23 2  
    16   12   13 am 
    17   11   12 1  
    18   10   11 1  
    19    8   24 2  
    20    8   10 am 
    21    7    8 1  
    22    6    7 1  
    23    5   25 2  
    24    5    6 am 
    25    4    5 1  
    26    3   26 1  
    27    3   27 1  
    28    4   28 1  
    29    4   29 1  
    30    6   30 1  
    31    7   31 1  
    32    7   32 1  
    33   10   33 1  
    34   11   34 1  
    35   11   35 1  
    36   13   36 1  
    37   14   37 1  
    38   14   38 1  
    39   16   39 1  
    40   17   40 1  
    41   17   41 1  
    42   18   42 1  
    43   19   43 1  
    44   19   44 1  
    45   20   45 1  
    46   20   46 1  
# Name:          frag5-559-48/41815
# Creation time: Sat Jun  5 12:52:53 2010


@<TRIPOS>MOLECULE
frag5-559-48/41815
   46    46     1     1     1
SMALL
USER_CHARGES


@<TRIPOS>ATOM
      1 S1         -4.0901    3.3440    0.5526 S.3        1 <1>        0.000
      2 S2         -5.2509    1.7913    1.0752 S.3        1 <1>        0.000
      3 C1         -4.4847    0.3267    1.7960 C.3        1 <1>        0.000
      4 C2         -2.9979    0.1274    1.5098 C.3        1 <1>        0.000
      5 C3         -2.0223    0.9625    2.2908 C.2        1 <1>        0.000
      6 N1         -1.8985    0.8028    3.6474 N.am       1 <1>        0.000
      7 C4         -0.7284    1.2166    4.3780 C.3        1 <1>        0.000
      8 C5         -0.4734    2.7045    4.6734 C.2        1 <1>        0.000
      9 C11         0.2668    3.2837   -0.0065 C.2        1 <1>        0.000
     10 N2          0.6035    2.9788    5.4886 N.am       1 <1>        0.000
     11 C6          1.5943    3.9576    5.1797 C.3        1 <1>        0.000
     12 C7          2.6033    3.2456    4.2500 C.2        1 <1>        0.000
     13 N3          3.3776    4.0614    3.4326 N.am       1 <1>        0.000
     14 C8          4.3049    3.4869    2.4563 C.3        1 <1>        0.000
     15 C9          3.7106    2.6847    1.2825 C.2        1 <1>        0.000
     16 N4          2.3887    2.5150    1.0276 N.am       1 <1>        0.000
     17 C10         1.2605    3.4300    1.1663 C.3        1 <1>        0.000
     18 N5         -0.7829    4.1670   -0.0785 N.am       1 <1>        0.000
     19 C12        -1.8761    4.1498   -1.0187 C.3        1 <1>        0.000
     20 C13        -3.0275    3.1597   -0.8836 C.3        1 <1>        0.000
     21 O4          0.4292    2.3939   -0.8479 O.2        1 <1>        0.000
     22 O6          4.5086    2.1540    0.4967 O.2        1 <1>        0.000
     23 O7          2.6789    2.0140    4.2717 O.2        1 <1>        0.000
     24 O8         -1.1282    3.6087    4.1569 O.2        1 <1>        0.000
     25 O10        -1.2852    1.7254    1.6689 O.2        1 <1>        0.000
     26 H          -4.5723    0.4401    2.8765 H.spc      1 <1>        0.000
     27 H          -4.9951   -0.5297    1.3554 H.spc      1 <1>        0.000
     28 H          -2.8592    0.4129    0.4670 H.spc      1 <1>        0.000
     29 H          -2.7829   -0.9060    1.7819 H.spc      1 <1>        0.000
     30 H          -2.6679    0.3727    4.1607 H.spc      1 <1>        0.000
     31 H          -0.8555    0.7668    5.3627 H.spc      1 <1>        0.000
     32 H           0.1036    0.9252    3.7369 H.spc      1 <1>        0.000
     33 H           0.6970    2.4544    6.3585 H.spc      1 <1>        0.000
     34 H           1.1556    4.8315    4.6980 H.spc      1 <1>        0.000
     35 H           2.0785    4.3337    6.0809 H.spc      1 <1>        0.000
     36 H           3.2984    5.0750    3.5144 H.spc      1 <1>        0.000
     37 H           4.8093    4.3384    1.9996 H.spc      1 <1>        0.000
     38 H           4.9113    2.7751    3.0164 H.spc      1 <1>        0.000
     39 H           2.1411    1.5889    0.6792 H.spc      1 <1>        0.000
     40 H           0.7376    3.1958    2.0935 H.spc      1 <1>        0.000
     41 H           1.6421    4.4510    1.1705 H.spc      1 <1>        0.000
     42 H          -0.7898    4.9193    0.6103 H.spc      1 <1>        0.000
     43 H          -2.3512    5.1214   -0.8832 H.spc      1 <1>        0.000
     44 H          -1.4042    3.8731   -1.9615 H.spc      1 <1>        0.000
     45 H          -3.6664    3.3235   -1.7514 H.spc      1 <1>        0.000
     46 H          -2.5670    2.1761   -0.7908 H.spc      1 <1>        0.000
@<TRIPOS>BOND
     1    3    4 1  
     2    1   20 1  
     3    1    2 1  
     4    2    3 1  
     5   19   20 1  
     6   18   19 1  
     7    9   21 2  
     8    9   18 am 
     9   17    9 1  
    10   16   17 1  
    11   15   22 2  
    12   15   16 am 
    13   14   15 1  
    14   13   14 1  
    15   12   23 2  
    16   12   13 am 
    17   11   12 1  
    18   10   11 1  
    19    8   24 2  
    20    8   10 am 
    21    7    8 1  
    22    6    7 1  
    23    5   25 2  
    24    5    6 am 
    25    4    5 1  
    26    3   26 1  
    27    3   27 1  
    28    4   28 1  
    29    4   29 1  
    30    6   30 1  
    31    7   31 1  
    32    7   32 1  
    33   10   33 1  
    34   11   34 1  
    35   11   35 1  
    36   13   36 1  
    37   14   37 1  
    38   14   38 1  
    39   16   39 1  
    40   17   40 1  
    41   17   41 1  
    42   18   42 1  
    43   19   43 1  
    44   19   44 1  
    45   20   45 1  
    46   20   46 1  
# Name:          frag5-559-48/41815
# Creation time: Sat Jun  5 12:52:53 2010


@<TRIPOS>MOLECULE
frag5-559-48/41815
   46    46     1     1     1
SMALL
USER_CHARGES


@<TRIPOS>ATOM
      1 S1         -3.1076    1.0958   -1.3427 S.3        1 <1>        0.000
      2 S2         -3.8335    2.1772    0.1901 S.3        1 <1>        0.000
      3 C1         -2.6133    2.9621    1.2035 C.3        1 <1>        0.000
      4 C2         -2.9739    3.6555    2.4912 C.3        1 <1>        0.000
      5 C3         -3.2078    2.8028    3.7302 C.2        1 <1>        0.000
      6 N1         -2.2968    1.9057    4.1774 N.am       1 <1>        0.000
      7 C4         -0.9782    1.4744    3.7207 C.3        1 <1>        0.000
      8 C5         -0.0523    1.1087    4.8884 C.2        1 <1>        0.000
      9 C11         0.8168    2.0287   -0.1677 C.2        1 <1>        0.000
     10 N2          1.2793    1.3551    4.8297 N.am       1 <1>        0.000
     11 C6          2.0632    1.9134    3.7551 C.3        1 <1>        0.000
     12 C7          3.0554    2.9913    4.1808 C.2        1 <1>        0.000
     13 N3          3.4811    3.9429    3.3161 N.am       1 <1>        0.000
     14 C8          3.1733    4.1057    1.9178 C.3        1 <1>        0.000
     15 C9          1.7796    4.7026    1.7017 C.2        1 <1>        0.000
     16 N4          0.9894    4.3695    0.6542 N.am       1 <1>        0.000
     17 C10         1.1681    3.4873   -0.4870 C.3        1 <1>        0.000
     18 N5          0.1279    1.2350   -1.0139 N.am       1 <1>        0.000
     19 C12        -0.4844    1.4586   -2.3115 C.3        1 <1>        0.000
     20 C13        -1.9356    1.9515   -2.4620 C.3        1 <1>        0.000
     21 O4          1.1793    1.5313    0.9034 O.2        1 <1>        0.000
     22 O6          1.3431    5.5319    2.5095 O.2        1 <1>        0.000
     23 O7          3.5018    2.9846    5.3319 O.2        1 <1>        0.000
     24 O8         -0.5310    0.5674    5.8919 O.2        1 <1>        0.000
     25 O10        -4.2631    2.9532    4.3567 O.2        1 <1>        0.000
     26 H          -1.9773    2.1374    1.5252 H.spc      1 <1>        0.000
     27 H          -2.2368    3.7685    0.5742 H.spc      1 <1>        0.000
     28 H          -3.9284    4.1442    2.2956 H.spc      1 <1>        0.000
     29 H          -2.1128    4.2792    2.7313 H.spc      1 <1>        0.000
     30 H          -2.5997    1.4228    5.0232 H.spc      1 <1>        0.000
     31 H          -1.1073    0.5881    3.0994 H.spc      1 <1>        0.000
     32 H          -0.5228    2.2986    3.1717 H.spc      1 <1>        0.000
     33 H           1.8044    1.1096    5.6690 H.spc      1 <1>        0.000
     34 H           2.6463    1.0961    3.3308 H.spc      1 <1>        0.000
     35 H           1.3635    2.3825    3.0633 H.spc      1 <1>        0.000
     36 H           4.1085    4.6437    3.7106 H.spc      1 <1>        0.000
     37 H           3.9061    4.7866    1.4849 H.spc      1 <1>        0.000
     38 H           3.1996    3.1231    1.4468 H.spc      1 <1>        0.000
     39 H           0.0811    4.8334    0.6688 H.spc      1 <1>        0.000
     40 H           0.5016    3.8264   -1.2800 H.spc      1 <1>        0.000
     41 H           2.2183    3.5231   -0.7767 H.spc      1 <1>        0.000
     42 H           0.0136    0.2810   -0.6714 H.spc      1 <1>        0.000
     43 H           0.1053    2.2723   -2.7338 H.spc      1 <1>        0.000
     44 H          -0.5065    0.4639   -2.7567 H.spc      1 <1>        0.000
     45 H          -1.9523    3.0119   -2.2101 H.spc      1 <1>        0.000
     46 H          -2.2489    1.7490   -3.4862 H.spc      1 <1>        0.000
@<TRIPOS>BOND
     1    3    4 1  
     2    1   20 1  
     3    1    2 1  
     4    2    3 1  
     5   19   20 1  
     6   18   19 1  
     7    9   21 2  
     8    9   18 am 
     9   17    9 1  
    10   16   17 1  
    11   15   22 2  
    12   15   16 am 
    13   14   15 1  
    14   13   14 1  
    15   12   23 2  
    16   12   13 am 
    17   11   12 1  
    18   10   11 1  
    19    8   24 2  
    20    8   10 am 
    21    7    8 1  
    22    6    7 1  
    23    5   25 2  
    24    5    6 am 
    25    4    5 1  
    26    3   26 1  
    27    3   27 1  
    28    4   28 1  
    29    4   29 1  
    30    6   30 1  
    31    7   31 1  
    32    7   32 1  
    33   10   33 1  
    34   11   34 1  
    35   11   35 1  
    36   13   36 1  
    37   14   37 1  
    38   14   38 1  
    39   16   39 1  
    40   17   40 1  
    41   17   41 1  
    42   18   42 1  
    43   19   43 1  
    44   19   44 1  
    45   20   45 1  
    46   20   46 1  
# Name:          frag5-559-48/41815
# Creation time: Sat Jun  5 12:52:53 2010


@<TRIPOS>MOLECULE
frag5-559-48/41815
   46    46     1     1     1
SMALL
USER_CHARGES


@<TRIPOS>ATOM
      1 S1         -2.6604    1.2205   -0.0714 S.3        1 <1>        0.000
      2 S2         -4.3637    2.0488    0.5577 S.3        1 <1>        0.000
      3 C1         -4.5310    2.6488    2.2328 C.3        1 <1>        0.000
      4 C2         -4.8511    1.6193    3.2895 C.3        1 <1>        0.000
      5 C3         -3.6814    1.0133    4.0221 C.2        1 <1>        0.000
      6 N1         -3.1353    1.7133    5.0484 N.am       1 <1>        0.000
      7 C4         -1.9451    1.3916    5.8009 C.3        1 <1>        0.000
      8 C5         -0.8986    2.3885    5.3393 C.2        1 <1>        0.000
      9 C11         1.7101    3.3529   -2.0171 C.2        1 <1>        0.000
     10 N2          0.4427    2.1742    5.4260 N.am       1 <1>        0.000
     11 C6          1.3185    3.0399    4.6919 C.3        1 <1>        0.000
     12 C7          2.7374    2.5616    4.3569 C.2        1 <1>        0.000
     13 N3          3.3428    3.0875    3.2477 N.am       1 <1>        0.000
     14 C8          2.9397    4.3087    2.5506 C.3        1 <1>        0.000
     15 C9          2.9651    4.2109    1.0277 C.2        1 <1>        0.000
     16 N4          2.4976    3.1036    0.3853 N.am       1 <1>        0.000
     17 C10         2.7288    2.8210   -1.0130 C.3        1 <1>        0.000
     18 N5          0.4876    2.8145   -2.1979 N.am       1 <1>        0.000
     19 C12        -0.2701    1.8307   -1.4766 C.3        1 <1>        0.000
     20 C13        -1.3266    2.3192   -0.5039 C.3        1 <1>        0.000
     21 O4          2.0095    4.3140   -2.7341 O.2        1 <1>        0.000
     22 O6          3.3928    5.1843    0.4006 O.2        1 <1>        0.000
     23 O7          3.3227    1.7554    5.0841 O.2        1 <1>        0.000
     24 O8         -1.3071    3.4535    4.8429 O.2        1 <1>        0.000
     25 O10        -3.2444   -0.0840    3.6756 O.2        1 <1>        0.000
     26 H          -3.5604    3.0654    2.5021 H.spc      1 <1>        0.000
     27 H          -5.3725    3.3415    2.2222 H.spc      1 <1>        0.000
     28 H          -5.3376    0.7952    2.7676 H.spc      1 <1>        0.000
     29 H          -5.4416    2.1382    4.0446 H.spc      1 <1>        0.000
     30 H          -3.6226    2.5671    5.3204 H.spc      1 <1>        0.000
     31 H          -2.1185    1.4600    6.8748 H.spc      1 <1>        0.000
     32 H          -1.6254    0.3643    5.6264 H.spc      1 <1>        0.000
     33 H           0.8153    1.4169    5.9987 H.spc      1 <1>        0.000
     34 H           0.8334    3.1723    3.7248 H.spc      1 <1>        0.000
     35 H           1.4615    3.9054    5.3388 H.spc      1 <1>        0.000
     36 H           4.1466    2.5829    2.8739 H.spc      1 <1>        0.000
     37 H           1.9084    4.5129    2.8385 H.spc      1 <1>        0.000
     38 H           3.6525    5.0843    2.8309 H.spc      1 <1>        0.000
     39 H           1.9506    2.4327    0.9249 H.spc      1 <1>        0.000
     40 H           3.6692    3.3135   -1.2603 H.spc      1 <1>        0.000
     41 H           2.6904    1.7354   -1.1032 H.spc      1 <1>        0.000
     42 H           0.0004    3.1815   -3.0154 H.spc      1 <1>        0.000
     43 H          -0.8138    1.2697   -2.2367 H.spc      1 <1>        0.000
     44 H           0.4576    1.2940   -0.8680 H.spc      1 <1>        0.000
     45 H          -0.7925    2.4989    0.4291 H.spc      1 <1>        0.000
     46 H          -1.8037    3.1628   -1.0026 H.spc      1 <1>        0.000
@<TRIPOS>BOND
     1    3    4 1  
     2    1   20 1  
     3    1    2 1  
     4    2    3 1  
     5   19   20 1  
     6   18   19 1  
     7    9   21 2  
     8    9   18 am 
     9   17    9 1  
    10   16   17 1  
    11   15   22 2  
    12   15   16 am 
    13   14   15 1  
    14   13   14 1  
    15   12   23 2  
    16   12   13 am 
    17   11   12 1  
    18   10   11 1  
    19    8   24 2  
    20    8   10 am 
    21    7    8 1  
    22    6    7 1  
    23    5   25 2  
    24    5    6 am 
    25    4    5 1  
    26    3   26 1  
    27    3   27 1  
    28    4   28 1  
    29    4   29 1  
    30    6   30 1  
    31    7   31 1  
    32    7   32 1  
    33   10   33 1  
    34   11   34 1  
    35   11   35 1  
    36   13   36 1  
    37   14   37 1  
    38   14   38 1  
    39   16   39 1  
    40   17   40 1  
    41   17   41 1  
    42   18   42 1  
    43   19   43 1  
    44   19   44 1  
    45   20   45 1  
    46   20   46 1  
# Name:          frag5-559-48/41815
# Creation time: Sat Jun  5 12:52:53 2010


@<TRIPOS>MOLECULE
frag5-559-48/41815
   46    46     1     1     1
SMALL
USER_CHARGES


@<TRIPOS>ATOM
      1 S1         -3.4249    1.7217   -0.5045 S.3        1 <1>        0.000
      2 S2         -4.4011    2.6962    0.9449 S.3        1 <1>        0.000
      3 C1         -3.5948    4.0849    1.7723 C.3        1 <1>        0.000
      4 C2         -2.1083    3.9565    1.9755 C.3        1 <1>        0.000
      5 C3         -1.6401    2.7520    2.7811 C.2        1 <1>        0.000
      6 N1         -2.1353    2.4689    4.0110 N.am       1 <1>        0.000
      7 C4         -1.7504    1.2940    4.7485 C.3        1 <1>        0.000
      8 C5         -0.2702    1.1526    5.1949 C.2        1 <1>        0.000
      9 C11         0.6843    1.8956   -1.4949 C.2        1 <1>        0.000
     10 N2          0.6165    2.1527    5.3737 N.am       1 <1>        0.000
     11 C6          0.5427    3.5903    5.2872 C.3        1 <1>        0.000
     12 C7          1.9126    4.2141    4.9740 C.2        1 <1>        0.000
     13 N3          2.4075    4.2317    3.7097 N.am       1 <1>        0.000
     14 C8          1.8208    3.6615    2.5251 C.3        1 <1>        0.000
     15 C9          2.6011    3.7784    1.2166 C.2        1 <1>        0.000
     16 N4          2.1806    3.1103    0.1075 N.am       1 <1>        0.000
     17 C10         1.0417    2.2329   -0.0550 C.3        1 <1>        0.000
     18 N5         -0.3236    1.0587   -1.8373 N.am       1 <1>        0.000
     19 C12        -1.1635    0.1161   -1.1283 C.3        1 <1>        0.000
     20 C13        -2.2076    0.4727   -0.0870 C.3        1 <1>        0.000
     21 O4          1.3354    2.4152   -2.4133 O.2        1 <1>        0.000
     22 O6          3.6020    4.4959    1.1788 O.2        1 <1>        0.000
     23 O7          2.5773    4.6795    5.8959 O.2        1 <1>        0.000
     24 O8          0.1229    0.0060    5.4676 O.2        1 <1>        0.000
     25 O10        -0.7447    2.0538    2.3216 O.2        1 <1>        0.000
     26 H          -3.7429    4.9529    1.1298 H.spc      1 <1>        0.000
     27 H          -4.0362    4.1478    2.7669 H.spc      1 <1>        0.000
     28 H          -1.8015    4.8373    2.5396 H.spc      1 <1>        0.000
     29 H          -1.6742    3.8449    0.9819 H.spc      1 <1>        0.000
     30 H          -2.8062    3.1130    4.4298 H.spc      1 <1>        0.000
     31 H          -2.3246    1.3373    5.6740 H.spc      1 <1>        0.000
     32 H          -1.9240    0.4604    4.0680 H.spc      1 <1>        0.000
     33 H           1.5463    1.8179    5.6263 H.spc      1 <1>        0.000
     34 H          -0.1445    3.8504    4.4821 H.spc      1 <1>        0.000
     35 H           0.2029    3.9746    6.2490 H.spc      1 <1>        0.000
     36 H           3.3020    4.7056    3.5842 H.spc      1 <1>        0.000
     37 H           1.7446    2.5925    2.7239 H.spc      1 <1>        0.000
     38 H           0.8962    4.2154    2.3629 H.spc      1 <1>        0.000
     39 H           2.7495    3.2479   -0.7279 H.spc      1 <1>        0.000
     40 H           1.2991    1.2924    0.4322 H.spc      1 <1>        0.000
     41 H           0.1824    2.7540    0.3670 H.spc      1 <1>        0.000
     42 H          -0.5438    1.1028   -2.8323 H.spc      1 <1>        0.000
     43 H          -1.7746   -0.2939   -1.9324 H.spc      1 <1>        0.000
     44 H          -0.4345   -0.4397   -0.5387 H.spc      1 <1>        0.000
     45 H          -2.7773   -0.4423    0.0751 H.spc      1 <1>        0.000
     46 H          -1.6481    0.8848    0.7528 H.spc      1 <1>        0.000
@<TRIPOS>BOND
     1    3    4 1  
     2    1   20 1  
     3    1    2 1  
     4    2    3 1  
     5   19   20 1  
     6   18   19 1  
     7    9   21 2  
     8    9   18 am 
     9   17    9 1  
    10   16   17 1  
    11   15   22 2  
    12   15   16 am 
    13   14   15 1  
    14   13   14 1  
    15   12   23 2  
    16   12   13 am 
    17   11   12 1  
    18   10   11 1  
    19    8   24 2  
    20    8   10 am 
    21    7    8 1  
    22    6    7 1  
    23    5   25 2  
    24    5    6 am 
    25    4    5 1  
    26    3   26 1  
    27    3   27 1  
    28    4   28 1  
    29    4   29 1  
    30    6   30 1  
    31    7   31 1  
    32    7   32 1  
    33   10   33 1  
    34   11   34 1  
    35   11   35 1  
    36   13   36 1  
    37   14   37 1  
    38   14   38 1  
    39   16   39 1  
    40   17   40 1  
    41   17   41 1  
    42   18   42 1  
    43   19   43 1  
    44   19   44 1  
    45   20   45 1  
    46   20   46 1  
# Name:          frag5-559-48/41815
# Creation time: Sat Jun  5 12:52:54 2010


@<TRIPOS>MOLECULE
frag5-559-48/41815
   46    46     1     1     1
SMALL
USER_CHARGES


@<TRIPOS>ATOM
      1 S1         -3.6912    1.3367   -0.8694 S.3        1 <1>        0.000
      2 S2         -3.8715    3.2662   -0.3930 S.3        1 <1>        0.000
      3 C1         -3.0758    3.9724    1.0603 C.3        1 <1>        0.000
      4 C2         -3.1319    3.2616    2.4070 C.3        1 <1>        0.000
      5 C3         -2.2627    2.0347    2.5959 C.2        1 <1>        0.000
      6 N1         -1.9485    1.6397    3.8566 N.am       1 <1>        0.000
      7 C4         -0.8509    0.7837    4.2182 C.3        1 <1>        0.000
      8 C5          0.0358    1.6373    5.1176 C.2        1 <1>        0.000
      9 C11         0.5850    2.8423   -0.6668 C.2        1 <1>        0.000
     10 N2          1.3265    1.9122    4.7615 N.am       1 <1>        0.000
     11 C6          2.1844    2.8306    5.4826 C.3        1 <1>        0.000
     12 C7          3.3814    3.3229    4.6608 C.2        1 <1>        0.000
     13 N3          3.2441    3.9856    3.4851 N.am       1 <1>        0.000
     14 C8          2.0469    4.5482    2.8774 C.3        1 <1>        0.000
     15 C9          1.1470    3.5434    2.1657 C.2        1 <1>        0.000
     16 N4          1.7804    2.5222    1.4496 N.am       1 <1>        0.000
     17 C10         1.0471    1.8208    0.3991 C.3        1 <1>        0.000
     18 N5         -0.3930    2.6358   -1.5837 N.am       1 <1>        0.000
     19 C12        -1.0886    1.4713   -2.0668 C.3        1 <1>        0.000
     20 C13        -2.1026    0.6196   -1.3136 C.3        1 <1>        0.000
     21 O4          1.1669    3.9279   -0.7344 O.2        1 <1>        0.000
     22 O6         -0.0711    3.7473    2.1903 O.2        1 <1>        0.000
     23 O7          4.5236    3.1205    5.0966 O.2        1 <1>        0.000
     24 O8         -0.4631    2.1042    6.1360 O.2        1 <1>        0.000
     25 O10        -1.8375    1.4049    1.6332 O.2        1 <1>        0.000
     26 H          -2.0158    3.9758    0.8065 H.spc      1 <1>        0.000
     27 H          -3.6142    4.9048    1.2303 H.spc      1 <1>        0.000
     28 H          -4.1584    2.9088    2.5069 H.spc      1 <1>        0.000
     29 H          -2.7708    3.9885    3.1346 H.spc      1 <1>        0.000
     30 H          -2.5426    1.9797    4.6128 H.spc      1 <1>        0.000
     31 H          -1.1925   -0.1181    4.7263 H.spc      1 <1>        0.000
     32 H          -0.3115    0.4264    3.3410 H.spc      1 <1>        0.000
     33 H           1.7081    1.4433    3.9400 H.spc      1 <1>        0.000
     34 H           1.5849    3.7029    5.7430 H.spc      1 <1>        0.000
     35 H           2.5783    2.2992    6.3490 H.spc      1 <1>        0.000
     36 H           4.1037    4.1072    2.9497 H.spc      1 <1>        0.000
     37 H           1.4572    4.9781    3.6871 H.spc      1 <1>        0.000
     38 H           2.3833    5.2577    2.1214 H.spc      1 <1>        0.000
     39 H           2.7461    2.2696    1.6593 H.spc      1 <1>        0.000
     40 H           1.6942    1.0759   -0.0641 H.spc      1 <1>        0.000
     41 H           0.1784    1.3225    0.8294 H.spc      1 <1>        0.000
     42 H          -0.7054    3.4978   -2.0307 H.spc      1 <1>        0.000
     43 H          -1.7121    1.9040   -2.8492 H.spc      1 <1>        0.000
     44 H          -0.2662    0.7664   -2.1890 H.spc      1 <1>        0.000
     45 H          -2.3447   -0.1954   -1.9957 H.spc      1 <1>        0.000
     46 H          -1.6233    0.3907   -0.3618 H.spc      1 <1>        0.000
@<TRIPOS>BOND
     1    3    4 1  
     2    1   20 1  
     3    1    2 1  
     4    2    3 1  
     5   19   20 1  
     6   18   19 1  
     7    9   21 2  
     8    9   18 am 
     9   17    9 1  
    10   16   17 1  
    11   15   22 2  
    12   15   16 am 
    13   14   15 1  
    14   13   14 1  
    15   12   23 2  
    16   12   13 am 
    17   11   12 1  
    18   10   11 1  
    19    8   24 2  
    20    8   10 am 
    21    7    8 1  
    22    6    7 1  
    23    5   25 2  
    24    5    6 am 
    25    4    5 1  
    26    3   26 1  
    27    3   27 1  
    28    4   28 1  
    29    4   29 1  
    30    6   30 1  
    31    7   31 1  
    32    7   32 1  
    33   10   33 1  
    34   11   34 1  
    35   11   35 1  
    36   13   36 1  
    37   14   37 1  
    38   14   38 1  
    39   16   39 1  
    40   17   40 1  
    41   17   41 1  
    42   18   42 1  
    43   19   43 1  
    44   19   44 1  
    45   20   45 1  
    46   20   46 1  
# Name:          frag5-559-48/41815
# Creation time: Sat Jun  5 12:52:54 2010


@<TRIPOS>MOLECULE
frag5-559-48/41815
   46    46     1     1     1
SMALL
USER_CHARGES


@<TRIPOS>ATOM
      1 S1         -2.1654    1.6253    0.2789 S.3        1 <1>        0.000
      2 S2         -3.9229    2.3778    0.8622 S.3        1 <1>        0.000
      3 C1         -4.1732    3.1027    2.4873 C.3        1 <1>        0.000
      4 C2         -4.7578    2.2060    3.5625 C.3        1 <1>        0.000
      5 C3         -3.9279    2.0503    4.8185 C.2        1 <1>        0.000
      6 N1         -2.7522    1.4079    4.7095 N.am       1 <1>        0.000
      7 C4         -1.8039    1.1144    5.7618 C.3        1 <1>        0.000
      8 C5         -0.4210    0.9167    5.1481 C.2        1 <1>        0.000
      9 C11         2.4450    2.8632   -1.7190 C.2        1 <1>        0.000
     10 N2          0.2066    1.8696    4.4181 N.am       1 <1>        0.000
     11 C6         -0.1444    3.2481    4.1893 C.3        1 <1>        0.000
     12 C7          0.4628    3.7769    2.9100 C.2        1 <1>        0.000
     13 N3          1.8118    3.8598    2.7889 N.am       1 <1>        0.000
     14 C8          2.5564    4.4108    1.6915 C.3        1 <1>        0.000
     15 C9          3.7310    3.4877    1.4090 C.2        1 <1>        0.000
     16 N4          4.1252    3.1581    0.1625 N.am       1 <1>        0.000
     17 C10         3.6766    3.6005   -1.1505 C.3        1 <1>        0.000
     18 N5          1.4455    2.4451   -0.8873 N.am       1 <1>        0.000
     19 C12         0.1660    1.9086   -1.2673 C.3        1 <1>        0.000
     20 C13        -1.1497    2.5684   -0.8365 C.3        1 <1>        0.000
     21 O4          2.3658    2.7474   -2.9458 O.2        1 <1>        0.000
     22 O6          4.3633    3.0239    2.3676 O.2        1 <1>        0.000
     23 O7         -0.2885    4.1295    1.9996 O.2        1 <1>        0.000
     24 O8          0.1644   -0.1531    5.3410 O.2        1 <1>        0.000
     25 O10        -4.3326    2.5466    5.8659 O.2        1 <1>        0.000
     26 H          -3.1817    3.3836    2.8424 H.spc      1 <1>        0.000
     27 H          -4.8965    3.9057    2.3455 H.spc      1 <1>        0.000
     28 H          -4.8375    1.2119    3.1226 H.spc      1 <1>        0.000
     29 H          -5.6958    2.6680    3.8703 H.spc      1 <1>        0.000
     30 H          -2.4987    1.0897    3.7741 H.spc      1 <1>        0.000
     31 H          -1.7753    1.9421    6.4705 H.spc      1 <1>        0.000
     32 H          -2.1059    0.2068    6.2844 H.spc      1 <1>        0.000
     33 H           1.0633    1.5626    3.9574 H.spc      1 <1>        0.000
     34 H          -1.2292    3.3165    4.1076 H.spc      1 <1>        0.000
     35 H           0.2370    3.8413    5.0204 H.spc      1 <1>        0.000
     36 H           2.3591    3.4886    3.5655 H.spc      1 <1>        0.000
     37 H           1.9214    4.4925    0.8093 H.spc      1 <1>        0.000
     38 H           2.9144    5.4091    1.9433 H.spc      1 <1>        0.000
     39 H           4.8781    2.4706    0.1337 H.spc      1 <1>        0.000
     40 H           3.3885    4.6462   -1.0427 H.spc      1 <1>        0.000
     41 H           4.4985    3.4065   -1.8397 H.spc      1 <1>        0.000
     42 H           1.6263    2.5217    0.1136 H.spc      1 <1>        0.000
     43 H           0.1588    2.0056   -2.3529 H.spc      1 <1>        0.000
     44 H           0.1388    0.9361   -0.7758 H.spc      1 <1>        0.000
     45 H          -0.8758    3.4798   -0.3051 H.spc      1 <1>        0.000
     46 H          -1.7365    2.7037   -1.7451 H.spc      1 <1>        0.000
@<TRIPOS>BOND
     1    3    4 1  
     2    1   20 1  
     3    1    2 1  
     4    2    3 1  
     5   19   20 1  
     6   18   19 1  
     7    9   21 2  
     8    9   18 am 
     9   17    9 1  
    10   16   17 1  
    11   15   22 2  
    12   15   16 am 
    13   14   15 1  
    14   13   14 1  
    15   12   23 2  
    16   12   13 am 
    17   11   12 1  
    18   10   11 1  
    19    8   24 2  
    20    8   10 am 
    21    7    8 1  
    22    6    7 1  
    23    5   25 2  
    24    5    6 am 
    25    4    5 1  
    26    3   26 1  
    27    3   27 1  
    28    4   28 1  
    29    4   29 1  
    30    6   30 1  
    31    7   31 1  
    32    7   32 1  
    33   10   33 1  
    34   11   34 1  
    35   11   35 1  
    36   13   36 1  
    37   14   37 1  
    38   14   38 1  
    39   16   39 1  
    40   17   40 1  
    41   17   41 1  
    42   18   42 1  
    43   19   43 1  
    44   19   44 1  
    45   20   45 1  
    46   20   46 1  
# Name:          frag5-559-48/41815
# Creation time: Sat Jun  5 12:52:54 2010


@<TRIPOS>MOLECULE
frag5-559-48/41815
   46    46     1     1     1
SMALL
USER_CHARGES


@<TRIPOS>ATOM
      1 S1         -3.6425    4.1400   -0.0675 S.3        1 <1>        0.000
      2 S2         -3.8986    3.3782    1.7705 S.3        1 <1>        0.000
      3 C1         -4.0329    1.5746    1.8244 C.3        1 <1>        0.000
      4 C2         -3.2430    0.9686    2.9918 C.3        1 <1>        0.000
      5 C3         -1.7771    0.6341    2.7124 C.2        1 <1>        0.000
      6 N1         -0.8275    0.6053    3.6954 N.am       1 <1>        0.000
      7 C4         -0.9210    0.8279    5.1434 C.3        1 <1>        0.000
      8 C5         -0.8719    2.2816    5.7092 C.2        1 <1>        0.000
      9 C11         1.0079    2.9074   -1.0623 C.2        1 <1>        0.000
     10 N2          0.2066    3.0988    5.5461 N.am       1 <1>        0.000
     11 C6          1.4877    2.9288    4.8759 C.3        1 <1>        0.000
     12 C7          1.7892    3.8759    3.7039 C.2        1 <1>        0.000
     13 N3          3.0670    3.8204    3.1858 N.am       1 <1>        0.000
     14 C8          3.3316    3.7293    1.7730 C.3        1 <1>        0.000
     15 C9          3.0609    2.2531    1.5083 C.2        1 <1>        0.000
     16 N4          1.9080    1.8257    0.9537 N.am       1 <1>        0.000
     17 C10         0.8091    2.5897    0.4184 C.3        1 <1>        0.000
     18 N5          0.1287    3.6592   -1.7673 N.am       1 <1>        0.000
     19 C12        -1.1121    4.2768   -1.3666 C.3        1 <1>        0.000
     20 C13        -2.2909    3.4164   -0.9634 C.3        1 <1>        0.000
     21 O4          2.0054    2.4735   -1.6489 O.2        1 <1>        0.000
     22 O6          3.8785    1.4134    1.9035 O.2        1 <1>        0.000
     23 O7          0.9039    4.5719    3.2110 O.2        1 <1>        0.000
     24 O8         -1.8357    2.6990    6.3579 O.2        1 <1>        0.000
     25 O10        -1.4503    0.3425    1.5574 O.2        1 <1>        0.000
     26 H          -5.0837    1.3168    1.9562 H.spc      1 <1>        0.000
     27 H          -3.6241    1.1764    0.8957 H.spc      1 <1>        0.000
     28 H          -3.7307    0.0238    3.2319 H.spc      1 <1>        0.000
     29 H          -3.2389    1.7213    3.7802 H.spc      1 <1>        0.000
     30 H           0.1130    0.3911    3.3638 H.spc      1 <1>        0.000
     31 H          -1.9114    0.4617    5.4138 H.spc      1 <1>        0.000
     32 H          -0.0343    0.3441    5.5530 H.spc      1 <1>        0.000
     33 H           0.0933    4.0142    5.9815 H.spc      1 <1>        0.000
     34 H           2.2485    3.1339    5.6291 H.spc      1 <1>        0.000
     35 H           1.4723    1.9246    4.4522 H.spc      1 <1>        0.000
     36 H           3.8571    3.8449    3.8304 H.spc      1 <1>        0.000
     37 H           2.7197    4.4003    1.1701 H.spc      1 <1>        0.000
     38 H           4.3374    4.0452    1.4960 H.spc      1 <1>        0.000
     39 H           1.7975    0.8128    0.9061 H.spc      1 <1>        0.000
     40 H          -0.1016    2.0000    0.5232 H.spc      1 <1>        0.000
     41 H           0.7470    3.5304    0.9655 H.spc      1 <1>        0.000
     42 H           0.3864    3.8142   -2.7420 H.spc      1 <1>        0.000
     43 H          -0.8601    4.8337   -0.4641 H.spc      1 <1>        0.000
     44 H          -1.4529    4.8059   -2.2566 H.spc      1 <1>        0.000
     45 H          -2.7292    3.0909   -1.9068 H.spc      1 <1>        0.000
     46 H          -1.8715    2.6783   -0.2797 H.spc      1 <1>        0.000
@<TRIPOS>BOND
     1    3    4 1  
     2    1   20 1  
     3    1    2 1  
     4    2    3 1  
     5   19   20 1  
     6   18   19 1  
     7    9   21 2  
     8    9   18 am 
     9   17    9 1  
    10   16   17 1  
    11   15   22 2  
    12   15   16 am 
    13   14   15 1  
    14   13   14 1  
    15   12   23 2  
    16   12   13 am 
    17   11   12 1  
    18   10   11 1  
    19    8   24 2  
    20    8   10 am 
    21    7    8 1  
    22    6    7 1  
    23    5   25 2  
    24    5    6 am 
    25    4    5 1  
    26    3   26 1  
    27    3   27 1  
    28    4   28 1  
    29    4   29 1  
    30    6   30 1  
    31    7   31 1  
    32    7   32 1  
    33   10   33 1  
    34   11   34 1  
    35   11   35 1  
    36   13   36 1  
    37   14   37 1  
    38   14   38 1  
    39   16   39 1  
    40   17   40 1  
    41   17   41 1  
    42   18   42 1  
    43   19   43 1  
    44   19   44 1  
    45   20   45 1  
    46   20   46 1  
# Name:          frag5-559-48/41815
# Creation time: Sat Jun  5 12:52:54 2010


@<TRIPOS>MOLECULE
frag5-559-48/41815
   46    46     1     1     1
SMALL
USER_CHARGES


@<TRIPOS>ATOM
      1 S1         -2.6184    2.8734   -1.2093 S.3        1 <1>        0.000
      2 S2         -4.0002    2.6754    0.2113 S.3        1 <1>        0.000
      3 C1         -3.5375    2.4547    1.9209 C.3        1 <1>        0.000
      4 C2         -3.3578    1.0266    2.3860 C.3        1 <1>        0.000
      5 C3         -3.1672    0.9262    3.8792 C.2        1 <1>        0.000
      6 N1         -2.0459    1.4680    4.4232 N.am       1 <1>        0.000
      7 C4         -1.8379    1.7458    5.8278 C.3        1 <1>        0.000
      8 C5         -0.4191    2.2421    5.9937 C.2        1 <1>        0.000
      9 C11         0.8389    3.8317   -1.1574 C.2        1 <1>        0.000
     10 N2          0.5737    1.5407    5.3748 N.am       1 <1>        0.000
     11 C6          1.8884    2.0263    5.0759 C.3        1 <1>        0.000
     12 C7          2.0494    2.1206    3.5651 C.2        1 <1>        0.000
     13 N3          3.2857    2.2742    3.0263 N.am       1 <1>        0.000
     14 C8          3.8107    3.5193    2.5255 C.3        1 <1>        0.000
     15 C9          3.1377    4.1534    1.3161 C.2        1 <1>        0.000
     16 N4          1.8026    4.0458    1.1151 N.am       1 <1>        0.000
     17 C10         1.0792    4.7040    0.0632 C.3        1 <1>        0.000
     18 N5          0.5616    2.5059   -1.0031 N.am       1 <1>        0.000
     19 C12        -0.1642    1.7213   -1.9644 C.3        1 <1>        0.000
     20 C13        -1.6533    1.4763   -1.7731 C.3        1 <1>        0.000
     21 O4          0.7890    4.3750   -2.2660 O.2        1 <1>        0.000
     22 O6          3.8406    4.8408    0.5711 O.2        1 <1>        0.000
     23 O7          1.0496    2.1046    2.8330 O.2        1 <1>        0.000
     24 O8         -0.1972    3.2467    6.6670 O.2        1 <1>        0.000
     25 O10        -4.0280    0.3932    4.5639 O.2        1 <1>        0.000
     26 H          -2.5671    2.9370    2.0380 H.spc      1 <1>        0.000
     27 H          -4.3549    2.8667    2.5128 H.spc      1 <1>        0.000
     28 H          -2.4657    0.6255    1.9050 H.spc      1 <1>        0.000
     29 H          -4.2581    0.4711    2.1234 H.spc      1 <1>        0.000
     30 H          -1.2842    1.6991    3.7854 H.spc      1 <1>        0.000
     31 H          -2.5458    2.4987    6.1742 H.spc      1 <1>        0.000
     32 H          -1.9959    0.8444    6.4200 H.spc      1 <1>        0.000
     33 H           0.3606    0.5820    5.0993 H.spc      1 <1>        0.000
     34 H           2.0274    3.0107    5.5228 H.spc      1 <1>        0.000
     35 H           2.6341    1.3437    5.4834 H.spc      1 <1>        0.000
     36 H           3.8851    1.4507    2.9721 H.spc      1 <1>        0.000
     37 H           3.6741    4.2344    3.3367 H.spc      1 <1>        0.000
     38 H           4.8263    3.2920    2.2014 H.spc      1 <1>        0.000
     39 H           1.2731    3.4553    1.7564 H.spc      1 <1>        0.000
     40 H           0.1030    4.9781    0.4632 H.spc      1 <1>        0.000
     41 H           1.6788    5.5552   -0.2594 H.spc      1 <1>        0.000
     42 H           0.8886    2.0431   -0.1550 H.spc      1 <1>        0.000
     43 H          -0.0977    2.2928   -2.8902 H.spc      1 <1>        0.000
     44 H           0.2860    0.7304   -1.9046 H.spc      1 <1>        0.000
     45 H          -2.0465    1.2112   -2.7545 H.spc      1 <1>        0.000
     46 H          -1.7392    0.7147   -0.9981 H.spc      1 <1>        0.000
@<TRIPOS>BOND
     1    3    4 1  
     2    1   20 1  
     3    1    2 1  
     4    2    3 1  
     5   19   20 1  
     6   18   19 1  
     7    9   21 2  
     8    9   18 am 
     9   17    9 1  
    10   16   17 1  
    11   15   22 2  
    12   15   16 am 
    13   14   15 1  
    14   13   14 1  
    15   12   23 2  
    16   12   13 am 
    17   11   12 1  
    18   10   11 1  
    19    8   24 2  
    20    8   10 am 
    21    7    8 1  
    22    6    7 1  
    23    5   25 2  
    24    5    6 am 
    25    4    5 1  
    26    3   26 1  
    27    3   27 1  
    28    4   28 1  
    29    4   29 1  
    30    6   30 1  
    31    7   31 1  
    32    7   32 1  
    33   10   33 1  
    34   11   34 1  
    35   11   35 1  
    36   13   36 1  
    37   14   37 1  
    38   14   38 1  
    39   16   39 1  
    40   17   40 1  
    41   17   41 1  
    42   18   42 1  
    43   19   43 1  
    44   19   44 1  
    45   20   45 1  
    46   20   46 1  
# Name:          frag5-559-48/41815 -- energy: -11.746743
# Creation time: Sat Jun  5 12:52:54 2010


@<TRIPOS>MOLECULE
frag5-559-48/41815 -- energy: -11.746743
   46    46     1     1     1
SMALL
USER_CHARGES


@<TRIPOS>ATOM
      1 S1         -2.6987    4.6451   -0.3329 S.3        1 <1>        0.000
      2 S2         -3.6022    3.4321    0.9649 S.3        1 <1>        0.000
      3 C1         -3.5067    1.6536    0.7436 C.3        1 <1>        0.000
      4 C2         -3.6652    0.7936    1.9741 C.3        1 <1>        0.000
      5 C3         -2.7949    1.0698    3.1777 C.2        1 <1>        0.000
      6 N1         -1.8362    0.1802    3.5674 N.am       1 <1>        0.000
      7 C4         -1.1998    0.1826    4.8704 C.3        1 <1>        0.000
      8 C5         -0.4272    1.4716    5.1543 C.2        1 <1>        0.000
      9 C11         0.8687    1.3898    0.6202 C.2        1 <1>        0.000
     10 N2          0.0723    2.1765    4.1049 N.am       1 <1>        0.000
     11 C6          0.4499    3.5581    4.1529 C.3        1 <1>        0.000
     12 C7          1.7954    3.8280    3.4983 C.2        1 <1>        0.000
     13 N3          1.8715    4.7459    2.4925 N.am       1 <1>        0.000
     14 C8          3.0200    4.9275    1.6377 C.3        1 <1>        0.000
     15 C9          2.8302    3.9514    0.4809 C.2        1 <1>        0.000
     16 N4          2.8596    2.6110    0.7665 N.am       1 <1>        0.000
     17 C10         2.2428    1.5646   -0.0137 C.3        1 <1>        0.000
     18 N5         -0.1432    2.2610    0.3897 N.am       1 <1>        0.000
     19 C12        -0.3275    3.2332   -0.6613 C.3        1 <1>        0.000
     20 C13        -0.9157    4.6092   -0.3998 C.3        1 <1>        0.000
     21 O4          0.6872    0.4900    1.4509 O.2        1 <1>        0.000
     22 O6          2.5908    4.3878   -0.6305 O.2        1 <1>        0.000
     23 O7          2.7886    3.1790    3.8192 O.2        1 <1>        0.000
     24 O8         -0.2881    1.8378    6.3231 O.2        1 <1>        0.000
     25 O10        -2.9908    2.1124    3.8147 O.2        1 <1>        0.000
     26 H          -4.3400    1.3922    0.0914 H.spc      1 <1>        0.000
     27 H          -2.5009    1.4559    0.3729 H.spc      1 <1>        0.000
     28 H          -3.3890   -0.2105    1.6524 H.spc      1 <1>        0.000
     29 H          -4.6837    0.9775    2.3159 H.spc      1 <1>        0.000
     30 H          -1.5483   -0.5335    2.8980 H.spc      1 <1>        0.000
     31 H          -1.9829    0.0917    5.6231 H.spc      1 <1>        0.000
     32 H          -0.4890   -0.6434    4.8948 H.spc      1 <1>        0.000
     33 H           0.1868    1.6860    3.2180 H.spc      1 <1>        0.000
     34 H          -0.3042    4.1280    3.6101 H.spc      1 <1>        0.000
     35 H           0.5266    3.8456    5.2015 H.spc      1 <1>        0.000
     36 H           1.0614    5.3449    2.3336 H.spc      1 <1>        0.000
     37 H           3.0937    5.9556    1.2830 H.spc      1 <1>        0.000
     38 H           3.9494    4.7341    2.1733 H.spc      1 <1>        0.000
     39 H           3.3632    2.3271    1.6069 H.spc      1 <1>        0.000
     40 H           2.1793    1.8217   -1.0710 H.spc      1 <1>        0.000
     41 H           2.8238    0.6425    0.0010 H.spc      1 <1>        0.000
     42 H          -0.9004    2.2236    1.0721 H.spc      1 <1>        0.000
     43 H           0.6896    3.4498   -0.9880 H.spc      1 <1>        0.000
     44 H          -1.0617    2.7634   -1.3158 H.spc      1 <1>        0.000
     45 H          -0.5516    4.9337    0.5750 H.spc      1 <1>        0.000
     46 H          -0.6129    5.2501   -1.2278 H.spc      1 <1>        0.000
@<TRIPOS>BOND
     1    3    4 1  
     2    1   20 1  
     3    1    2 1  
     4    2    3 1  
     5   19   20 1  
     6   18   19 1  
     7    9   21 2  
     8    9   18 am 
     9   17    9 1  
    10   16   17 1  
    11   15   22 2  
    12   15   16 am 
    13   14   15 1  
    14   13   14 1  
    15   12   23 2  
    16   12   13 am 
    17   11   12 1  
    18   10   11 1  
    19    8   24 2  
    20    8   10 am 
    21    7    8 1  
    22    6    7 1  
    23    5   25 2  
    24    5    6 am 
    25    4    5 1  
    26    3   26 1  
    27    3   27 1  
    28    4   28 1  
    29    4   29 1  
    30    6   30 1  
    31    7   31 1  
    32    7   32 1  
    33   10   33 1  
    34   11   34 1  
    35   11   35 1  
    36   13   36 1  
    37   14   37 1  
    38   14   38 1  
    39   16   39 1  
    40   17   40 1  
    41   17   41 1  
    42   18   42 1  
    43   19   43 1  
    44   19   44 1  
    45   20   45 1  
    46   20   46 1  
# Name:          frag5-559-48/41815 -- energy: -10.220901
# Creation time: Sat Jun  5 12:52:54 2010


@<TRIPOS>MOLECULE
frag5-559-48/41815 -- energy: -10.220901
   46    46     1     1     1
SMALL
USER_CHARGES


@<TRIPOS>ATOM
      1 S1         -2.5704    2.1065   -1.1845 S.3        1 <1>        0.000
      2 S2         -3.8286    2.6886    0.2433 S.3        1 <1>        0.000
      3 C1         -3.1381    2.7426    1.8947 C.3        1 <1>        0.000
      4 C2         -2.7160    1.4377    2.5459 C.3        1 <1>        0.000
      5 C3         -2.6406    1.4885    4.0395 C.2        1 <1>        0.000
      6 N1         -1.6109    0.9157    4.7018 N.am       1 <1>        0.000
      7 C4         -1.4753    0.9037    6.1506 C.3        1 <1>        0.000
      8 C5         -0.7159    2.0022    6.8506 C.2        1 <1>        0.000
      9 C11         1.5622    4.2550   -2.5322 C.2        1 <1>        0.000
     10 N2          0.1096    2.8896    6.2548 N.am       1 <1>        0.000
     11 C6          0.4664    3.1390    4.8821 C.3        1 <1>        0.000
     12 C7          1.4978    2.1676    4.3118 C.2        1 <1>        0.000
     13 N3          1.9499    2.3347    3.0423 N.am       1 <1>        0.000
     14 C8          1.5628    3.3044    2.0430 C.3        1 <1>        0.000
     15 C9          2.3203    3.1483    0.7308 C.2        1 <1>        0.000
     16 N4          2.2240    4.1339   -0.1925 N.am       1 <1>        0.000
     17 C10         2.7072    4.1135   -1.5432 C.3        1 <1>        0.000
     18 N5          0.4981    3.4153   -2.5677 N.am       1 <1>        0.000
     19 C12         0.2255    2.1956   -1.8350 C.3        1 <1>        0.000
     20 C13        -0.8393    2.2728   -0.7525 C.3        1 <1>        0.000
     21 O4          1.6066    5.1646   -3.3679 O.2        1 <1>        0.000
     22 O6          2.9515    2.1071    0.5382 O.2        1 <1>        0.000
     23 O7          1.9086    1.2225    4.9903 O.2        1 <1>        0.000
     24 O8         -0.8214    2.0966    8.0706 O.2        1 <1>        0.000
     25 O10        -3.5533    2.0461    4.6510 O.2        1 <1>        0.000
     26 H          -2.2211    3.3244    1.8014 H.spc      1 <1>        0.000
     27 H          -3.9378    3.1305    2.5256 H.spc      1 <1>        0.000
     28 H          -1.7143    1.2082    2.1826 H.spc      1 <1>        0.000
     29 H          -3.4696    0.6934    2.2887 H.spc      1 <1>        0.000
     30 H          -0.8820    0.4627    4.1506 H.spc      1 <1>        0.000
     31 H          -2.4963    1.0031    6.5190 H.spc      1 <1>        0.000
     32 H          -0.9017    0.0011    6.3614 H.spc      1 <1>        0.000
     33 H           0.5773    3.5122    6.9136 H.spc      1 <1>        0.000
     34 H          -0.4416    3.0255    4.2899 H.spc      1 <1>        0.000
     35 H           0.9084    4.1346    4.8423 H.spc      1 <1>        0.000
     36 H           2.6719    1.6763    2.7497 H.spc      1 <1>        0.000
     37 H           0.5035    3.1571    1.8326 H.spc      1 <1>        0.000
     38 H           1.7881    4.2947    2.4388 H.spc      1 <1>        0.000
     39 H           1.7543    4.9885    0.1064 H.spc      1 <1>        0.000
     40 H           3.3946    4.9480   -1.6817 H.spc      1 <1>        0.000
     41 H           3.2082    3.1620   -1.7215 H.spc      1 <1>        0.000
     42 H          -0.2353    3.6890   -3.2216 H.spc      1 <1>        0.000
     43 H          -0.1445    1.4804   -2.5696 H.spc      1 <1>        0.000
     44 H           1.1538    1.9378   -1.3252 H.spc      1 <1>        0.000
     45 H          -0.6358    1.4171   -0.1087 H.spc      1 <1>        0.000
     46 H          -0.7532    3.2850   -0.3574 H.spc      1 <1>        0.000
@<TRIPOS>BOND
     1    3    4 1  
     2    1   20 1  
     3    1    2 1  
     4    2    3 1  
     5   19   20 1  
     6   18   19 1  
     7    9   21 2  
     8    9   18 am 
     9   17    9 1  
    10   16   17 1  
    11   15   22 2  
    12   15   16 am 
    13   14   15 1  
    14   13   14 1  
    15   12   23 2  
    16   12   13 am 
    17   11   12 1  
    18   10   11 1  
    19    8   24 2  
    20    8   10 am 
    21    7    8 1  
    22    6    7 1  
    23    5   25 2  
    24    5    6 am 
    25    4    5 1  
    26    3   26 1  
    27    3   27 1  
    28    4   28 1  
    29    4   29 1  
    30    6   30 1  
    31    7   31 1  
    32    7   32 1  
    33   10   33 1  
    34   11   34 1  
    35   11   35 1  
    36   13   36 1  
    37   14   37 1  
    38   14   38 1  
    39   16   39 1  
    40   17   40 1  
    41   17   41 1  
    42   18   42 1  
    43   19   43 1  
    44   19   44 1  
    45   20   45 1  
    46   20   46 1  
# Name:          frag5-559-48/41815 -- energy: -2.633811
# Creation time: Sat Jun  5 12:52:54 2010


@<TRIPOS>MOLECULE
frag5-559-48/41815 -- energy: -2.633811
   46    46     1     1     1
SMALL
USER_CHARGES


@<TRIPOS>ATOM
      1 S1         -3.4134    4.4897    0.0811 S.3        1 <1>        0.000
      2 S2         -4.4238    2.8508    0.6398 S.3        1 <1>        0.000
      3 C1         -3.6943    1.7653    1.8630 C.3        1 <1>        0.000
      4 C2         -2.2110    1.9754    2.0156 C.3        1 <1>        0.000
      5 C3         -1.3545    1.0901    2.8655 C.2        1 <1>        0.000
      6 N1         -1.8218    0.5552    4.0151 N.am       1 <1>        0.000
      7 C4         -0.9348    0.2924    5.1156 C.3        1 <1>        0.000
      8 C5         -0.7053    1.7108    5.6256 C.2        1 <1>        0.000
      9 C11         0.6546    2.2787   -1.0613 C.2        1 <1>        0.000
     10 N2          0.4524    2.3523    5.3085 N.am       1 <1>        0.000
     11 C6          0.6531    3.7868    5.3535 C.3        1 <1>        0.000
     12 C7          1.6193    4.2437    4.2634 C.2        1 <1>        0.000
     13 N3          2.1134    3.3475    3.3697 N.am       1 <1>        0.000
     14 C8          3.1023    3.6107    2.3587 C.3        1 <1>        0.000
     15 C9          3.0304    2.6503    1.1777 C.2        1 <1>        0.000
     16 N4          1.9067    1.9064    0.9532 N.am       1 <1>        0.000
     17 C10         1.5453    1.2989   -0.2988 C.3        1 <1>        0.000
     18 N5         -0.6862    2.0643   -1.1954 N.am       1 <1>        0.000
     19 C12        -1.6090    3.0883   -1.6210 C.3        1 <1>        0.000
     20 C13        -1.8258    4.3135   -0.7345 C.3        1 <1>        0.000
     21 O4          1.1545    3.3222   -1.4963 O.2        1 <1>        0.000
     22 O6          3.9925    2.6071    0.4085 O.2        1 <1>        0.000
     23 O7          1.9328    5.4374    4.2215 O.2        1 <1>        0.000
     24 O8         -1.6317    2.2844    6.1968 O.2        1 <1>        0.000
     25 O10        -0.1652    0.9699    2.5406 O.2        1 <1>        0.000
     26 H          -4.1633    1.9801    2.8232 H.spc      1 <1>        0.000
     27 H          -3.8550    0.7377    1.5369 H.spc      1 <1>        0.000
     28 H          -2.1440    2.9429    2.5132 H.spc      1 <1>        0.000
     29 H          -1.8281    1.8048    1.0094 H.spc      1 <1>        0.000
     30 H          -2.8140    0.3356    4.1030 H.spc      1 <1>        0.000
     31 H          -1.3383   -0.3918    5.8621 H.spc      1 <1>        0.000
     32 H          -0.0229   -0.2367    4.8389 H.spc      1 <1>        0.000
     33 H           1.2422    1.7772    5.0156 H.spc      1 <1>        0.000
     34 H          -0.3072    4.2775    5.1952 H.spc      1 <1>        0.000
     35 H           1.0745    4.0488    6.3240 H.spc      1 <1>        0.000
     36 H           1.7480    2.3966    3.4205 H.spc      1 <1>        0.000
     37 H           2.9223    4.6156    1.9766 H.spc      1 <1>        0.000
     38 H           4.0830    3.4922    2.8195 H.spc      1 <1>        0.000
     39 H           1.2711    1.7707    1.7394 H.spc      1 <1>        0.000
     40 H           2.4398    1.0738   -0.8795 H.spc      1 <1>        0.000
     41 H           1.0122    0.3645   -0.1233 H.spc      1 <1>        0.000
     42 H          -1.0534    1.1363   -0.9848 H.spc      1 <1>        0.000
     43 H          -1.1812    3.4833   -2.5424 H.spc      1 <1>        0.000
     44 H          -2.5793    2.5928   -1.6536 H.spc      1 <1>        0.000
     45 H          -1.0955    4.2223    0.0695 H.spc      1 <1>        0.000
     46 H          -1.7459    5.1717   -1.4017 H.spc      1 <1>        0.000
@<TRIPOS>BOND
     1    3    4 1  
     2    1   20 1  
     3    1    2 1  
     4    2    3 1  
     5   19   20 1  
     6   18   19 1  
     7    9   21 2  
     8    9   18 am 
     9   17    9 1  
    10   16   17 1  
    11   15   22 2  
    12   15   16 am 
    13   14   15 1  
    14   13   14 1  
    15   12   23 2  
    16   12   13 am 
    17   11   12 1  
    18   10   11 1  
    19    8   24 2  
    20    8   10 am 
    21    7    8 1  
    22    6    7 1  
    23    5   25 2  
    24    5    6 am 
    25    4    5 1  
    26    3   26 1  
    27    3   27 1  
    28    4   28 1  
    29    4   29 1  
    30    6   30 1  
    31    7   31 1  
    32    7   32 1  
    33   10   33 1  
    34   11   34 1  
    35   11   35 1  
    36   13   36 1  
    37   14   37 1  
    38   14   38 1  
    39   16   39 1  
    40   17   40 1  
    41   17   41 1  
    42   18   42 1  
    43   19   43 1  
    44   19   44 1  
    45   20   45 1  
    46   20   46 1  
# Name:          frag5-559-48/41815 -- energy: -8.465813
# Creation time: Sat Jun  5 12:52:54 2010


@<TRIPOS>MOLECULE
frag5-559-48/41815 -- energy: -8.465813
   46    46     1     1     1
SMALL
USER_CHARGES


@<TRIPOS>ATOM
      1 S1         -2.2130    3.1421    0.2671 S.3        1 <1>        0.000
      2 S2         -4.0907    2.4956    0.4568 S.3        1 <1>        0.000
      3 C1         -4.3586    1.2340    1.6886 C.3        1 <1>        0.000
      4 C2         -4.8371    1.6576    3.0557 C.3        1 <1>        0.000
      5 C3         -3.9734    1.1723    4.1780 C.2        1 <1>        0.000
      6 N1         -2.9159    1.9027    4.6245 N.am       1 <1>        0.000
      7 C4         -2.0254    1.3324    5.5999 C.3        1 <1>        0.000
      8 C5         -0.6236    1.8906    5.7481 C.2        1 <1>        0.000
      9 C11         1.9710    3.5596   -1.7073 C.2        1 <1>        0.000
     10 N2         -0.1982    2.9720    5.0547 N.am       1 <1>        0.000
     11 C6          1.1709    3.3892    5.0130 C.3        1 <1>        0.000
     12 C7          1.5614    3.4609    3.5452 C.2        1 <1>        0.000
     13 N3          2.5979    2.6878    3.1529 N.am       1 <1>        0.000
     14 C8          2.9326    2.2778    1.8262 C.3        1 <1>        0.000
     15 C9          3.5200    3.2942    0.8588 C.2        1 <1>        0.000
     16 N4          2.7435    4.3003    0.3628 N.am       1 <1>        0.000
     17 C10         2.8078    4.6490   -1.0383 C.3        1 <1>        0.000
     18 N5          0.7330    3.3445   -1.1850 N.am       1 <1>        0.000
     19 C12        -0.0271    2.1360   -1.2104 C.3        1 <1>        0.000
     20 C13        -1.0042    1.8803   -0.0902 C.3        1 <1>        0.000
     21 O4          2.4296    2.8870   -2.6306 O.2        1 <1>        0.000
     22 O6          4.6723    3.1112    0.4584 O.2        1 <1>        0.000
     23 O7          0.9049    4.1453    2.7549 O.2        1 <1>        0.000
     24 O8          0.1401    1.3030    6.5231 O.2        1 <1>        0.000
     25 O10        -4.2373    0.0666    4.6589 O.2        1 <1>        0.000
     26 H          -5.1554    0.6073    1.2879 H.spc      1 <1>        0.000
     27 H          -3.3800    0.7837    1.8547 H.spc      1 <1>        0.000
     28 H          -5.8281    1.2274    3.2000 H.spc      1 <1>        0.000
     29 H          -4.8205    2.7472    3.0817 H.spc      1 <1>        0.000
     30 H          -2.7559    2.8460    4.2709 H.spc      1 <1>        0.000
     31 H          -2.5040    1.5286    6.5594 H.spc      1 <1>        0.000
     32 H          -1.8799    0.3028    5.2729 H.spc      1 <1>        0.000
     33 H          -0.8870    3.5169    4.5360 H.spc      1 <1>        0.000
     34 H           1.2965    4.3582    5.4961 H.spc      1 <1>        0.000
     35 H           1.8076    2.6864    5.5504 H.spc      1 <1>        0.000
     36 H           3.2160    2.3570    3.8938 H.spc      1 <1>        0.000
     37 H           3.7161    1.5311    1.9550 H.spc      1 <1>        0.000
     38 H           1.9836    1.9833    1.3782 H.spc      1 <1>        0.000
     39 H           2.1144    4.8090    0.9839 H.spc      1 <1>        0.000
     40 H           2.4315    5.6519   -1.2399 H.spc      1 <1>        0.000
     41 H           3.8296    4.6862   -1.4161 H.spc      1 <1>        0.000
     42 H           0.2964    4.1407   -0.7204 H.spc      1 <1>        0.000
     43 H          -0.6361    2.2000   -2.1121 H.spc      1 <1>        0.000
     44 H           0.7078    1.3343   -1.1376 H.spc      1 <1>        0.000
     45 H          -1.5790    1.0076   -0.4003 H.spc      1 <1>        0.000
     46 H          -0.3968    1.7971    0.8111 H.spc      1 <1>        0.000
@<TRIPOS>BOND
     1    3    4 1  
     2    1   20 1  
     3    1    2 1  
     4    2    3 1  
     5   19   20 1  
     6   18   19 1  
     7    9   21 2  
     8    9   18 am 
     9   17    9 1  
    10   16   17 1  
    11   15   22 2  
    12   15   16 am 
    13   14   15 1  
    14   13   14 1  
    15   12   23 2  
    16   12   13 am 
    17   11   12 1  
    18   10   11 1  
    19    8   24 2  
    20    8   10 am 
    21    7    8 1  
    22    6    7 1  
    23    5   25 2  
    24    5    6 am 
    25    4    5 1  
    26    3   26 1  
    27    3   27 1  
    28    4   28 1  
    29    4   29 1  
    30    6   30 1  
    31    7   31 1  
    32    7   32 1  
    33   10   33 1  
    34   11   34 1  
    35   11   35 1  
    36   13   36 1  
    37   14   37 1  
    38   14   38 1  
    39   16   39 1  
    40   17   40 1  
    41   17   41 1  
    42   18   42 1  
    43   19   43 1  
    44   19   44 1  
    45   20   45 1  
    46   20   46 1  
# Name:          frag5-559-48/41815 -- energy: -10.986180
# Creation time: Sat Jun  5 12:52:54 2010


@<TRIPOS>MOLECULE
frag5-559-48/41815 -- energy: -10.986180
   46    46     1     1     1
SMALL
USER_CHARGES


@<TRIPOS>ATOM
      1 S1         -3.3636    2.8153   -0.8044 S.3        1 <1>        0.000
      2 S2         -3.7139    2.8556    1.1605 S.3        1 <1>        0.000
      3 C1         -2.3508    2.4672    2.2573 C.3        1 <1>        0.000
      4 C2         -1.7229    1.0864    2.2114 C.3        1 <1>        0.000
      5 C3         -2.3018    0.1406    3.2242 C.2        1 <1>        0.000
      6 N1         -1.9969    0.2101    4.5375 N.am       1 <1>        0.000
      7 C4         -0.8887    0.8196    5.2390 C.3        1 <1>        0.000
      8 C5         -0.8715    2.3345    5.4624 C.2        1 <1>        0.000
      9 C11         0.4607    3.3553   -0.5191 C.2        1 <1>        0.000
     10 N2          0.2471    3.0861    5.3191 N.am       1 <1>        0.000
     11 C6          1.5808    2.7942    4.8822 C.3        1 <1>        0.000
     12 C7          1.9479    3.5489    3.5995 C.2        1 <1>        0.000
     13 N3          3.2473    3.4892    3.1694 N.am       1 <1>        0.000
     14 C8          3.6504    3.7070    1.8032 C.3        1 <1>        0.000
     15 C9          3.4457    2.3554    1.1020 C.2        1 <1>        0.000
     16 N4          2.6592    2.2112    0.0024 N.am       1 <1>        0.000
     17 C10         1.9634    3.1987   -0.8021 C.3        1 <1>        0.000
     18 N5         -0.1186    4.5633   -0.7644 N.am       1 <1>        0.000
     19 C12        -1.5060    4.9345   -0.6817 C.3        1 <1>        0.000
     20 C13        -2.5959    4.2594   -1.5063 C.3        1 <1>        0.000
     21 O4         -0.1827    2.3885   -0.1267 O.2        1 <1>        0.000
     22 O6          3.9955    1.3603    1.5891 O.2        1 <1>        0.000
     23 O7          1.0911    4.1197    2.9520 O.2        1 <1>        0.000
     24 O8         -1.9005    2.9100    5.8153 O.2        1 <1>        0.000
     25 O10        -3.0946   -0.7190    2.8439 O.2        1 <1>        0.000
     26 H          -1.5517    3.1441    1.9550 H.spc      1 <1>        0.000
     27 H          -2.7719    2.5459    3.2596 H.spc      1 <1>        0.000
     28 H          -0.6614    1.1983    2.4322 H.spc      1 <1>        0.000
     29 H          -1.9133    0.6692    1.2226 H.spc      1 <1>        0.000
     30 H          -2.6719   -0.2520    5.1468 H.spc      1 <1>        0.000
     31 H          -0.9315    0.3947    6.2418 H.spc      1 <1>        0.000
     32 H          -0.0229    0.6256    4.6058 H.spc      1 <1>        0.000
     33 H           0.1117    4.0639    5.5758 H.spc      1 <1>        0.000
     34 H           2.2704    3.1042    5.6673 H.spc      1 <1>        0.000
     35 H           1.6443    1.7256    4.6770 H.spc      1 <1>        0.000
     36 H           3.9714    3.2783    3.8561 H.spc      1 <1>        0.000
     37 H           3.0650    4.4968    1.3324 H.spc      1 <1>        0.000
     38 H           4.6860    4.0409    1.7380 H.spc      1 <1>        0.000
     39 H           2.5378    1.2476   -0.3094 H.spc      1 <1>        0.000
     40 H           2.4214    4.1607   -0.5721 H.spc      1 <1>        0.000
     41 H           2.0484    2.8673   -1.8370 H.spc      1 <1>        0.000
     42 H           0.5195    5.3077   -1.0456 H.spc      1 <1>        0.000
     43 H          -1.7722    4.6740    0.3427 H.spc      1 <1>        0.000
     44 H          -1.5117    5.9590   -1.0538 H.spc      1 <1>        0.000
     45 H          -3.3908    4.9980   -1.6100 H.spc      1 <1>        0.000
     46 H          -2.1102    3.9225   -2.4221 H.spc      1 <1>        0.000
@<TRIPOS>BOND
     1    3    4 1  
     2    1   20 1  
     3    1    2 1  
     4    2    3 1  
     5   19   20 1  
     6   18   19 1  
     7    9   21 2  
     8    9   18 am 
     9   17    9 1  
    10   16   17 1  
    11   15   22 2  
    12   15   16 am 
    13   14   15 1  
    14   13   14 1  
    15   12   23 2  
    16   12   13 am 
    17   11   12 1  
    18   10   11 1  
    19    8   24 2  
    20    8   10 am 
    21    7    8 1  
    22    6    7 1  
    23    5   25 2  
    24    5    6 am 
    25    4    5 1  
    26    3   26 1  
    27    3   27 1  
    28    4   28 1  
    29    4   29 1  
    30    6   30 1  
    31    7   31 1  
    32    7   32 1  
    33   10   33 1  
    34   11   34 1  
    35   11   35 1  
    36   13   36 1  
    37   14   37 1  
    38   14   38 1  
    39   16   39 1  
    40   17   40 1  
    41   17   41 1  
    42   18   42 1  
    43   19   43 1  
    44   19   44 1  
    45   20   45 1  
    46   20   46 1  
# Name:          frag5-559-48/41815 -- energy: -10.594606
# Creation time: Sat Jun  5 12:52:54 2010


@<TRIPOS>MOLECULE
frag5-559-48/41815 -- energy: -10.594606
   46    46     1     1     1
SMALL
USER_CHARGES


@<TRIPOS>ATOM
      1 S1         -3.6791    3.0619   -1.1775 S.3        1 <1>        0.000
      2 S2         -3.7241    1.0633   -0.6758 S.3        1 <1>        0.000
      3 C1         -2.4074    0.3407    0.3930 C.3        1 <1>        0.000
      4 C2         -2.8665    0.2199    1.8387 C.3        1 <1>        0.000
      5 C3         -2.6611    1.3904    2.7731 C.2        1 <1>        0.000
      6 N1         -1.3991    1.7743    3.0802 N.am       1 <1>        0.000
      7 C4         -1.0091    2.8187    4.0015 C.3        1 <1>        0.000
      8 C5         -0.2583    2.2450    5.1892 C.2        1 <1>        0.000
      9 C11         0.0435    3.6347    0.3474 C.2        1 <1>        0.000
     10 N2          0.9851    1.7433    5.0672 N.am       1 <1>        0.000
     11 C6          1.8957    1.7440    3.9477 C.3        1 <1>        0.000
     12 C7          2.8940    2.9141    4.0670 C.2        1 <1>        0.000
     13 N3          3.8318    3.1749    3.1217 N.am       1 <1>        0.000
     14 C8          4.2355    2.3884    1.9615 C.3        1 <1>        0.000
     15 C9          3.2672    2.6477    0.7796 C.2        1 <1>        0.000
     16 N4          2.4242    3.7307    0.8043 N.am       1 <1>        0.000
     17 C10         1.4047    4.0718   -0.1750 C.3        1 <1>        0.000
     18 N5         -1.0631    4.3804    0.0916 N.am       1 <1>        0.000
     19 C12        -2.2744    4.3433    0.8698 C.3        1 <1>        0.000
     20 C13        -3.6431    4.2045    0.2280 C.3        1 <1>        0.000
     21 O4         -0.0543    2.6198    1.0438 O.2        1 <1>        0.000
     22 O6          3.2844    1.9005   -0.2033 O.2        1 <1>        0.000
     23 O7          2.8768    3.6602    5.0533 O.2        1 <1>        0.000
     24 O8         -0.7922    2.2217    6.3037 O.2        1 <1>        0.000
     25 O10        -3.6304    1.9976    3.2351 O.2        1 <1>        0.000
     26 H          -2.1698   -0.6562    0.0218 H.spc      1 <1>        0.000
     27 H          -1.5376    0.9969    0.3606 H.spc      1 <1>        0.000
     28 H          -2.2624   -0.5842    2.2589 H.spc      1 <1>        0.000
     29 H          -3.9476    0.0935    1.7804 H.spc      1 <1>        0.000
     30 H          -0.6436    1.2738    2.6121 H.spc      1 <1>        0.000
     31 H          -0.3559    3.5185    3.4802 H.spc      1 <1>        0.000
     32 H          -1.9075    3.3181    4.3642 H.spc      1 <1>        0.000
     33 H           1.3432    1.2865    5.9060 H.spc      1 <1>        0.000
     34 H           2.4489    0.8049    3.9395 H.spc      1 <1>        0.000
     35 H           1.3249    1.8569    3.0260 H.spc      1 <1>        0.000
     36 H           4.3312    4.0563    3.2407 H.spc      1 <1>        0.000
     37 H           5.2446    2.6769    1.6672 H.spc      1 <1>        0.000
     38 H           4.2091    1.3298    2.2201 H.spc      1 <1>        0.000
     39 H           2.5238    4.3658    1.5963 H.spc      1 <1>        0.000
     40 H           1.4038    5.1489   -0.3424 H.spc      1 <1>        0.000
     41 H           1.6162    3.5634   -1.1157 H.spc      1 <1>        0.000
     42 H          -1.0339    5.0118   -0.7090 H.spc      1 <1>        0.000
     43 H          -2.1735    3.4294    1.4552 H.spc      1 <1>        0.000
     44 H          -2.3093    5.3288    1.3342 H.spc      1 <1>        0.000
     45 H          -4.3190    3.8087    0.9861 H.spc      1 <1>        0.000
     46 H          -3.9283    5.1881   -0.1453 H.spc      1 <1>        0.000
@<TRIPOS>BOND
     1    3    4 1  
     2    1   20 1  
     3    1    2 1  
     4    2    3 1  
     5   19   20 1  
     6   18   19 1  
     7    9   21 2  
     8    9   18 am 
     9   17    9 1  
    10   16   17 1  
    11   15   22 2  
    12   15   16 am 
    13   14   15 1  
    14   13   14 1  
    15   12   23 2  
    16   12   13 am 
    17   11   12 1  
    18   10   11 1  
    19    8   24 2  
    20    8   10 am 
    21    7    8 1  
    22    6    7 1  
    23    5   25 2  
    24    5    6 am 
    25    4    5 1  
    26    3   26 1  
    27    3   27 1  
    28    4   28 1  
    29    4   29 1  
    30    6   30 1  
    31    7   31 1  
    32    7   32 1  
    33   10   33 1  
    34   11   34 1  
    35   11   35 1  
    36   13   36 1  
    37   14   37 1  
    38   14   38 1  
    39   16   39 1  
    40   17   40 1  
    41   17   41 1  
    42   18   42 1  
    43   19   43 1  
    44   19   44 1  
    45   20   45 1  
    46   20   46 1  
# Name:          frag5-559-48/41815 -- energy: -7.740388
# Creation time: Sat Jun  5 12:52:54 2010


@<TRIPOS>MOLECULE
frag5-559-48/41815 -- energy: -7.740388
   46    46     1     1     1
SMALL
USER_CHARGES


@<TRIPOS>ATOM
      1 S1         -1.3887    0.7562   -0.9282 S.3        1 <1>        0.000
      2 S2         -1.5710    0.6209    1.0558 S.3        1 <1>        0.000
      3 C1         -3.2435    0.8663    1.6867 C.3        1 <1>        0.000
      4 C2         -3.5066    2.2834    2.1605 C.3        1 <1>        0.000
      5 C3         -2.9960    2.5034    3.5516 C.2        1 <1>        0.000
      6 N1         -2.0592    3.4474    3.8179 N.am       1 <1>        0.000
      7 C4         -1.5439    3.7916    5.1344 C.3        1 <1>        0.000
      8 C5         -0.4433    2.8356    5.5826 C.2        1 <1>        0.000
      9 C11         1.2986    3.4862   -1.5445 C.2        1 <1>        0.000
     10 N2         -0.2217    1.6479    4.9485 N.am       1 <1>        0.000
     11 C6          0.9425    0.7936    5.1078 C.3        1 <1>        0.000
     12 C7          2.0438    1.2597    4.1434 C.2        1 <1>        0.000
     13 N3          1.7030    1.8675    2.9643 N.am       1 <1>        0.000
     14 C8          1.6746    3.3111    2.8677 C.3        1 <1>        0.000
     15 C9          1.8461    3.9278    1.4915 C.2        1 <1>        0.000
     16 N4          2.5218    3.2832    0.5113 N.am       1 <1>        0.000
     17 C10         2.6251    3.7690   -0.8460 C.3        1 <1>        0.000
     18 N5          0.1676    3.9866   -0.9536 N.am       1 <1>        0.000
     19 C12        -1.2021    3.6145   -1.1213 C.3        1 <1>        0.000
     20 C13        -1.6600    2.3358   -1.8156 C.3        1 <1>        0.000
     21 O4          1.2872    2.8252   -2.5809 O.2        1 <1>        0.000
     22 O6          1.3597    5.0513    1.2956 O.2        1 <1>        0.000
     23 O7          3.2216    1.0474    4.4375 O.2        1 <1>        0.000
     24 O8          0.2513    3.1879    6.5377 O.2        1 <1>        0.000
     25 O10        -3.4259    1.7925    4.4611 O.2        1 <1>        0.000
     26 H          -3.9362    0.6585    0.8712 H.spc      1 <1>        0.000
     27 H          -3.3722    0.2043    2.5430 H.spc      1 <1>        0.000
     28 H          -4.5833    2.4531    2.1580 H.spc      1 <1>        0.000
     29 H          -2.9904    2.9717    1.4913 H.spc      1 <1>        0.000
     30 H          -1.6816    3.9630    3.0229 H.spc      1 <1>        0.000
     31 H          -1.1244    4.7964    5.0851 H.spc      1 <1>        0.000
     32 H          -2.3640    3.7278    5.8496 H.spc      1 <1>        0.000
     33 H          -0.9423    1.3294    4.3007 H.spc      1 <1>        0.000
     34 H           1.3042    0.8543    6.1343 H.spc      1 <1>        0.000
     35 H           0.6729   -0.2388    4.8851 H.spc      1 <1>        0.000
     36 H           1.4680    1.2997    2.1501 H.spc      1 <1>        0.000
     37 H           0.6789    3.6067    3.1985 H.spc      1 <1>        0.000
     38 H           2.5257    3.6600    3.4525 H.spc      1 <1>        0.000
     39 H           2.9844    2.4044    0.7440 H.spc      1 <1>        0.000
     40 H           2.8346    4.8387   -0.8502 H.spc      1 <1>        0.000
     41 H           3.4413    3.2678   -1.3663 H.spc      1 <1>        0.000
     42 H           0.3289    4.7439   -0.2896 H.spc      1 <1>        0.000
     43 H          -1.5374    3.4639   -0.0952 H.spc      1 <1>        0.000
     44 H          -1.5842    4.3950   -1.7792 H.spc      1 <1>        0.000
     45 H          -2.7402    2.4305   -1.9268 H.spc      1 <1>        0.000
     46 H          -1.0684    2.2672   -2.7285 H.spc      1 <1>        0.000
@<TRIPOS>BOND
     1    3    4 1  
     2    1   20 1  
     3    1    2 1  
     4    2    3 1  
     5   19   20 1  
     6   18   19 1  
     7    9   21 2  
     8    9   18 am 
     9   17    9 1  
    10   16   17 1  
    11   15   22 2  
    12   15   16 am 
    13   14   15 1  
    14   13   14 1  
    15   12   23 2  
    16   12   13 am 
    17   11   12 1  
    18   10   11 1  
    19    8   24 2  
    20    8   10 am 
    21    7    8 1  
    22    6    7 1  
    23    5   25 2  
    24    5    6 am 
    25    4    5 1  
    26    3   26 1  
    27    3   27 1  
    28    4   28 1  
    29    4   29 1  
    30    6   30 1  
    31    7   31 1  
    32    7   32 1  
    33   10   33 1  
    34   11   34 1  
    35   11   35 1  
    36   13   36 1  
    37   14   37 1  
    38   14   38 1  
    39   16   39 1  
    40   17   40 1  
    41   17   41 1  
    42   18   42 1  
    43   19   43 1  
    44   19   44 1  
    45   20   45 1  
    46   20   46 1  
# Name:          frag5-559-48/41815 -- energy: -8.576408
# Creation time: Sat Jun  5 12:52:54 2010


@<TRIPOS>MOLECULE
frag5-559-48/41815 -- energy: -8.576408
   46    46     1     1     1
SMALL
USER_CHARGES


@<TRIPOS>ATOM
      1 S1         -1.2653    1.4215   -0.3808 S.3        1 <1>        0.000
      2 S2         -2.5758    0.2381    0.5852 S.3        1 <1>        0.000
      3 C1         -3.5801    1.0996    1.8104 C.3        1 <1>        0.000
      4 C2         -4.2614    0.3316    2.9041 C.3        1 <1>        0.000
      5 C3         -3.9741    0.7450    4.3206 C.2        1 <1>        0.000
      6 N1         -3.1153    1.7738    4.6022 N.am       1 <1>        0.000
      7 C4         -1.8052    1.5468    5.2552 C.3        1 <1>        0.000
      8 C5         -0.6862    2.3935    4.6083 C.2        1 <1>        0.000
      9 C11         0.7058    5.1653   -0.6259 C.2        1 <1>        0.000
     10 N2          0.5071    2.5266    5.2690 N.am       1 <1>        0.000
     11 C6          1.6806    3.1786    4.7660 C.3        1 <1>        0.000
     12 C7          2.6728    2.1533    4.2075 C.2        1 <1>        0.000
     13 N3          3.1573    2.2587    2.9421 N.am       1 <1>        0.000
     14 C8          2.7600    3.2399    1.9689 C.3        1 <1>        0.000
     15 C9          3.3154    3.1601    0.5538 C.2        1 <1>        0.000
     16 N4          2.9716    4.1188   -0.3591 N.am       1 <1>        0.000
     17 C10         2.1577    5.3140   -0.1631 C.3        1 <1>        0.000
     18 N5          0.3329    4.1540   -1.4461 N.am       1 <1>        0.000
     19 C12        -1.0402    3.8440   -1.7792 C.3        1 <1>        0.000
     20 C13        -1.8660    3.0701   -0.7699 C.3        1 <1>        0.000
     21 O4         -0.1074    5.9913   -0.2054 O.2        1 <1>        0.000
     22 O6          4.0816    2.2457    0.2293 O.2        1 <1>        0.000
     23 O7          3.0653    1.2445    4.9468 O.2        1 <1>        0.000
     24 O8         -0.8839    2.9194    3.5044 O.2        1 <1>        0.000
     25 O10        -4.5666    0.1579    5.2217 O.2        1 <1>        0.000
     26 H          -2.8744    1.7456    2.3327 H.spc      1 <1>        0.000
     27 H          -4.3978    1.5323    1.2340 H.spc      1 <1>        0.000
     28 H          -3.8972   -0.6920    2.8163 H.spc      1 <1>        0.000
     29 H          -5.3290    0.4974    2.7596 H.spc      1 <1>        0.000
     30 H          -3.3860    2.7256    4.3547 H.spc      1 <1>        0.000
     31 H          -1.8904    1.8352    6.3029 H.spc      1 <1>        0.000
     32 H          -1.5453    0.4940    5.1444 H.spc      1 <1>        0.000
     33 H           0.5657    2.1248    6.2047 H.spc      1 <1>        0.000
     34 H           1.3898    3.8594    3.9660 H.spc      1 <1>        0.000
     35 H           2.1578    3.7229    5.5809 H.spc      1 <1>        0.000
     36 H           3.8654    1.5819    2.6576 H.spc      1 <1>        0.000
     37 H           1.6859    3.0953    1.8530 H.spc      1 <1>        0.000
     38 H           3.1353    4.1854    2.3604 H.spc      1 <1>        0.000
     39 H           3.3323    3.9797   -1.3030 H.spc      1 <1>        0.000
     40 H           2.1354    5.5167    0.9077 H.spc      1 <1>        0.000
     41 H           2.6056    6.1100   -0.7580 H.spc      1 <1>        0.000
     42 H           1.0663    3.5746   -1.8545 H.spc      1 <1>        0.000
     43 H          -1.5370    4.8093   -1.8770 H.spc      1 <1>        0.000
     44 H          -0.9845    3.2014   -2.6579 H.spc      1 <1>        0.000
     45 H          -1.8344    3.6394    0.1591 H.spc      1 <1>        0.000
     46 H          -2.8555    2.9444   -1.2094 H.spc      1 <1>        0.000
@<TRIPOS>BOND
     1    3    4 1  
     2    1   20 1  
     3    1    2 1  
     4    2    3 1  
     5   19   20 1  
     6   18   19 1  
     7    9   21 2  
     8    9   18 am 
     9   17    9 1  
    10   16   17 1  
    11   15   22 2  
    12   15   16 am 
    13   14   15 1  
    14   13   14 1  
    15   12   23 2  
    16   12   13 am 
    17   11   12 1  
    18   10   11 1  
    19    8   24 2  
    20    8   10 am 
    21    7    8 1  
    22    6    7 1  
    23    5   25 2  
    24    5    6 am 
    25    4    5 1  
    26    3   26 1  
    27    3   27 1  
    28    4   28 1  
    29    4   29 1  
    30    6   30 1  
    31    7   31 1  
    32    7   32 1  
    33   10   33 1  
    34   11   34 1  
    35   11   35 1  
    36   13   36 1  
    37   14   37 1  
    38   14   38 1  
    39   16   39 1  
    40   17   40 1  
    41   17   41 1  
    42   18   42 1  
    43   19   43 1  
    44   19   44 1  
    45   20   45 1  
    46   20   46 1  
# Name:          frag5-559-48/41815 -- energy: -11.389316
# Creation time: Sat Jun  5 12:52:54 2010


@<TRIPOS>MOLECULE
frag5-559-48/41815 -- energy: -11.389316
   46    46     1     1     1
SMALL
USER_CHARGES


@<TRIPOS>ATOM
      1 S1         -2.6209    1.1857   -1.1873 S.3        1 <1>        0.000
      2 S2         -1.1950    0.3367   -0.0558 S.3        1 <1>        0.000
      3 C1         -1.5331    0.0098    1.6743 C.3        1 <1>        0.000
      4 C2         -2.3964    1.0283    2.4052 C.3        1 <1>        0.000
      5 C3         -1.6888    2.3050    2.8303 C.2        1 <1>        0.000
      6 N1         -1.8610    2.7566    4.0904 N.am       1 <1>        0.000
      7 C4         -1.1943    3.8680    4.7371 C.3        1 <1>        0.000
      8 C5         -0.2553    3.2154    5.7558 C.2        1 <1>        0.000
      9 C11        -0.0513    3.7994   -1.4310 C.2        1 <1>        0.000
     10 N2          1.0906    3.3334    5.6218 N.am       1 <1>        0.000
     11 C6          1.9844    2.2392    5.8811 C.3        1 <1>        0.000
     12 C7          1.8637    1.2510    4.7049 C.2        1 <1>        0.000
     13 N3          1.9136    1.6381    3.3880 N.am       1 <1>        0.000
     14 C8          2.1237    2.9675    2.8830 C.3        1 <1>        0.000
     15 C9          2.3366    3.3612    1.4339 C.2        1 <1>        0.000
     16 N4          1.3351    3.2395    0.5194 N.am       1 <1>        0.000
     17 C10         1.3035    3.9758   -0.7325 C.3        1 <1>        0.000
     18 N5         -1.1374    4.3815   -0.8784 N.am       1 <1>        0.000
     19 C12        -2.5055    4.1000   -1.2196 C.3        1 <1>        0.000
     20 C13        -3.1750    2.8387   -0.6994 C.3        1 <1>        0.000
     21 O4         -0.0886    3.1447   -2.4704 O.2        1 <1>        0.000
     22 O6          3.4167    3.8798    1.1419 O.2        1 <1>        0.000
     23 O7          1.7690    0.0417    4.9460 O.2        1 <1>        0.000
     24 O8         -0.7659    2.4860    6.6093 O.2        1 <1>        0.000
     25 O10        -0.9879    2.9091    2.0178 O.2        1 <1>        0.000
     26 H          -2.0877   -0.9282    1.7003 H.spc      1 <1>        0.000
     27 H          -0.5659    0.0197    2.1768 H.spc      1 <1>        0.000
     28 H          -2.7381    0.5445    3.3202 H.spc      1 <1>        0.000
     29 H          -3.1802    1.3261    1.7088 H.spc      1 <1>        0.000
     30 H          -2.5443    2.2537    4.6566 H.spc      1 <1>        0.000
     31 H          -0.6531    4.4895    4.0237 H.spc      1 <1>        0.000
     32 H          -1.9021    4.5473    5.2121 H.spc      1 <1>        0.000
     33 H           1.4801    4.2289    5.3272 H.spc      1 <1>        0.000
     34 H           3.0094    2.5987    5.9723 H.spc      1 <1>        0.000
     35 H           1.7230    1.7485    6.8186 H.spc      1 <1>        0.000
     36 H           1.7879    0.9023    2.6928 H.spc      1 <1>        0.000
     37 H           1.1657    3.4396    3.1008 H.spc      1 <1>        0.000
     38 H           3.0880    3.2205    3.3237 H.spc      1 <1>        0.000
     39 H           0.5682    2.5988    0.7237 H.spc      1 <1>        0.000
     40 H           1.4568    5.0344   -0.5228 H.spc      1 <1>        0.000
     41 H           2.0889    3.5950   -1.3853 H.spc      1 <1>        0.000
     42 H          -0.9728    5.0822   -0.1557 H.spc      1 <1>        0.000
     43 H          -3.0718    4.9148   -0.7684 H.spc      1 <1>        0.000
     44 H          -2.4961    3.9765   -2.3025 H.spc      1 <1>        0.000
     45 H          -2.9786    2.8683    0.3724 H.spc      1 <1>        0.000
     46 H          -4.1852    2.8997   -1.1043 H.spc      1 <1>        0.000
@<TRIPOS>BOND
     1    3    4 1  
     2    1   20 1  
     3    1    2 1  
     4    2    3 1  
     5   19   20 1  
     6   18   19 1  
     7    9   21 2  
     8    9   18 am 
     9   17    9 1  
    10   16   17 1  
    11   15   22 2  
    12   15   16 am 
    13   14   15 1  
    14   13   14 1  
    15   12   23 2  
    16   12   13 am 
    17   11   12 1  
    18   10   11 1  
    19    8   24 2  
    20    8   10 am 
    21    7    8 1  
    22    6    7 1  
    23    5   25 2  
    24    5    6 am 
    25    4    5 1  
    26    3   26 1  
    27    3   27 1  
    28    4   28 1  
    29    4   29 1  
    30    6   30 1  
    31    7   31 1  
    32    7   32 1  
    33   10   33 1  
    34   11   34 1  
    35   11   35 1  
    36   13   36 1  
    37   14   37 1  
    38   14   38 1  
    39   16   39 1  
    40   17   40 1  
    41   17   41 1  
    42   18   42 1  
    43   19   43 1  
    44   19   44 1  
    45   20   45 1  
    46   20   46 1  
# Name:          frag5-559-48/41815 -- energy: -10.385843
# Creation time: Sat Jun  5 12:52:54 2010


@<TRIPOS>MOLECULE
frag5-559-48/41815 -- energy: -10.385843
   46    46     1     1     1
SMALL
USER_CHARGES


@<TRIPOS>ATOM
      1 S1         -1.3753    4.1834   -0.0208 S.3        1 <1>        0.000
      2 S2         -2.8923    3.7883    1.2070 S.3        1 <1>        0.000
      3 C1         -3.2335    2.1159    1.7478 C.3        1 <1>        0.000
      4 C2         -2.0413    1.2465    2.0760 C.3        1 <1>        0.000
      5 C3         -1.8427    0.8267    3.5081 C.2        1 <1>        0.000
      6 N1         -1.8609    1.7409    4.5126 N.am       1 <1>        0.000
      7 C4         -1.5650    1.4416    5.8936 C.3        1 <1>        0.000
      8 C5         -0.9361    2.5687    6.7142 C.2        1 <1>        0.000
      9 C11         1.1943    1.5407   -1.8416 C.2        1 <1>        0.000
     10 N2         -0.0758    3.4902    6.2281 N.am       1 <1>        0.000
     11 C6          0.3752    3.7801    4.8916 C.3        1 <1>        0.000
     12 C7          1.3244    2.7597    4.2416 C.2        1 <1>        0.000
     13 N3          1.8113    2.9642    2.9838 N.am       1 <1>        0.000
     14 C8          1.6583    4.1087    2.1402 C.3        1 <1>        0.000
     15 C9          2.0500    3.8780    0.7007 C.2        1 <1>        0.000
     16 N4          2.0083    2.6260    0.1736 N.am       1 <1>        0.000
     17 C10         2.3394    2.2950   -1.1829 C.3        1 <1>        0.000
     18 N5          0.1249    2.1615   -2.3893 N.am       1 <1>        0.000
     19 C12        -0.2575    3.5450   -2.4949 C.3        1 <1>        0.000
     20 C13        -1.5041    4.0467   -1.7924 C.3        1 <1>        0.000
     21 O4          1.2107    0.3031   -1.8557 O.2        1 <1>        0.000
     22 O6          2.3508    4.8714    0.0333 O.2        1 <1>        0.000
     23 O7          1.6545    1.7432    4.8520 O.2        1 <1>        0.000
     24 O8         -1.1983    2.6381    7.9220 O.2        1 <1>        0.000
     25 O10        -1.6385   -0.3715    3.7172 O.2        1 <1>        0.000
     26 H          -3.7975    2.2115    2.6756 H.spc      1 <1>        0.000
     27 H          -3.7369    1.6291    0.9125 H.spc      1 <1>        0.000
     28 H          -1.1678    1.8497    1.8286 H.spc      1 <1>        0.000
     29 H          -2.1989    0.3204    1.5233 H.spc      1 <1>        0.000
     30 H          -2.0997    2.7037    4.2752 H.spc      1 <1>        0.000
     31 H          -2.5216    1.2201    6.3669 H.spc      1 <1>        0.000
     32 H          -0.8332    0.6339    5.8781 H.spc      1 <1>        0.000
     33 H           0.3308    4.0943    6.9423 H.spc      1 <1>        0.000
     34 H          -0.5204    3.7928    4.2704 H.spc      1 <1>        0.000
     35 H           0.9393    4.7101    4.9619 H.spc      1 <1>        0.000
     36 H           2.3582    2.1974    2.5923 H.spc      1 <1>        0.000
     37 H           0.6005    4.3717    2.1460 H.spc      1 <1>        0.000
     38 H           2.3166    4.8847    2.5308 H.spc      1 <1>        0.000
     39 H           1.7201    1.8647    0.7882 H.spc      1 <1>        0.000
     40 H           2.5228    3.2153   -1.7375 H.spc      1 <1>        0.000
     41 H           3.2280    1.6638   -1.1867 H.spc      1 <1>        0.000
     42 H          -0.5457    1.5201   -2.8128 H.spc      1 <1>        0.000
     43 H           0.5589    4.0890   -2.0199 H.spc      1 <1>        0.000
     44 H          -0.4674    3.6881   -3.5549 H.spc      1 <1>        0.000
     45 H          -1.6928    5.0515   -2.1704 H.spc      1 <1>        0.000
     46 H          -2.2903    3.3189   -1.9933 H.spc      1 <1>        0.000
@<TRIPOS>BOND
     1    3    4 1  
     2    1   20 1  
     3    1    2 1  
     4    2    3 1  
     5   19   20 1  
     6   18   19 1  
     7    9   21 2  
     8    9   18 am 
     9   17    9 1  
    10   16   17 1  
    11   15   22 2  
    12   15   16 am 
    13   14   15 1  
    14   13   14 1  
    15   12   23 2  
    16   12   13 am 
    17   11   12 1  
    18   10   11 1  
    19    8   24 2  
    20    8   10 am 
    21    7    8 1  
    22    6    7 1  
    23    5   25 2  
    24    5    6 am 
    25    4    5 1  
    26    3   26 1  
    27    3   27 1  
    28    4   28 1  
    29    4   29 1  
    30    6   30 1  
    31    7   31 1  
    32    7   32 1  
    33   10   33 1  
    34   11   34 1  
    35   11   35 1  
    36   13   36 1  
    37   14   37 1  
    38   14   38 1  
    39   16   39 1  
    40   17   40 1  
    41   17   41 1  
    42   18   42 1  
    43   19   43 1  
    44   19   44 1  
    45   20   45 1  
    46   20   46 1  
# Name:          frag5-559-48/41815 -- energy: -11.468302
# Creation time: Sat Jun  5 12:52:54 2010


@<TRIPOS>MOLECULE
frag5-559-48/41815 -- energy: -11.468302
   46    46     1     1     1
SMALL
USER_CHARGES


@<TRIPOS>ATOM
      1 S1         -4.0901    3.3440    0.5526 S.3        1 <1>        0.000
      2 S2         -5.2509    1.7913    1.0752 S.3        1 <1>        0.000
      3 C1         -4.4847    0.3267    1.7960 C.3        1 <1>        0.000
      4 C2         -2.9979    0.1274    1.5098 C.3        1 <1>        0.000
      5 C3         -2.0223    0.9625    2.2908 C.2        1 <1>        0.000
      6 N1         -1.8985    0.8028    3.6474 N.am       1 <1>        0.000
      7 C4         -0.7284    1.2166    4.3780 C.3        1 <1>        0.000
      8 C5         -0.4734    2.7045    4.6734 C.2        1 <1>        0.000
      9 C11         0.2668    3.2837   -0.0065 C.2        1 <1>        0.000
     10 N2          0.6035    2.9788    5.4886 N.am       1 <1>        0.000
     11 C6          1.5943    3.9576    5.1797 C.3        1 <1>        0.000
     12 C7          2.6033    3.2456    4.2500 C.2        1 <1>        0.000
     13 N3          3.3776    4.0614    3.4326 N.am       1 <1>        0.000
     14 C8          4.3049    3.4869    2.4563 C.3        1 <1>        0.000
     15 C9          3.7106    2.6847    1.2825 C.2        1 <1>        0.000
     16 N4          2.3887    2.5150    1.0276 N.am       1 <1>        0.000
     17 C10         1.2605    3.4300    1.1663 C.3        1 <1>        0.000
     18 N5         -0.7829    4.1670   -0.0785 N.am       1 <1>        0.000
     19 C12        -1.8761    4.1498   -1.0187 C.3        1 <1>        0.000
     20 C13        -3.0275    3.1597   -0.8836 C.3        1 <1>        0.000
     21 O4          0.4292    2.3939   -0.8479 O.2        1 <1>        0.000
     22 O6          4.5086    2.1540    0.4967 O.2        1 <1>        0.000
     23 O7          2.6789    2.0140    4.2717 O.2        1 <1>        0.000
     24 O8         -1.1282    3.6087    4.1569 O.2        1 <1>        0.000
     25 O10        -1.2852    1.7254    1.6689 O.2        1 <1>        0.000
     26 H          -4.5723    0.4401    2.8765 H.spc      1 <1>        0.000
     27 H          -4.9951   -0.5297    1.3554 H.spc      1 <1>        0.000
     28 H          -2.8592    0.4129    0.4670 H.spc      1 <1>        0.000
     29 H          -2.7829   -0.9060    1.7819 H.spc      1 <1>        0.000
     30 H          -2.6679    0.3727    4.1607 H.spc      1 <1>        0.000
     31 H          -0.8555    0.7668    5.3627 H.spc      1 <1>        0.000
     32 H           0.1036    0.9252    3.7369 H.spc      1 <1>        0.000
     33 H           0.6970    2.4544    6.3585 H.spc      1 <1>        0.000
     34 H           1.1556    4.8315    4.6980 H.spc      1 <1>        0.000
     35 H           2.0785    4.3337    6.0809 H.spc      1 <1>        0.000
     36 H           3.2984    5.0750    3.5144 H.spc      1 <1>        0.000
     37 H           4.8093    4.3384    1.9996 H.spc      1 <1>        0.000
     38 H           4.9113    2.7751    3.0164 H.spc      1 <1>        0.000
     39 H           2.1411    1.5889    0.6792 H.spc      1 <1>        0.000
     40 H           0.7376    3.1958    2.0935 H.spc      1 <1>        0.000
     41 H           1.6421    4.4510    1.1705 H.spc      1 <1>        0.000
     42 H          -0.7898    4.9193    0.6103 H.spc      1 <1>        0.000
     43 H          -2.3512    5.1214   -0.8832 H.spc      1 <1>        0.000
     44 H          -1.4042    3.8731   -1.9615 H.spc      1 <1>        0.000
     45 H          -3.6664    3.3235   -1.7514 H.spc      1 <1>        0.000
     46 H          -2.5670    2.1761   -0.7908 H.spc      1 <1>        0.000
@<TRIPOS>BOND
     1    3    4 1  
     2    1   20 1  
     3    1    2 1  
     4    2    3 1  
     5   19   20 1  
     6   18   19 1  
     7    9   21 2  
     8    9   18 am 
     9   17    9 1  
    10   16   17 1  
    11   15   22 2  
    12   15   16 am 
    13   14   15 1  
    14   13   14 1  
    15   12   23 2  
    16   12   13 am 
    17   11   12 1  
    18   10   11 1  
    19    8   24 2  
    20    8   10 am 
    21    7    8 1  
    22    6    7 1  
    23    5   25 2  
    24    5    6 am 
    25    4    5 1  
    26    3   26 1  
    27    3   27 1  
    28    4   28 1  
    29    4   29 1  
    30    6   30 1  
    31    7   31 1  
    32    7   32 1  
    33   10   33 1  
    34   11   34 1  
    35   11   35 1  
    36   13   36 1  
    37   14   37 1  
    38   14   38 1  
    39   16   39 1  
    40   17   40 1  
    41   17   41 1  
    42   18   42 1  
    43   19   43 1  
    44   19   44 1  
    45   20   45 1  
    46   20   46 1  
# Name:          frag5-559-48/41815 -- energy: -10.512258
# Creation time: Sat Jun  5 12:52:54 2010


@<TRIPOS>MOLECULE
frag5-559-48/41815 -- energy: -10.512258
   46    46     1     1     1
SMALL
USER_CHARGES


@<TRIPOS>ATOM
      1 S1         -3.1076    1.0958   -1.3427 S.3        1 <1>        0.000
      2 S2         -3.8335    2.1772    0.1901 S.3        1 <1>        0.000
      3 C1         -2.6133    2.9621    1.2035 C.3        1 <1>        0.000
      4 C2         -2.9739    3.6555    2.4912 C.3        1 <1>        0.000
      5 C3         -3.2078    2.8028    3.7302 C.2        1 <1>        0.000
      6 N1         -2.2968    1.9057    4.1774 N.am       1 <1>        0.000
      7 C4         -0.9782    1.4744    3.7207 C.3        1 <1>        0.000
      8 C5         -0.0523    1.1087    4.8884 C.2        1 <1>        0.000
      9 C11         0.8168    2.0287   -0.1677 C.2        1 <1>        0.000
     10 N2          1.2793    1.3551    4.8297 N.am       1 <1>        0.000
     11 C6          2.0632    1.9134    3.7551 C.3        1 <1>        0.000
     12 C7          3.0554    2.9913    4.1808 C.2        1 <1>        0.000
     13 N3          3.4811    3.9429    3.3161 N.am       1 <1>        0.000
     14 C8          3.1733    4.1057    1.9178 C.3        1 <1>        0.000
     15 C9          1.7796    4.7026    1.7017 C.2        1 <1>        0.000
     16 N4          0.9894    4.3695    0.6542 N.am       1 <1>        0.000
     17 C10         1.1681    3.4873   -0.4870 C.3        1 <1>        0.000
     18 N5          0.1279    1.2350   -1.0139 N.am       1 <1>        0.000
     19 C12        -0.4844    1.4586   -2.3115 C.3        1 <1>        0.000
     20 C13        -1.9356    1.9515   -2.4620 C.3        1 <1>        0.000
     21 O4          1.1793    1.5313    0.9034 O.2        1 <1>        0.000
     22 O6          1.3431    5.5319    2.5095 O.2        1 <1>        0.000
     23 O7          3.5018    2.9846    5.3319 O.2        1 <1>        0.000
     24 O8         -0.5310    0.5674    5.8919 O.2        1 <1>        0.000
     25 O10        -4.2631    2.9532    4.3567 O.2        1 <1>        0.000
     26 H          -1.9773    2.1374    1.5252 H.spc      1 <1>        0.000
     27 H          -2.2368    3.7685    0.5742 H.spc      1 <1>        0.000
     28 H          -3.9284    4.1442    2.2956 H.spc      1 <1>        0.000
     29 H          -2.1128    4.2792    2.7313 H.spc      1 <1>        0.000
     30 H          -2.5997    1.4228    5.0232 H.spc      1 <1>        0.000
     31 H          -1.1073    0.5881    3.0994 H.spc      1 <1>        0.000
     32 H          -0.5228    2.2986    3.1717 H.spc      1 <1>        0.000
     33 H           1.8044    1.1096    5.6690 H.spc      1 <1>        0.000
     34 H           2.6463    1.0961    3.3308 H.spc      1 <1>        0.000
     35 H           1.3635    2.3825    3.0633 H.spc      1 <1>        0.000
     36 H           4.1085    4.6437    3.7106 H.spc      1 <1>        0.000
     37 H           3.9061    4.7866    1.4849 H.spc      1 <1>        0.000
     38 H           3.1996    3.1231    1.4468 H.spc      1 <1>        0.000
     39 H           0.0811    4.8334    0.6688 H.spc      1 <1>        0.000
     40 H           0.5016    3.8264   -1.2800 H.spc      1 <1>        0.000
     41 H           2.2183    3.5231   -0.7767 H.spc      1 <1>        0.000
     42 H           0.0136    0.2810   -0.6714 H.spc      1 <1>        0.000
     43 H           0.1053    2.2723   -2.7338 H.spc      1 <1>        0.000
     44 H          -0.5065    0.4639   -2.7567 H.spc      1 <1>        0.000
     45 H          -1.9523    3.0119   -2.2101 H.spc      1 <1>        0.000
     46 H          -2.2489    1.7490   -3.4862 H.spc      1 <1>        0.000
@<TRIPOS>BOND
     1    3    4 1  
     2    1   20 1  
     3    1    2 1  
     4    2    3 1  
     5   19   20 1  
     6   18   19 1  
     7    9   21 2  
     8    9   18 am 
     9   17    9 1  
    10   16   17 1  
    11   15   22 2  
    12   15   16 am 
    13   14   15 1  
    14   13   14 1  
    15   12   23 2  
    16   12   13 am 
    17   11   12 1  
    18   10   11 1  
    19    8   24 2  
    20    8   10 am 
    21    7    8 1  
    22    6    7 1  
    23    5   25 2  
    24    5    6 am 
    25    4    5 1  
    26    3   26 1  
    27    3   27 1  
    28    4   28 1  
    29    4   29 1  
    30    6   30 1  
    31    7   31 1  
    32    7   32 1  
    33   10   33 1  
    34   11   34 1  
    35   11   35 1  
    36   13   36 1  
    37   14   37 1  
    38   14   38 1  
    39   16   39 1  
    40   17   40 1  
    41   17   41 1  
    42   18   42 1  
    43   19   43 1  
    44   19   44 1  
    45   20   45 1  
    46   20   46 1  
# Name:          frag5-559-48/41815 -- energy: -7.168076
# Creation time: Sat Jun  5 12:52:54 2010


@<TRIPOS>MOLECULE
frag5-559-48/41815 -- energy: -7.168076
   46    46     1     1     1
SMALL
USER_CHARGES


@<TRIPOS>ATOM
      1 S1         -2.6604    1.2205   -0.0714 S.3        1 <1>        0.000
      2 S2         -4.3637    2.0488    0.5577 S.3        1 <1>        0.000
      3 C1         -4.5310    2.6488    2.2328 C.3        1 <1>        0.000
      4 C2         -4.8511    1.6193    3.2895 C.3        1 <1>        0.000
      5 C3         -3.6814    1.0133    4.0221 C.2        1 <1>        0.000
      6 N1         -3.1353    1.7133    5.0484 N.am       1 <1>        0.000
      7 C4         -1.9451    1.3916    5.8009 C.3        1 <1>        0.000
      8 C5         -0.8986    2.3885    5.3393 C.2        1 <1>        0.000
      9 C11         1.7101    3.3529   -2.0171 C.2        1 <1>        0.000
     10 N2          0.4427    2.1742    5.4260 N.am       1 <1>        0.000
     11 C6          1.3185    3.0399    4.6919 C.3        1 <1>        0.000
     12 C7          2.7374    2.5616    4.3569 C.2        1 <1>        0.000
     13 N3          3.3428    3.0875    3.2477 N.am       1 <1>        0.000
     14 C8          2.9397    4.3087    2.5506 C.3        1 <1>        0.000
     15 C9          2.9651    4.2109    1.0277 C.2        1 <1>        0.000
     16 N4          2.4976    3.1036    0.3853 N.am       1 <1>        0.000
     17 C10         2.7288    2.8210   -1.0130 C.3        1 <1>        0.000
     18 N5          0.4876    2.8145   -2.1979 N.am       1 <1>        0.000
     19 C12        -0.2701    1.8307   -1.4766 C.3        1 <1>        0.000
     20 C13        -1.3266    2.3192   -0.5039 C.3        1 <1>        0.000
     21 O4          2.0095    4.3140   -2.7341 O.2        1 <1>        0.000
     22 O6          3.3928    5.1843    0.4006 O.2        1 <1>        0.000
     23 O7          3.3227    1.7554    5.0841 O.2        1 <1>        0.000
     24 O8         -1.3071    3.4535    4.8429 O.2        1 <1>        0.000
     25 O10        -3.2444   -0.0840    3.6756 O.2        1 <1>        0.000
     26 H          -3.5604    3.0654    2.5021 H.spc      1 <1>        0.000
     27 H          -5.3725    3.3415    2.2222 H.spc      1 <1>        0.000
     28 H          -5.3376    0.7952    2.7676 H.spc      1 <1>        0.000
     29 H          -5.4416    2.1382    4.0446 H.spc      1 <1>        0.000
     30 H          -3.6226    2.5671    5.3204 H.spc      1 <1>        0.000
     31 H          -2.1185    1.4600    6.8748 H.spc      1 <1>        0.000
     32 H          -1.6254    0.3643    5.6264 H.spc      1 <1>        0.000
     33 H           0.8153    1.4169    5.9987 H.spc      1 <1>        0.000
     34 H           0.8334    3.1723    3.7248 H.spc      1 <1>        0.000
     35 H           1.4615    3.9054    5.3388 H.spc      1 <1>        0.000
     36 H           4.1466    2.5829    2.8739 H.spc      1 <1>        0.000
     37 H           1.9084    4.5129    2.8385 H.spc      1 <1>        0.000
     38 H           3.6525    5.0843    2.8309 H.spc      1 <1>        0.000
     39 H           1.9506    2.4327    0.9249 H.spc      1 <1>        0.000
     40 H           3.6692    3.3135   -1.2603 H.spc      1 <1>        0.000
     41 H           2.6904    1.7354   -1.1032 H.spc      1 <1>        0.000
     42 H           0.0004    3.1815   -3.0154 H.spc      1 <1>        0.000
     43 H          -0.8138    1.2697   -2.2367 H.spc      1 <1>        0.000
     44 H           0.4576    1.2940   -0.8680 H.spc      1 <1>        0.000
     45 H          -0.7925    2.4989    0.4291 H.spc      1 <1>        0.000
     46 H          -1.8037    3.1628   -1.0026 H.spc      1 <1>        0.000
@<TRIPOS>BOND
     1    3    4 1  
     2    1   20 1  
     3    1    2 1  
     4    2    3 1  
     5   19   20 1  
     6   18   19 1  
     7    9   21 2  
     8    9   18 am 
     9   17    9 1  
    10   16   17 1  
    11   15   22 2  
    12   15   16 am 
    13   14   15 1  
    14   13   14 1  
    15   12   23 2  
    16   12   13 am 
    17   11   12 1  
    18   10   11 1  
    19    8   24 2  
    20    8   10 am 
    21    7    8 1  
    22    6    7 1  
    23    5   25 2  
    24    5    6 am 
    25    4    5 1  
    26    3   26 1  
    27    3   27 1  
    28    4   28 1  
    29    4   29 1  
    30    6   30 1  
    31    7   31 1  
    32    7   32 1  
    33   10   33 1  
    34   11   34 1  
    35   11   35 1  
    36   13   36 1  
    37   14   37 1  
    38   14   38 1  
    39   16   39 1  
    40   17   40 1  
    41   17   41 1  
    42   18   42 1  
    43   19   43 1  
    44   19   44 1  
    45   20   45 1  
    46   20   46 1  
# Name:          frag5-559-48/41815 -- energy: -10.917598
# Creation time: Sat Jun  5 12:52:54 2010


@<TRIPOS>MOLECULE
frag5-559-48/41815 -- energy: -10.917598
   46    46     1     1     1
SMALL
USER_CHARGES


@<TRIPOS>ATOM
      1 S1         -3.4249    1.7217   -0.5045 S.3        1 <1>        0.000
      2 S2         -4.4011    2.6962    0.9449 S.3        1 <1>        0.000
      3 C1         -3.5948    4.0849    1.7723 C.3        1 <1>        0.000
      4 C2         -2.1083    3.9565    1.9755 C.3        1 <1>        0.000
      5 C3         -1.6401    2.7520    2.7811 C.2        1 <1>        0.000
      6 N1         -2.1353    2.4689    4.0110 N.am       1 <1>        0.000
      7 C4         -1.7504    1.2940    4.7485 C.3        1 <1>        0.000
      8 C5         -0.2702    1.1526    5.1949 C.2        1 <1>        0.000
      9 C11         0.6843    1.8956   -1.4949 C.2        1 <1>        0.000
     10 N2          0.6165    2.1527    5.3737 N.am       1 <1>        0.000
     11 C6          0.5427    3.5903    5.2872 C.3        1 <1>        0.000
     12 C7          1.9126    4.2141    4.9740 C.2        1 <1>        0.000
     13 N3          2.4075    4.2317    3.7097 N.am       1 <1>        0.000
     14 C8          1.8208    3.6615    2.5251 C.3        1 <1>        0.000
     15 C9          2.6011    3.7784    1.2166 C.2        1 <1>        0.000
     16 N4          2.1806    3.1103    0.1075 N.am       1 <1>        0.000
     17 C10         1.0417    2.2329   -0.0550 C.3        1 <1>        0.000
     18 N5         -0.3236    1.0587   -1.8373 N.am       1 <1>        0.000
     19 C12        -1.1635    0.1161   -1.1283 C.3        1 <1>        0.000
     20 C13        -2.2076    0.4727   -0.0870 C.3        1 <1>        0.000
     21 O4          1.3354    2.4152   -2.4133 O.2        1 <1>        0.000
     22 O6          3.6020    4.4959    1.1788 O.2        1 <1>        0.000
     23 O7          2.5773    4.6795    5.8959 O.2        1 <1>        0.000
     24 O8          0.1229    0.0060    5.4676 O.2        1 <1>        0.000
     25 O10        -0.7447    2.0538    2.3216 O.2        1 <1>        0.000
     26 H          -3.7429    4.9529    1.1298 H.spc      1 <1>        0.000
     27 H          -4.0362    4.1478    2.7669 H.spc      1 <1>        0.000
     28 H          -1.8015    4.8373    2.5396 H.spc      1 <1>        0.000
     29 H          -1.6742    3.8449    0.9819 H.spc      1 <1>        0.000
     30 H          -2.8062    3.1130    4.4298 H.spc      1 <1>        0.000
     31 H          -2.3246    1.3373    5.6740 H.spc      1 <1>        0.000
     32 H          -1.9240    0.4604    4.0680 H.spc      1 <1>        0.000
     33 H           1.5463    1.8179    5.6263 H.spc      1 <1>        0.000
     34 H          -0.1445    3.8504    4.4821 H.spc      1 <1>        0.000
     35 H           0.2029    3.9746    6.2490 H.spc      1 <1>        0.000
     36 H           3.3020    4.7056    3.5842 H.spc      1 <1>        0.000
     37 H           1.7446    2.5925    2.7239 H.spc      1 <1>        0.000
     38 H           0.8962    4.2154    2.3629 H.spc      1 <1>        0.000
     39 H           2.7495    3.2479   -0.7279 H.spc      1 <1>        0.000
     40 H           1.2991    1.2924    0.4322 H.spc      1 <1>        0.000
     41 H           0.1824    2.7540    0.3670 H.spc      1 <1>        0.000
     42 H          -0.5438    1.1028   -2.8323 H.spc      1 <1>        0.000
     43 H          -1.7746   -0.2939   -1.9324 H.spc      1 <1>        0.000
     44 H          -0.4345   -0.4397   -0.5387 H.spc      1 <1>        0.000
     45 H          -2.7773   -0.4423    0.0751 H.spc      1 <1>        0.000
     46 H          -1.6481    0.8848    0.7528 H.spc      1 <1>        0.000
@<TRIPOS>BOND
     1    3    4 1  
     2    1   20 1  
     3    1    2 1  
     4    2    3 1  
     5   19   20 1  
     6   18   19 1  
     7    9   21 2  
     8    9   18 am 
     9   17    9 1  
    10   16   17 1  
    11   15   22 2  
    12   15   16 am 
    13   14   15 1  
    14   13   14 1  
    15   12   23 2  
    16   12   13 am 
    17   11   12 1  
    18   10   11 1  
    19    8   24 2  
    20    8   10 am 
    21    7    8 1  
    22    6    7 1  
    23    5   25 2  
    24    5    6 am 
    25    4    5 1  
    26    3   26 1  
    27    3   27 1  
    28    4   28 1  
    29    4   29 1  
    30    6   30 1  
    31    7   31 1  
    32    7   32 1  
    33   10   33 1  
    34   11   34 1  
    35   11   35 1  
    36   13   36 1  
    37   14   37 1  
    38   14   38 1  
    39   16   39 1  
    40   17   40 1  
    41   17   41 1  
    42   18   42 1  
    43   19   43 1  
    44   19   44 1  
    45   20   45 1  
    46   20   46 1  
# Name:          frag5-559-48/41815 -- energy: -11.858183
# Creation time: Sat Jun  5 12:52:54 2010


@<TRIPOS>MOLECULE
frag5-559-48/41815 -- energy: -11.858183
   46    46     1     1     1
SMALL
USER_CHARGES


@<TRIPOS>ATOM
      1 S1         -3.6912    1.3367   -0.8694 S.3        1 <1>        0.000
      2 S2         -3.8715    3.2662   -0.3930 S.3        1 <1>        0.000
      3 C1         -3.0758    3.9724    1.0603 C.3        1 <1>        0.000
      4 C2         -3.1319    3.2616    2.4070 C.3        1 <1>        0.000
      5 C3         -2.2627    2.0347    2.5959 C.2        1 <1>        0.000
      6 N1         -1.9485    1.6397    3.8566 N.am       1 <1>        0.000
      7 C4         -0.8509    0.7837    4.2182 C.3        1 <1>        0.000
      8 C5          0.0358    1.6373    5.1176 C.2        1 <1>        0.000
      9 C11         0.5850    2.8423   -0.6668 C.2        1 <1>        0.000
     10 N2          1.3265    1.9122    4.7615 N.am       1 <1>        0.000
     11 C6          2.1844    2.8306    5.4826 C.3        1 <1>        0.000
     12 C7          3.3814    3.3229    4.6608 C.2        1 <1>        0.000
     13 N3          3.2441    3.9856    3.4851 N.am       1 <1>        0.000
     14 C8          2.0469    4.5482    2.8774 C.3        1 <1>        0.000
     15 C9          1.1470    3.5434    2.1657 C.2        1 <1>        0.000
     16 N4          1.7804    2.5222    1.4496 N.am       1 <1>        0.000
     17 C10         1.0471    1.8208    0.3991 C.3        1 <1>        0.000
     18 N5         -0.3930    2.6358   -1.5837 N.am       1 <1>        0.000
     19 C12        -1.0886    1.4713   -2.0668 C.3        1 <1>        0.000
     20 C13        -2.1026    0.6196   -1.3136 C.3        1 <1>        0.000
     21 O4          1.1669    3.9279   -0.7344 O.2        1 <1>        0.000
     22 O6         -0.0711    3.7473    2.1903 O.2        1 <1>        0.000
     23 O7          4.5236    3.1205    5.0966 O.2        1 <1>        0.000
     24 O8         -0.4631    2.1042    6.1360 O.2        1 <1>        0.000
     25 O10        -1.8375    1.4049    1.6332 O.2        1 <1>        0.000
     26 H          -2.0158    3.9758    0.8065 H.spc      1 <1>        0.000
     27 H          -3.6142    4.9048    1.2303 H.spc      1 <1>        0.000
     28 H          -4.1584    2.9088    2.5069 H.spc      1 <1>        0.000
     29 H          -2.7708    3.9885    3.1346 H.spc      1 <1>        0.000
     30 H          -2.5426    1.9797    4.6128 H.spc      1 <1>        0.000
     31 H          -1.1925   -0.1181    4.7263 H.spc      1 <1>        0.000
     32 H          -0.3115    0.4264    3.3410 H.spc      1 <1>        0.000
     33 H           1.7081    1.4433    3.9400 H.spc      1 <1>        0.000
     34 H           1.5849    3.7029    5.7430 H.spc      1 <1>        0.000
     35 H           2.5783    2.2992    6.3490 H.spc      1 <1>        0.000
     36 H           4.1037    4.1072    2.9497 H.spc      1 <1>        0.000
     37 H           1.4572    4.9781    3.6871 H.spc      1 <1>        0.000
     38 H           2.3833    5.2577    2.1214 H.spc      1 <1>        0.000
     39 H           2.7461    2.2696    1.6593 H.spc      1 <1>        0.000
     40 H           1.6942    1.0759   -0.0641 H.spc      1 <1>        0.000
     41 H           0.1784    1.3225    0.8294 H.spc      1 <1>        0.000
     42 H          -0.7054    3.4978   -2.0307 H.spc      1 <1>        0.000
     43 H          -1.7121    1.9040   -2.8492 H.spc      1 <1>        0.000
     44 H          -0.2662    0.7664   -2.1890 H.spc      1 <1>        0.000
     45 H          -2.3447   -0.1954   -1.9957 H.spc      1 <1>        0.000
     46 H          -1.6233    0.3907   -0.3618 H.spc      1 <1>        0.000
@<TRIPOS>BOND
     1    3    4 1  
     2    1   20 1  
     3    1    2 1  
     4    2    3 1  
     5   19   20 1  
     6   18   19 1  
     7    9   21 2  
     8    9   18 am 
     9   17    9 1  
    10   16   17 1  
    11   15   22 2  
    12   15   16 am 
    13   14   15 1  
    14   13   14 1  
    15   12   23 2  
    16   12   13 am 
    17   11   12 1  
    18   10   11 1  
    19    8   24 2  
    20    8   10 am 
    21    7    8 1  
    22    6    7 1  
    23    5   25 2  
    24    5    6 am 
    25    4    5 1  
    26    3   26 1  
    27    3   27 1  
    28    4   28 1  
    29    4   29 1  
    30    6   30 1  
    31    7   31 1  
    32    7   32 1  
    33   10   33 1  
    34   11   34 1  
    35   11   35 1  
    36   13   36 1  
    37   14   37 1  
    38   14   38 1  
    39   16   39 1  
    40   17   40 1  
    41   17   41 1  
    42   18   42 1  
    43   19   43 1  
    44   19   44 1  
    45   20   45 1  
    46   20   46 1  
# Name:          frag5-559-48/41815 -- energy: -9.598721
# Creation time: Sat Jun  5 12:52:54 2010


@<TRIPOS>MOLECULE
frag5-559-48/41815 -- energy: -9.598721
   46    46     1     1     1
SMALL
USER_CHARGES


@<TRIPOS>ATOM
      1 S1         -2.1654    1.6253    0.2789 S.3        1 <1>        0.000
      2 S2         -3.9229    2.3778    0.8622 S.3        1 <1>        0.000
      3 C1         -4.1732    3.1027    2.4873 C.3        1 <1>        0.000
      4 C2         -4.7578    2.2060    3.5625 C.3        1 <1>        0.000
      5 C3         -3.9279    2.0503    4.8185 C.2        1 <1>        0.000
      6 N1         -2.7522    1.4079    4.7095 N.am       1 <1>        0.000
      7 C4         -1.8039    1.1144    5.7618 C.3        1 <1>        0.000
      8 C5         -0.4210    0.9167    5.1481 C.2        1 <1>        0.000
      9 C11         2.4450    2.8632   -1.7190 C.2        1 <1>        0.000
     10 N2          0.2066    1.8696    4.4181 N.am       1 <1>        0.000
     11 C6         -0.1444    3.2481    4.1893 C.3        1 <1>        0.000
     12 C7          0.4628    3.7769    2.9100 C.2        1 <1>        0.000
     13 N3          1.8118    3.8598    2.7889 N.am       1 <1>        0.000
     14 C8          2.5564    4.4108    1.6915 C.3        1 <1>        0.000
     15 C9          3.7310    3.4877    1.4090 C.2        1 <1>        0.000
     16 N4          4.1252    3.1581    0.1625 N.am       1 <1>        0.000
     17 C10         3.6766    3.6005   -1.1505 C.3        1 <1>        0.000
     18 N5          1.4455    2.4451   -0.8873 N.am       1 <1>        0.000
     19 C12         0.1660    1.9086   -1.2673 C.3        1 <1>        0.000
     20 C13        -1.1497    2.5684   -0.8365 C.3        1 <1>        0.000
     21 O4          2.3658    2.7474   -2.9458 O.2        1 <1>        0.000
     22 O6          4.3633    3.0239    2.3676 O.2        1 <1>        0.000
     23 O7         -0.2885    4.1295    1.9996 O.2        1 <1>        0.000
     24 O8          0.1644   -0.1531    5.3410 O.2        1 <1>        0.000
     25 O10        -4.3326    2.5466    5.8659 O.2        1 <1>        0.000
     26 H          -3.1817    3.3836    2.8424 H.spc      1 <1>        0.000
     27 H          -4.8965    3.9057    2.3455 H.spc      1 <1>        0.000
     28 H          -4.8375    1.2119    3.1226 H.spc      1 <1>        0.000
     29 H          -5.6958    2.6680    3.8703 H.spc      1 <1>        0.000
     30 H          -2.4987    1.0897    3.7741 H.spc      1 <1>        0.000
     31 H          -1.7753    1.9421    6.4705 H.spc      1 <1>        0.000
     32 H          -2.1059    0.2068    6.2844 H.spc      1 <1>        0.000
     33 H           1.0633    1.5626    3.9574 H.spc      1 <1>        0.000
     34 H          -1.2292    3.3165    4.1076 H.spc      1 <1>        0.000
     35 H           0.2370    3.8413    5.0204 H.spc      1 <1>        0.000
     36 H           2.3591    3.4886    3.5655 H.spc      1 <1>        0.000
     37 H           1.9214    4.4925    0.8093 H.spc      1 <1>        0.000
     38 H           2.9144    5.4091    1.9433 H.spc      1 <1>        0.000
     39 H           4.8781    2.4706    0.1337 H.spc      1 <1>        0.000
     40 H           3.3885    4.6462   -1.0427 H.spc      1 <1>        0.000
     41 H           4.4985    3.4065   -1.8397 H.spc      1 <1>        0.000
     42 H           1.6263    2.5217    0.1136 H.spc      1 <1>        0.000
     43 H           0.1588    2.0056   -2.3529 H.spc      1 <1>        0.000
     44 H           0.1388    0.9361   -0.7758 H.spc      1 <1>        0.000
     45 H          -0.8758    3.4798   -0.3051 H.spc      1 <1>        0.000
     46 H          -1.7365    2.7037   -1.7451 H.spc      1 <1>        0.000
@<TRIPOS>BOND
     1    3    4 1  
     2    1   20 1  
     3    1    2 1  
     4    2    3 1  
     5   19   20 1  
     6   18   19 1  
     7    9   21 2  
     8    9   18 am 
     9   17    9 1  
    10   16   17 1  
    11   15   22 2  
    12   15   16 am 
    13   14   15 1  
    14   13   14 1  
    15   12   23 2  
    16   12   13 am 
    17   11   12 1  
    18   10   11 1  
    19    8   24 2  
    20    8   10 am 
    21    7    8 1  
    22    6    7 1  
    23    5   25 2  
    24    5    6 am 
    25    4    5 1  
    26    3   26 1  
    27    3   27 1  
    28    4   28 1  
    29    4   29 1  
    30    6   30 1  
    31    7   31 1  
    32    7   32 1  
    33   10   33 1  
    34   11   34 1  
    35   11   35 1  
    36   13   36 1  
    37   14   37 1  
    38   14   38 1  
    39   16   39 1  
    40   17   40 1  
    41   17   41 1  
    42   18   42 1  
    43   19   43 1  
    44   19   44 1  
    45   20   45 1  
    46   20   46 1  
# Name:          frag5-559-48/41815 -- energy: -10.834940
# Creation time: Sat Jun  5 12:52:54 2010


@<TRIPOS>MOLECULE
frag5-559-48/41815 -- energy: -10.834940
   46    46     1     1     1
SMALL
USER_CHARGES


@<TRIPOS>ATOM
      1 S1         -3.6425    4.1400   -0.0675 S.3        1 <1>        0.000
      2 S2         -3.8986    3.3782    1.7705 S.3        1 <1>        0.000
      3 C1         -4.0329    1.5746    1.8244 C.3        1 <1>        0.000
      4 C2         -3.2430    0.9686    2.9918 C.3        1 <1>        0.000
      5 C3         -1.7771    0.6341    2.7124 C.2        1 <1>        0.000
      6 N1         -0.8275    0.6053    3.6954 N.am       1 <1>        0.000
      7 C4         -0.9210    0.8279    5.1434 C.3        1 <1>        0.000
      8 C5         -0.8719    2.2816    5.7092 C.2        1 <1>        0.000
      9 C11         1.0079    2.9074   -1.0623 C.2        1 <1>        0.000
     10 N2          0.2066    3.0988    5.5461 N.am       1 <1>        0.000
     11 C6          1.4877    2.9288    4.8759 C.3        1 <1>        0.000
     12 C7          1.7892    3.8759    3.7039 C.2        1 <1>        0.000
     13 N3          3.0670    3.8204    3.1858 N.am       1 <1>        0.000
     14 C8          3.3316    3.7293    1.7730 C.3        1 <1>        0.000
     15 C9          3.0609    2.2531    1.5083 C.2        1 <1>        0.000
     16 N4          1.9080    1.8257    0.9537 N.am       1 <1>        0.000
     17 C10         0.8091    2.5897    0.4184 C.3        1 <1>        0.000
     18 N5          0.1287    3.6592   -1.7673 N.am       1 <1>        0.000
     19 C12        -1.1121    4.2768   -1.3666 C.3        1 <1>        0.000
     20 C13        -2.2909    3.4164   -0.9634 C.3        1 <1>        0.000
     21 O4          2.0054    2.4735   -1.6489 O.2        1 <1>        0.000
     22 O6          3.8785    1.4134    1.9035 O.2        1 <1>        0.000
     23 O7          0.9039    4.5719    3.2110 O.2        1 <1>        0.000
     24 O8         -1.8357    2.6990    6.3579 O.2        1 <1>        0.000
     25 O10        -1.4503    0.3425    1.5574 O.2        1 <1>        0.000
     26 H          -5.0837    1.3168    1.9562 H.spc      1 <1>        0.000
     27 H          -3.6241    1.1764    0.8957 H.spc      1 <1>        0.000
     28 H          -3.7307    0.0238    3.2319 H.spc      1 <1>        0.000
     29 H          -3.2389    1.7213    3.7802 H.spc      1 <1>        0.000
     30 H           0.1130    0.3911    3.3638 H.spc      1 <1>        0.000
     31 H          -1.9114    0.4617    5.4138 H.spc      1 <1>        0.000
     32 H          -0.0343    0.3441    5.5530 H.spc      1 <1>        0.000
     33 H           0.0933    4.0142    5.9815 H.spc      1 <1>        0.000
     34 H           2.2485    3.1339    5.6291 H.spc      1 <1>        0.000
     35 H           1.4723    1.9246    4.4522 H.spc      1 <1>        0.000
     36 H           3.8571    3.8449    3.8304 H.spc      1 <1>        0.000
     37 H           2.7197    4.4003    1.1701 H.spc      1 <1>        0.000
     38 H           4.3374    4.0452    1.4960 H.spc      1 <1>        0.000
     39 H           1.7975    0.8128    0.9061 H.spc      1 <1>        0.000
     40 H          -0.1016    2.0000    0.5232 H.spc      1 <1>        0.000
     41 H           0.7470    3.5304    0.9655 H.spc      1 <1>        0.000
     42 H           0.3864    3.8142   -2.7420 H.spc      1 <1>        0.000
     43 H          -0.8601    4.8337   -0.4641 H.spc      1 <1>        0.000
     44 H          -1.4529    4.8059   -2.2566 H.spc      1 <1>        0.000
     45 H          -2.7292    3.0909   -1.9068 H.spc      1 <1>        0.000
     46 H          -1.8715    2.6783   -0.2797 H.spc      1 <1>        0.000
@<TRIPOS>BOND
     1    3    4 1  
     2    1   20 1  
     3    1    2 1  
     4    2    3 1  
     5   19   20 1  
     6   18   19 1  
     7    9   21 2  
     8    9   18 am 
     9   17    9 1  
    10   16   17 1  
    11   15   22 2  
    12   15   16 am 
    13   14   15 1  
    14   13   14 1  
    15   12   23 2  
    16   12   13 am 
    17   11   12 1  
    18   10   11 1  
    19    8   24 2  
    20    8   10 am 
    21    7    8 1  
    22    6    7 1  
    23    5   25 2  
    24    5    6 am 
    25    4    5 1  
    26    3   26 1  
    27    3   27 1  
    28    4   28 1  
    29    4   29 1  
    30    6   30 1  
    31    7   31 1  
    32    7   32 1  
    33   10   33 1  
    34   11   34 1  
    35   11   35 1  
    36   13   36 1  
    37   14   37 1  
    38   14   38 1  
    39   16   39 1  
    40   17   40 1  
    41   17   41 1  
    42   18   42 1  
    43   19   43 1  
    44   19   44 1  
    45   20   45 1  
    46   20   46 1  
