#      Rotatable Fragment
#      Build by yxyuan
#
# Name:          frag3-197-6/31924
# Creation time: Sat Jun  5 12:52:19 2010


@<TRIPOS>MOLECULE
frag3-197-6/31924
   11    10     1     1     1
SMALL
USER_CHARGES


@<TRIPOS>ATOM
      1 N1          0.2449    0.1560    0.2577 N.am       1 <1>        0.000
      2 C1          1.4977   -0.2641   -0.1017 C.2        1 <1>        0.000
      3 O1          1.8018   -1.1496   -0.8822 O.2        1 <1>        0.000
      4 O2          2.3793    0.4614    0.5749 O.3        1 <1>        0.000
      5 C3         -0.9569   -0.3267   -0.1313 C.2        1 <1>        0.000
      6 C4         -2.1708   -0.1367    0.3676 C.2        1 <1>        0.000
      7 H           0.2140    0.9410    0.9083 H.spc      1 <1>        0.000
      8 H           1.9146    1.0956    1.1258 H.spc      1 <1>        0.000
      9 H          -0.9220   -0.9823   -1.0014 H.spc      1 <1>        0.000
     10 H          -2.3079    0.5039    1.2388 H.spc      1 <1>        0.000
     11 H          -3.0315   -0.6211   -0.0935 H.spc      1 <1>        0.000
@<TRIPOS>BOND
     1    1    2 am 
     2    1    5 1  
     3    2    3 2  
     4    2    4 1  
     5    5    6 2  
     6    1    7 1  
     7    4    8 1  
     8    5    9 1  
     9    6   10 1  
    10    6   11 1  
# Name:          frag3-197-6/31924
# Creation time: Sat Jun  5 12:52:19 2010


@<TRIPOS>MOLECULE
frag3-197-6/31924
   11    10     1     1     1
SMALL
USER_CHARGES


@<TRIPOS>ATOM
      1 N1          0.3044    0.4455    0.3977 N.am       1 <1>        0.000
      2 C1          1.3564   -0.2536   -0.0914 C.2        1 <1>        0.000
      3 O1          1.4022   -1.2343   -0.7993 O.2        1 <1>        0.000
      4 O2          2.4499    0.3358    0.4212 O.3        1 <1>        0.000
      5 C3         -1.0323    0.2225    0.3676 C.2        1 <1>        0.000
      6 C4         -1.6844   -0.7757   -0.2108 C.2        1 <1>        0.000
      7 H           0.5686    1.3039    0.8811 H.spc      1 <1>        0.000
      8 H           2.1861    1.0926    0.9497 H.spc      1 <1>        0.000
      9 H          -1.6491    0.9575    0.8848 H.spc      1 <1>        0.000
     10 H          -1.1335   -1.5487   -0.7466 H.spc      1 <1>        0.000
     11 H          -2.7717   -0.8237   -0.1508 H.spc      1 <1>        0.000
@<TRIPOS>BOND
     1    1    2 am 
     2    1    5 1  
     3    2    3 2  
     4    2    4 1  
     5    5    6 2  
     6    1    7 1  
     7    4    8 1  
     8    5    9 1  
     9    6   10 1  
    10    6   11 1  
# Name:          frag3-197-6/31924
# Creation time: Sat Jun  5 12:52:19 2010


@<TRIPOS>MOLECULE
frag3-197-6/31924
   11    10     1     1     1
SMALL
USER_CHARGES


@<TRIPOS>ATOM
      1 N1          0.1229   -0.6131   -0.2179 N.am       1 <1>        0.000
      2 C1          1.4873   -0.4439   -0.2120 C.2        1 <1>        0.000
      3 O1          2.3210   -1.0410   -0.8681 O.2        1 <1>        0.000
      4 O2          1.7818    0.5670    0.5964 O.3        1 <1>        0.000
      5 C3         -0.8038    0.2158    0.3372 C.2        1 <1>        0.000
      6 C4         -2.1131    0.0554    0.4494 C.2        1 <1>        0.000
      7 H          -0.2321   -1.4464   -0.6870 H.spc      1 <1>        0.000
      8 H           0.9780    0.8877    1.0119 H.spc      1 <1>        0.000
      9 H          -0.4109    1.1456    0.7486 H.spc      1 <1>        0.000
     10 H          -2.5866   -0.8474    0.0636 H.spc      1 <1>        0.000
     11 H          -2.7176    0.8261    0.9276 H.spc      1 <1>        0.000
@<TRIPOS>BOND
     1    1    2 am 
     2    1    5 1  
     3    2    3 2  
     4    2    4 1  
     5    5    6 2  
     6    1    7 1  
     7    4    8 1  
     8    5    9 1  
     9    6   10 1  
    10    6   11 1  
# Name:          frag3-197-6/31924 -- energy: 1.662780
# Creation time: Sat Jun  5 12:52:19 2010


@<TRIPOS>MOLECULE
frag3-197-6/31924 -- energy: 1.662780
   11    10     1     1     1
SMALL
USER_CHARGES


@<TRIPOS>ATOM
      1 N1          0.2449    0.1560    0.2577 N.am       1 <1>        0.000
      2 C1          1.4977   -0.2641   -0.1017 C.2        1 <1>        0.000
      3 O1          1.8018   -1.1496   -0.8822 O.2        1 <1>        0.000
      4 O2          2.3793    0.4614    0.5749 O.3        1 <1>        0.000
      5 C3         -0.9569   -0.3267   -0.1313 C.2        1 <1>        0.000
      6 C4         -2.1708   -0.1367    0.3676 C.2        1 <1>        0.000
      7 H           0.2140    0.9410    0.9083 H.spc      1 <1>        0.000
      8 H           1.9146    1.0956    1.1258 H.spc      1 <1>        0.000
      9 H          -0.9220   -0.9823   -1.0014 H.spc      1 <1>        0.000
     10 H          -2.3079    0.5039    1.2388 H.spc      1 <1>        0.000
     11 H          -3.0315   -0.6211   -0.0935 H.spc      1 <1>        0.000
@<TRIPOS>BOND
     1    1    2 am 
     2    1    5 1  
     3    2    3 2  
     4    2    4 1  
     5    5    6 2  
     6    1    7 1  
     7    4    8 1  
     8    5    9 1  
     9    6   10 1  
    10    6   11 1  
