#      Rotatable Fragment
#      Build by yxyuan
#
# Name:          frag4-480-91/150395
# Creation time: Sat Jun  5 12:53:38 2010


@<TRIPOS>MOLECULE
frag4-480-91/150395
   17    18     1     1     1
SMALL
USER_CHARGES


@<TRIPOS>ATOM
      1 C1         -2.5700   -0.0203   -0.4400 C.3        1 <1>        0.000
      2 C2         -2.5992   -1.5690   -0.4468 C.3        1 <1>        0.000
      3 C3         -3.7083    0.3187    0.5501 C.3        1 <1>        0.000
      4 C5         -3.7478   -1.8733    0.5429 C.3        1 <1>        0.000
      5 O1         -3.6009   -0.7825    1.4490 O.3        1 <1>        0.000
      6 C7         -5.0862    0.0236   -0.0868 C.3        1 <1>        0.000
      7 C9         -5.1146   -1.5250   -0.0907 C.3        1 <1>        0.000
      8 H          -2.7122    0.4184   -1.4277 H.spc      1 <1>        0.000
      9 H          -1.6049    0.3919   -0.1455 H.spc      1 <1>        0.000
     10 H          -1.6498   -2.0199   -0.1581 H.spc      1 <1>        0.000
     11 H          -2.7596   -1.9934   -1.4379 H.spc      1 <1>        0.000
     12 H          -3.6394    1.3433    0.9154 H.spc      1 <1>        0.000
     13 H          -3.7147   -2.9020    0.9018 H.spc      1 <1>        0.000
     14 H          -5.9181    0.4691    0.4587 H.spc      1 <1>        0.000
     15 H          -5.2056    0.4599   -1.0785 H.spc      1 <1>        0.000
     16 H          -5.2510   -1.9517   -1.0844 H.spc      1 <1>        0.000
     17 H          -5.9616   -1.9426    0.4536 H.spc      1 <1>        0.000
@<TRIPOS>BOND
     1    6    7 1  
     2    4    7 1  
     3    4    5 1  
     4    1    2 1  
     5    1    3 1  
     6    2    4 1  
     7    3    5 1  
     8    3    6 1  
     9    1    8 1  
    10    1    9 1  
    11    2   10 1  
    12    2   11 1  
    13    3   12 1  
    14    4   13 1  
    15    6   14 1  
    16    6   15 1  
    17    7   16 1  
    18    7   17 1  
# Name:          frag4-480-91/150395 -- energy: -1.385084
# Creation time: Sat Jun  5 12:53:38 2010


@<TRIPOS>MOLECULE
frag4-480-91/150395 -- energy: -1.385084
   17    18     1     1     1
SMALL
USER_CHARGES


@<TRIPOS>ATOM
      1 C1         -2.5700   -0.0203   -0.4400 C.3        1 <1>        0.000
      2 C2         -2.5992   -1.5690   -0.4468 C.3        1 <1>        0.000
      3 C3         -3.7083    0.3187    0.5501 C.3        1 <1>        0.000
      4 C5         -3.7478   -1.8733    0.5429 C.3        1 <1>        0.000
      5 O1         -3.6009   -0.7825    1.4490 O.3        1 <1>        0.000
      6 C7         -5.0862    0.0236   -0.0868 C.3        1 <1>        0.000
      7 C9         -5.1146   -1.5250   -0.0907 C.3        1 <1>        0.000
      8 H          -2.7122    0.4184   -1.4277 H.spc      1 <1>        0.000
      9 H          -1.6049    0.3919   -0.1455 H.spc      1 <1>        0.000
     10 H          -1.6498   -2.0199   -0.1581 H.spc      1 <1>        0.000
     11 H          -2.7596   -1.9934   -1.4379 H.spc      1 <1>        0.000
     12 H          -3.6394    1.3433    0.9154 H.spc      1 <1>        0.000
     13 H          -3.7147   -2.9020    0.9018 H.spc      1 <1>        0.000
     14 H          -5.9181    0.4691    0.4587 H.spc      1 <1>        0.000
     15 H          -5.2056    0.4599   -1.0785 H.spc      1 <1>        0.000
     16 H          -5.2510   -1.9517   -1.0844 H.spc      1 <1>        0.000
     17 H          -5.9616   -1.9426    0.4536 H.spc      1 <1>        0.000
@<TRIPOS>BOND
     1    6    7 1  
     2    4    7 1  
     3    4    5 1  
     4    1    2 1  
     5    1    3 1  
     6    2    4 1  
     7    3    5 1  
     8    3    6 1  
     9    1    8 1  
    10    1    9 1  
    11    2   10 1  
    12    2   11 1  
    13    3   12 1  
    14    4   13 1  
    15    6   14 1  
    16    6   15 1  
    17    7   16 1  
    18    7   17 1  
