#      Rotatable Fragment
#      Build by yxyuan
#
# Name:          frag2-070-8/319335
# Creation time: Sat Jun  5 12:51:56 2010


@<TRIPOS>MOLECULE
frag2-070-8/319335
   15    16     1     1     1
SMALL
USER_CHARGES


@<TRIPOS>ATOM
      1 C1         -0.0717   -0.7078   -0.0704 C.ar       1 <1>        0.000
      2 C2         -1.2825   -1.3912   -0.1284 C.ar       1 <1>        0.000
      3 C3         -0.1122    0.6966    0.0706 C.ar       1 <1>        0.000
      4 C4          1.1786   -1.3312   -0.1428 C.ar       1 <1>        0.000
      5 N2         -2.4505   -0.7275   -0.0519 N.ar       1 <1>        0.000
      6 N3         -1.3150    1.3126    0.1420 N.ar       1 <1>        0.000
      7 C5          1.0846    1.3979    0.1308 C.ar       1 <1>        0.000
      8 N4          2.3178   -0.6144   -0.0813 N.ar       1 <1>        0.000
      9 C7         -2.4599    0.6184    0.0825 C.ar       1 <1>        0.000
     10 C8          2.2894    0.7333    0.0538 C.ar       1 <1>        0.000
     11 H          -1.2848   -2.4758   -0.2370 H.spc      1 <1>        0.000
     12 H           1.2320   -2.4145   -0.2507 H.spc      1 <1>        0.000
     13 H           1.0711    2.4824    0.2398 H.spc      1 <1>        0.000
     14 H          -3.4119    1.1458    0.1433 H.spc      1 <1>        0.000
     15 H           3.2229    1.2940    0.1018 H.spc      1 <1>        0.000
@<TRIPOS>BOND
     1    8   10 ar 
     2    1    4 ar 
     3    1    2 ar 
     4    1    3 ar 
     5    2    5 ar 
     6    3    6 ar 
     7    3    7 ar 
     8    4    8 ar 
     9    5    9 ar 
    10    6    9 ar 
    11    7   10 ar 
    12    2   11 1  
    13    4   12 1  
    14    7   13 1  
    15    9   14 1  
    16   10   15 1  
# Name:          frag2-070-8/319335 -- energy: 0.153392
# Creation time: Sat Jun  5 12:51:56 2010


@<TRIPOS>MOLECULE
frag2-070-8/319335 -- energy: 0.153392
   15    16     1     1     1
SMALL
USER_CHARGES


@<TRIPOS>ATOM
      1 C1         -0.0717   -0.7078   -0.0704 C.ar       1 <1>        0.000
      2 C2         -1.2825   -1.3912   -0.1284 C.ar       1 <1>        0.000
      3 C3         -0.1122    0.6966    0.0706 C.ar       1 <1>        0.000
      4 C4          1.1786   -1.3312   -0.1428 C.ar       1 <1>        0.000
      5 N2         -2.4505   -0.7275   -0.0519 N.ar       1 <1>        0.000
      6 N3         -1.3150    1.3126    0.1420 N.ar       1 <1>        0.000
      7 C5          1.0846    1.3979    0.1308 C.ar       1 <1>        0.000
      8 N4          2.3178   -0.6144   -0.0813 N.ar       1 <1>        0.000
      9 C7         -2.4599    0.6184    0.0825 C.ar       1 <1>        0.000
     10 C8          2.2894    0.7333    0.0538 C.ar       1 <1>        0.000
     11 H          -1.2848   -2.4758   -0.2370 H.spc      1 <1>        0.000
     12 H           1.2320   -2.4145   -0.2507 H.spc      1 <1>        0.000
     13 H           1.0711    2.4824    0.2398 H.spc      1 <1>        0.000
     14 H          -3.4119    1.1458    0.1433 H.spc      1 <1>        0.000
     15 H           3.2229    1.2940    0.1018 H.spc      1 <1>        0.000
@<TRIPOS>BOND
     1    8   10 ar 
     2    1    4 ar 
     3    1    2 ar 
     4    1    3 ar 
     5    2    5 ar 
     6    3    6 ar 
     7    3    7 ar 
     8    4    8 ar 
     9    5    9 ar 
    10    6    9 ar 
    11    7   10 ar 
    12    2   11 1  
    13    4   12 1  
    14    7   13 1  
    15    9   14 1  
    16   10   15 1  
