#      Rotatable Fragment
#      Build by yxyuan
#
# Name:          frag4-304-1587/150395
# Creation time: Sat Jun  5 12:53:30 2010


@<TRIPOS>MOLECULE
frag4-304-1587/150395
   17    17     1     1     1
SMALL
USER_CHARGES


@<TRIPOS>ATOM
      1 C4          0.0133   -0.3493    0.4396 C.3        1 <1>        0.000
      2 C8         -1.2630   -1.0232   -0.0890 C.3        1 <1>        0.000
      3 C9          1.2741   -1.0034   -0.1496 C.3        1 <1>        0.000
      4 C16        -1.2006   -2.5440    0.1393 C.3        1 <1>        0.000
      5 C17         1.2557   -2.5223    0.0922 C.3        1 <1>        0.000
      6 N2          0.0228   -3.1162   -0.4284 N.3        1 <1>        0.000
      7 H          -0.0020    0.7008    0.1479 H.spc      1 <1>        0.000
      8 H           0.0400   -0.4579    1.5239 H.spc      1 <1>        0.000
      9 H          -1.3510   -0.8279   -1.1577 H.spc      1 <1>        0.000
     10 H          -2.1242   -0.6193    0.4432 H.spc      1 <1>        0.000
     11 H           2.1531   -0.5782    0.3348 H.spc      1 <1>        0.000
     12 H           1.3018   -0.8159   -1.2230 H.spc      1 <1>        0.000
     13 H          -1.2081   -2.7349    1.2124 H.spc      1 <1>        0.000
     14 H          -2.0591   -3.0044   -0.3498 H.spc      1 <1>        0.000
     15 H           2.1062   -2.9705   -0.4215 H.spc      1 <1>        0.000
     16 H           1.3100   -2.7083    1.1648 H.spc      1 <1>        0.000
     17 H           0.0021   -2.9386   -1.4326 H.spc      1 <1>        0.000
@<TRIPOS>BOND
     1    4    6 1  
     2    5    6 1  
     3    1    3 1  
     4    1    2 1  
     5    2    4 1  
     6    3    5 1  
     7    1    7 1  
     8    1    8 1  
     9    2    9 1  
    10    2   10 1  
    11    3   11 1  
    12    3   12 1  
    13    4   13 1  
    14    4   14 1  
    15    5   15 1  
    16    5   16 1  
    17    6   17 1  
# Name:          frag4-304-1587/150395 -- energy: -1.453046
# Creation time: Sat Jun  5 12:53:30 2010


@<TRIPOS>MOLECULE
frag4-304-1587/150395 -- energy: -1.453046
   17    17     1     1     1
SMALL
USER_CHARGES


@<TRIPOS>ATOM
      1 C4          0.0133   -0.3493    0.4396 C.3        1 <1>        0.000
      2 C8         -1.2630   -1.0232   -0.0890 C.3        1 <1>        0.000
      3 C9          1.2741   -1.0034   -0.1496 C.3        1 <1>        0.000
      4 C16        -1.2006   -2.5440    0.1393 C.3        1 <1>        0.000
      5 C17         1.2557   -2.5223    0.0922 C.3        1 <1>        0.000
      6 N2          0.0228   -3.1162   -0.4284 N.3        1 <1>        0.000
      7 H          -0.0020    0.7008    0.1479 H.spc      1 <1>        0.000
      8 H           0.0400   -0.4579    1.5239 H.spc      1 <1>        0.000
      9 H          -1.3510   -0.8279   -1.1577 H.spc      1 <1>        0.000
     10 H          -2.1242   -0.6193    0.4432 H.spc      1 <1>        0.000
     11 H           2.1531   -0.5782    0.3348 H.spc      1 <1>        0.000
     12 H           1.3018   -0.8159   -1.2230 H.spc      1 <1>        0.000
     13 H          -1.2081   -2.7349    1.2124 H.spc      1 <1>        0.000
     14 H          -2.0591   -3.0044   -0.3498 H.spc      1 <1>        0.000
     15 H           2.1062   -2.9705   -0.4215 H.spc      1 <1>        0.000
     16 H           1.3100   -2.7083    1.1648 H.spc      1 <1>        0.000
     17 H           0.0021   -2.9386   -1.4326 H.spc      1 <1>        0.000
@<TRIPOS>BOND
     1    4    6 1  
     2    5    6 1  
     3    1    3 1  
     4    1    2 1  
     5    2    4 1  
     6    3    5 1  
     7    1    7 1  
     8    1    8 1  
     9    2    9 1  
    10    2   10 1  
    11    3   11 1  
    12    3   12 1  
    13    4   13 1  
    14    4   14 1  
    15    5   15 1  
    16    5   16 1  
    17    6   17 1  
