#      Rotatable Fragment
#      Build by yxyuan
#
# Name:          frag3-266-2/31924
# Creation time: Sat Jun  5 12:52:41 2010


@<TRIPOS>MOLECULE
frag3-266-2/31924
    5     4     1     1     1
SMALL
USER_CHARGES


@<TRIPOS>ATOM
      1 S1          1.0911    0.2203   -0.6651 S.o        1 <1>        0.000
      2 O1          1.7186    1.5276   -0.3472 O.2        1 <1>        0.000
      3 S2         -0.7887    0.4856   -0.3661 S.3        1 <1>        0.000
      4 H           1.5778   -0.7577    0.0935 H.spc      1 <1>        0.000
      5 H          -1.4413   -0.6434   -0.6277 H.spc      1 <1>        0.000
@<TRIPOS>BOND
     1    1    2 2  
     2    1    3 1  
     3    1    4 1  
     4    3    5 1  
# Name:          frag3-266-2/31924 -- energy: -0.016197
# Creation time: Sat Jun  5 12:52:41 2010


@<TRIPOS>MOLECULE
frag3-266-2/31924 -- energy: -0.016197
    5     4     1     1     1
SMALL
USER_CHARGES


@<TRIPOS>ATOM
      1 S1          1.0911    0.2203   -0.6651 S.o        1 <1>        0.000
      2 O1          1.7186    1.5276   -0.3472 O.2        1 <1>        0.000
      3 S2         -0.7887    0.4856   -0.3661 S.3        1 <1>        0.000
      4 H           1.5778   -0.7577    0.0935 H.spc      1 <1>        0.000
      5 H          -1.4413   -0.6434   -0.6277 H.spc      1 <1>        0.000
@<TRIPOS>BOND
     1    1    2 2  
     2    1    3 1  
     3    1    4 1  
     4    3    5 1  
