#      Rotatable Fragment
#      Build by yxyuan
#
# Name:          frag5-567-150/138278
# Creation time: Sat Jun  5 12:53:44 2010


@<TRIPOS>MOLECULE
frag5-567-150/138278
   19    20     1     1     1
SMALL
USER_CHARGES


@<TRIPOS>ATOM
      1 C1          1.2762   -0.0396   -0.0654 C.3        1 <1>        0.000
      2 C2         -0.1828    0.0128   -0.0253 C.ar       1 <1>        0.000
      3 N1          2.1238   -0.9116    0.6355 N.2        1 <1>        0.000
      4 O1          1.9998    0.7848   -0.8251 O.3        1 <1>        0.000
      5 C3         -0.8663    1.2366   -0.1704 C.ar       1 <1>        0.000
      6 C4         -0.9568   -1.1400    0.1553 C.ar       1 <1>        0.000
      7 C5          3.3083   -0.5599    0.3237 C.2        1 <1>        0.000
      8 C6          3.2058    0.2993   -0.8613 C.2        1 <1>        0.000
      9 C7         -2.2666    1.2991   -0.1369 C.ar       1 <1>        0.000
     10 C8         -2.3556   -1.0857    0.1895 C.ar       1 <1>        0.000
     11 C11        -3.0026    0.1349    0.0433 C.ar       1 <1>        0.000
     12 H           0.2518   -0.2655    0.2306 H.spc      1 <1>        0.000
     13 H          -0.2944    2.1537   -0.3116 H.spc      1 <1>        0.000
     14 H          -0.4587   -2.1025    0.2720 H.spc      1 <1>        0.000
     15 H           4.2252   -0.8439    0.8402 H.spc      1 <1>        0.000
     16 H           3.9745    0.4896   -1.6103 H.spc      1 <1>        0.000
     17 H          -2.7751    2.2564   -0.2517 H.spc      1 <1>        0.000
     18 H          -2.9349   -1.9982    0.3304 H.spc      1 <1>        0.000
     19 H          -4.0914    0.1792    0.0701 H.spc      1 <1>        0.000
@<TRIPOS>BOND
     1    7    8 1  
     2   10   11 ar 
     3    9   11 ar 
     4    6   10 ar 
     5    1    2 1  
     6    1    3 1  
     7    1    4 1  
     8    2    5 ar 
     9    2    6 ar 
    10    3    7 2  
    11    4    8 2  
    12    5    9 ar 
    13    1   12 1  
    14    5   13 1  
    15    6   14 1  
    16    7   15 1  
    17    8   16 1  
    18    9   17 1  
    19   10   18 1  
    20   11   19 1  
# Name:          frag5-567-150/138278
# Creation time: Sat Jun  5 12:53:44 2010


@<TRIPOS>MOLECULE
frag5-567-150/138278
   19    20     1     1     1
SMALL
USER_CHARGES


@<TRIPOS>ATOM
      1 C1          1.2749   -0.0505   -0.0830 C.3        1 <1>        0.000
      2 C2         -0.1835    0.0175   -0.0432 C.ar       1 <1>        0.000
      3 N1          2.0519   -1.2059   -0.2592 N.2        1 <1>        0.000
      4 O1          2.0675    1.0140    0.0542 O.3        1 <1>        0.000
      5 C3         -0.9317   -0.9300    0.6838 C.ar       1 <1>        0.000
      6 C4         -0.8931    1.0186   -0.7177 C.ar       1 <1>        0.000
      7 C5          3.2631   -0.8188   -0.1730 C.2        1 <1>        0.000
      8 C6          3.2601    0.6422   -0.3081 C.2        1 <1>        0.000
      9 C7         -2.3318   -0.8731    0.7320 C.ar       1 <1>        0.000
     10 C8         -2.2913    1.0821   -0.6740 C.ar       1 <1>        0.000
     11 C11        -3.0028    0.1347    0.0512 C.ar       1 <1>        0.000
     12 H           0.1962   -0.2034   -0.1158 H.spc      1 <1>        0.000
     13 H          -0.4111   -1.7236    1.2198 H.spc      1 <1>        0.000
     14 H          -0.3441    1.7662   -1.2903 H.spc      1 <1>        0.000
     15 H           4.1369   -1.4537   -0.0265 H.spc      1 <1>        0.000
     16 H           4.0803    1.2786   -0.6404 H.spc      1 <1>        0.000
     17 H          -2.8909   -1.6160    1.3009 H.spc      1 <1>        0.000
     18 H          -2.8197    1.8724   -1.2073 H.spc      1 <1>        0.000
     19 H          -4.0912    0.1823    0.0861 H.spc      1 <1>        0.000
@<TRIPOS>BOND
     1    7    8 1  
     2   10   11 ar 
     3    9   11 ar 
     4    6   10 ar 
     5    1    2 1  
     6    1    3 1  
     7    1    4 1  
     8    2    5 ar 
     9    2    6 ar 
    10    3    7 2  
    11    4    8 2  
    12    5    9 ar 
    13    1   12 1  
    14    5   13 1  
    15    6   14 1  
    16    7   15 1  
    17    8   16 1  
    18    9   17 1  
    19   10   18 1  
    20   11   19 1  
