#      Rotatable Fragment
#      Build by yxyuan
#
# Name:          frag4-406-56/48856
# Creation time: Sat Jun  5 12:51:56 2010


@<TRIPOS>MOLECULE
frag4-406-56/48856
   17    17     1     1     1
SMALL
USER_CHARGES


@<TRIPOS>ATOM
      1 N1          3.4489    0.0497    1.3654 N.3        1 <1>        0.000
      2 C1          4.3461   -0.2697    0.3342 C.3        1 <1>        0.000
      3 C2          3.8447   -0.7229   -1.0000 C.3        1 <1>        0.000
      4 C3          2.3318   -0.7338   -1.1312 C.3        1 <1>        0.000
      5 C4          1.5494   -0.9885    0.1181 C.3        1 <1>        0.000
      6 C5          2.0685   -0.0392    1.1339 C.3        1 <1>        0.000
      7 H           3.6158    1.0377    1.5562 H.spc      1 <1>        0.000
      8 H           4.8988   -1.1276    0.7173 H.spc      1 <1>        0.000
      9 H           4.8556    0.6704    0.1228 H.spc      1 <1>        0.000
     10 H           4.1850   -1.7492   -1.1378 H.spc      1 <1>        0.000
     11 H           4.2248   -0.0191   -1.7404 H.spc      1 <1>        0.000
     12 H           2.0954   -1.5567   -1.8058 H.spc      1 <1>        0.000
     13 H           2.0524    0.2668   -1.4610 H.spc      1 <1>        0.000
     14 H           1.6647   -2.0203    0.4500 H.spc      1 <1>        0.000
     15 H           0.4827   -0.8395   -0.0495 H.spc      1 <1>        0.000
     16 H           1.7904    0.9448    0.7564 H.spc      1 <1>        0.000
     17 H           1.6551   -0.3950    2.0776 H.spc      1 <1>        0.000
@<TRIPOS>BOND
     1    1    2 1  
     2    1    6 1  
     3    2    3 1  
     4    3    4 1  
     5    4    5 1  
     6    5    6 1  
     7    1    7 1  
     8    2    8 1  
     9    2    9 1  
    10    3   10 1  
    11    3   11 1  
    12    4   12 1  
    13    4   13 1  
    14    5   14 1  
    15    5   15 1  
    16    6   16 1  
    17    6   17 1  
# Name:          frag4-406-56/48856 -- energy: -0.920564
# Creation time: Sat Jun  5 12:51:56 2010


@<TRIPOS>MOLECULE
frag4-406-56/48856 -- energy: -0.920564
   17    17     1     1     1
SMALL
USER_CHARGES


@<TRIPOS>ATOM
      1 N1          3.4489    0.0497    1.3654 N.3        1 <1>        0.000
      2 C1          4.3461   -0.2697    0.3342 C.3        1 <1>        0.000
      3 C2          3.8447   -0.7229   -1.0000 C.3        1 <1>        0.000
      4 C3          2.3318   -0.7338   -1.1312 C.3        1 <1>        0.000
      5 C4          1.5494   -0.9885    0.1181 C.3        1 <1>        0.000
      6 C5          2.0685   -0.0392    1.1339 C.3        1 <1>        0.000
      7 H           3.6158    1.0377    1.5562 H.spc      1 <1>        0.000
      8 H           4.8988   -1.1276    0.7173 H.spc      1 <1>        0.000
      9 H           4.8556    0.6704    0.1228 H.spc      1 <1>        0.000
     10 H           4.1850   -1.7492   -1.1378 H.spc      1 <1>        0.000
     11 H           4.2248   -0.0191   -1.7404 H.spc      1 <1>        0.000
     12 H           2.0954   -1.5567   -1.8058 H.spc      1 <1>        0.000
     13 H           2.0524    0.2668   -1.4610 H.spc      1 <1>        0.000
     14 H           1.6647   -2.0203    0.4500 H.spc      1 <1>        0.000
     15 H           0.4827   -0.8395   -0.0495 H.spc      1 <1>        0.000
     16 H           1.7904    0.9448    0.7564 H.spc      1 <1>        0.000
     17 H           1.6551   -0.3950    2.0776 H.spc      1 <1>        0.000
@<TRIPOS>BOND
     1    1    2 1  
     2    1    6 1  
     3    2    3 1  
     4    3    4 1  
     5    4    5 1  
     6    5    6 1  
     7    1    7 1  
     8    2    8 1  
     9    2    9 1  
    10    3   10 1  
    11    3   11 1  
    12    4   12 1  
    13    4   13 1  
    14    5   14 1  
    15    5   15 1  
    16    6   16 1  
    17    6   17 1  
