#      Rotatable Fragment
#      Build by yxyuan
#
# Name:          frag5-692-22/41815
# Creation time: Sat Jun  5 12:53:04 2010


@<TRIPOS>MOLECULE
frag5-692-22/41815
   21    21     1     1     1
SMALL
USER_CHARGES


@<TRIPOS>ATOM
      1 C1         -4.2425   -0.8831    0.9353 C.3        1 <1>        0.000
      2 C2         -3.0841    0.0780    1.0350 C.3        1 <1>        0.000
      3 O1         -2.2993    0.3020   -0.1451 O.3        1 <1>        0.000
      4 C3         -2.5985    1.3734   -0.9085 C.2        1 <1>        0.000
      5 C4         -2.3782    1.2494   -2.4064 C.3        1 <1>        0.000
      6 C5         -3.4711    0.5282   -3.1724 C.3        1 <1>        0.000
      7 C6         -4.7874    0.1709   -2.4739 C.3        1 <1>        0.000
      8 O2         -4.6658   -0.8071   -1.4488 O.3        1 <1>        0.000
      9 C7         -5.1063   -0.4901   -0.2243 C.2        1 <1>        0.000
     10 O3         -6.1262    0.1659   -0.0379 O.2        1 <1>        0.000
     11 O6         -3.0954    2.3837   -0.4518 O.2        1 <1>        0.000
     12 H          -4.8263   -0.8508    1.8552 H.spc      1 <1>        0.000
     13 H          -3.8674   -1.8957    0.7869 H.spc      1 <1>        0.000
     14 H          -3.5268    1.0439    1.2783 H.spc      1 <1>        0.000
     15 H          -2.4006   -0.3636    1.7602 H.spc      1 <1>        0.000
     16 H          -1.4692    0.6625   -2.5379 H.spc      1 <1>        0.000
     17 H          -2.3439    2.2656   -2.7993 H.spc      1 <1>        0.000
     18 H          -3.0312   -0.4341   -3.4341 H.spc      1 <1>        0.000
     19 H          -3.7600    1.2265   -3.9579 H.spc      1 <1>        0.000
     20 H          -5.4487   -0.2449   -3.2340 H.spc      1 <1>        0.000
     21 H          -5.1556    1.0822   -2.0027 H.spc      1 <1>        0.000
@<TRIPOS>BOND
     1    3    4 1  
     2    8    9 1  
     3    4    5 1  
     4    9   10 2  
     5    5    6 1  
     6    6    7 1  
     7    2    3 1  
     8    4   11 2  
     9    1    2 1  
    10    1    9 1  
    11    7    8 1  
    12    1   12 1  
    13    1   13 1  
    14    2   14 1  
    15    2   15 1  
    16    5   16 1  
    17    5   17 1  
    18    6   18 1  
    19    6   19 1  
    20    7   20 1  
    21    7   21 1  
# Name:          frag5-692-22/41815
# Creation time: Sat Jun  5 12:53:04 2010


@<TRIPOS>MOLECULE
frag5-692-22/41815
   21    21     1     1     1
SMALL
USER_CHARGES


@<TRIPOS>ATOM
      1 C1         -4.3607   -0.4694    1.0110 C.3        1 <1>        0.000
      2 C2         -3.3251    0.6319    1.1304 C.3        1 <1>        0.000
      3 O1         -3.1320    1.5093    0.0337 O.3        1 <1>        0.000
      4 C3         -2.3295    1.1236   -0.9793 C.2        1 <1>        0.000
      5 C4         -2.7759    1.6195   -2.3458 C.3        1 <1>        0.000
      6 C5         -4.2797    1.3519   -2.5134 C.3        1 <1>        0.000
      7 C6         -4.6573   -0.1332   -2.5905 C.3        1 <1>        0.000
      8 O2         -4.2757   -0.8520   -1.4276 O.3        1 <1>        0.000
      9 C7         -5.0520   -0.6110   -0.3290 C.2        1 <1>        0.000
     10 O3         -6.2538   -0.4267   -0.4312 O.2        1 <1>        0.000
     11 O6         -1.4133    0.3273   -0.8571 O.2        1 <1>        0.000
     12 H          -5.1439   -0.2240    1.7283 H.spc      1 <1>        0.000
     13 H          -3.8244   -1.4045    1.1723 H.spc      1 <1>        0.000
     14 H          -3.6807    1.2674    1.9415 H.spc      1 <1>        0.000
     15 H          -2.3736    0.1134    1.2484 H.spc      1 <1>        0.000
     16 H          -2.2219    1.0951   -3.1244 H.spc      1 <1>        0.000
     17 H          -2.5832    2.6892   -2.4278 H.spc      1 <1>        0.000
     18 H          -4.5814    1.8070   -3.4568 H.spc      1 <1>        0.000
     19 H          -4.7765    1.7620   -1.6341 H.spc      1 <1>        0.000
     20 H          -4.1349   -0.5693   -3.4420 H.spc      1 <1>        0.000
     21 H          -5.7410   -0.2002   -2.6868 H.spc      1 <1>        0.000
@<TRIPOS>BOND
     1    3    4 1  
     2    8    9 1  
     3    4    5 1  
     4    9   10 2  
     5    5    6 1  
     6    6    7 1  
     7    2    3 1  
     8    4   11 2  
     9    1    2 1  
    10    1    9 1  
    11    7    8 1  
    12    1   12 1  
    13    1   13 1  
    14    2   14 1  
    15    2   15 1  
    16    5   16 1  
    17    5   17 1  
    18    6   18 1  
    19    6   19 1  
    20    7   20 1  
    21    7   21 1  
# Name:          frag5-692-22/41815
# Creation time: Sat Jun  5 12:53:04 2010


@<TRIPOS>MOLECULE
frag5-692-22/41815
   21    21     1     1     1
SMALL
USER_CHARGES


@<TRIPOS>ATOM
      1 C1         -4.4459   -0.5073    0.9841 C.3        1 <1>        0.000
      2 C2         -3.1666    0.3155    0.9877 C.3        1 <1>        0.000
      3 O1         -2.3371    0.2599   -0.1440 O.3        1 <1>        0.000
      4 C3         -2.3315    1.3641   -0.9091 C.2        1 <1>        0.000
      5 C4         -2.6464    1.2245   -2.3750 C.3        1 <1>        0.000
      6 C5         -4.1336    1.1261   -2.6060 C.3        1 <1>        0.000
      7 C6         -4.7097   -0.2919   -2.6018 C.3        1 <1>        0.000
      8 O2         -4.4622   -1.0373   -1.4251 O.3        1 <1>        0.000
      9 C7         -5.1508   -0.6114   -0.3368 C.2        1 <1>        0.000
     10 O3         -6.3220   -0.2493   -0.4265 O.2        1 <1>        0.000
     11 O6         -2.1490    2.4783   -0.4465 O.2        1 <1>        0.000
     12 H          -5.1361   -0.0067    1.6631 H.spc      1 <1>        0.000
     13 H          -4.1605   -1.5219    1.2618 H.spc      1 <1>        0.000
     14 H          -3.4931    1.3534    1.0534 H.spc      1 <1>        0.000
     15 H          -2.5672   -0.0896    1.8030 H.spc      1 <1>        0.000
     16 H          -2.1754    0.3146   -2.7471 H.spc      1 <1>        0.000
     17 H          -2.2705    2.1044   -2.8971 H.spc      1 <1>        0.000
     18 H          -4.3207    1.5338   -3.5994 H.spc      1 <1>        0.000
     19 H          -4.6110    1.6571   -1.7825 H.spc      1 <1>        0.000
     20 H          -4.2287   -0.8282   -3.4198 H.spc      1 <1>        0.000
     21 H          -5.7916   -0.1911   -2.6874 H.spc      1 <1>        0.000
@<TRIPOS>BOND
     1    3    4 1  
     2    8    9 1  
     3    4    5 1  
     4    9   10 2  
     5    5    6 1  
     6    6    7 1  
     7    2    3 1  
     8    4   11 2  
     9    1    2 1  
    10    1    9 1  
    11    7    8 1  
    12    1   12 1  
    13    1   13 1  
    14    2   14 1  
    15    2   15 1  
    16    5   16 1  
    17    5   17 1  
    18    6   18 1  
    19    6   19 1  
    20    7   20 1  
    21    7   21 1  
# Name:          frag5-692-22/41815
# Creation time: Sat Jun  5 12:53:04 2010


@<TRIPOS>MOLECULE
frag5-692-22/41815
   21    21     1     1     1
SMALL
USER_CHARGES


@<TRIPOS>ATOM
      1 C1         -4.7310    0.2095    1.0401 C.3        1 <1>        0.000
      2 C2         -3.3049    0.7190    1.1716 C.3        1 <1>        0.000
      3 O1         -2.8011    1.5257    0.1330 O.3        1 <1>        0.000
      4 C3         -2.4043    0.8550   -0.9718 C.2        1 <1>        0.000
      5 C4         -2.5468    1.5710   -2.2695 C.3        1 <1>        0.000
      6 C5         -3.8227    1.2363   -3.0033 C.3        1 <1>        0.000
      7 C6         -4.6927    0.0804   -2.5412 C.3        1 <1>        0.000
      8 O2         -5.3350    0.3348   -1.3107 O.3        1 <1>        0.000
      9 C7         -5.0785   -0.4657   -0.2614 C.2        1 <1>        0.000
     10 O3         -5.0985   -1.6876   -0.3241 O.2        1 <1>        0.000
     11 O6         -2.0393   -0.3072   -0.9615 O.2        1 <1>        0.000
     12 H          -5.3752    1.0860    1.1099 H.spc      1 <1>        0.000
     13 H          -4.8581   -0.5439    1.8175 H.spc      1 <1>        0.000
     14 H          -3.3009    1.3503    2.0601 H.spc      1 <1>        0.000
     15 H          -2.6762   -0.1714    1.1812 H.spc      1 <1>        0.000
     16 H          -1.7141    1.2683   -2.9044 H.spc      1 <1>        0.000
     17 H          -2.5625    2.6395   -2.0547 H.spc      1 <1>        0.000
     18 H          -3.4919    0.9434   -3.9997 H.spc      1 <1>        0.000
     19 H          -4.4504    2.1171   -2.8684 H.spc      1 <1>        0.000
     20 H          -4.0485   -0.7886   -2.4073 H.spc      1 <1>        0.000
     21 H          -5.4652   -0.0767   -3.2939 H.spc      1 <1>        0.000
@<TRIPOS>BOND
     1    3    4 1  
     2    8    9 1  
     3    4    5 1  
     4    9   10 2  
     5    5    6 1  
     6    6    7 1  
     7    2    3 1  
     8    4   11 2  
     9    1    2 1  
    10    1    9 1  
    11    7    8 1  
    12    1   12 1  
    13    1   13 1  
    14    2   14 1  
    15    2   15 1  
    16    5   16 1  
    17    5   17 1  
    18    6   18 1  
    19    6   19 1  
    20    7   20 1  
    21    7   21 1  
# Name:          frag5-692-22/41815
# Creation time: Sat Jun  5 12:53:04 2010


@<TRIPOS>MOLECULE
frag5-692-22/41815
   21    21     1     1     1
SMALL
USER_CHARGES


@<TRIPOS>ATOM
      1 C1         -4.3072   -0.6779    0.8928 C.3        1 <1>        0.000
      2 C2         -3.1402    0.2771    0.9638 C.3        1 <1>        0.000
      3 O1         -2.3122    0.2896   -0.1734 O.3        1 <1>        0.000
      4 C3         -2.3862    1.3868   -0.9493 C.2        1 <1>        0.000
      5 C4         -2.4777    1.1878   -2.4377 C.3        1 <1>        0.000
      6 C5         -3.4652    0.1337   -2.8815 C.3        1 <1>        0.000
      7 C6         -4.9079    0.2364   -2.4245 C.3        1 <1>        0.000
      8 O2         -5.0981    0.5639   -1.0701 O.3        1 <1>        0.000
      9 C7         -5.2413   -0.5012   -0.2631 C.2        1 <1>        0.000
     10 O3         -6.0970   -1.3511   -0.4625 O.2        1 <1>        0.000
     11 O6         -2.4219    2.5262   -0.4932 O.2        1 <1>        0.000
     12 H          -4.8992   -0.5002    1.7906 H.spc      1 <1>        0.000
     13 H          -3.8775   -1.6739    0.7856 H.spc      1 <1>        0.000
     14 H          -3.5588    1.2790    1.0593 H.spc      1 <1>        0.000
     15 H          -2.5205   -0.0449    1.8007 H.spc      1 <1>        0.000
     16 H          -1.4940    0.8582   -2.7722 H.spc      1 <1>        0.000
     17 H          -2.8153    2.1336   -2.8615 H.spc      1 <1>        0.000
     18 H          -3.0985   -0.7953   -2.4450 H.spc      1 <1>        0.000
     19 H          -3.5076    0.2285   -3.9665 H.spc      1 <1>        0.000
     20 H          -5.3475   -0.7507   -2.5675 H.spc      1 <1>        0.000
     21 H          -5.3576    1.0435   -3.0028 H.spc      1 <1>        0.000
@<TRIPOS>BOND
     1    3    4 1  
     2    8    9 1  
     3    4    5 1  
     4    9   10 2  
     5    5    6 1  
     6    6    7 1  
     7    2    3 1  
     8    4   11 2  
     9    1    2 1  
    10    1    9 1  
    11    7    8 1  
    12    1   12 1  
    13    1   13 1  
    14    2   14 1  
    15    2   15 1  
    16    5   16 1  
    17    5   17 1  
    18    6   18 1  
    19    6   19 1  
    20    7   20 1  
    21    7   21 1  
# Name:          frag5-692-22/41815
# Creation time: Sat Jun  5 12:53:04 2010


@<TRIPOS>MOLECULE
frag5-692-22/41815
   21    21     1     1     1
SMALL
USER_CHARGES


@<TRIPOS>ATOM
      1 C1         -4.6760    0.3860    0.8284 C.3        1 <1>        0.000
      2 C2         -3.1827    0.1588    0.9438 C.3        1 <1>        0.000
      3 O1         -2.4751    0.1169   -0.2673 O.3        1 <1>        0.000
      4 C3         -2.4492    1.3329   -0.8196 C.2        1 <1>        0.000
      5 C4         -2.7597    1.4275   -2.2658 C.3        1 <1>        0.000
      6 C5         -3.4583    0.2615   -2.9388 C.3        1 <1>        0.000
      7 C6         -4.8786   -0.1975   -2.5910 C.3        1 <1>        0.000
      8 O2         -5.4316    0.3100   -1.4121 O.3        1 <1>        0.000
      9 C7         -5.1538   -0.4344   -0.3199 C.2        1 <1>        0.000
     10 O3         -5.1464   -1.6532   -0.2918 O.2        1 <1>        0.000
     11 O6         -2.2435    2.3629   -0.1649 O.2        1 <1>        0.000
     12 H          -4.8941    1.4415    0.6656 H.spc      1 <1>        0.000
     13 H          -5.1828    0.0942    1.7482 H.spc      1 <1>        0.000
     14 H          -2.7851    1.0057    1.5031 H.spc      1 <1>        0.000
     15 H          -3.0554   -0.8190    1.4083 H.spc      1 <1>        0.000
     16 H          -1.7906    1.5001   -2.7594 H.spc      1 <1>        0.000
     17 H          -3.4551    2.2624   -2.3521 H.spc      1 <1>        0.000
     18 H          -2.8486   -0.5910   -2.6395 H.spc      1 <1>        0.000
     19 H          -3.5599    0.6025   -3.9691 H.spc      1 <1>        0.000
     20 H          -4.8200   -1.2773   -2.4544 H.spc      1 <1>        0.000
     21 H          -5.5160    0.1601   -3.3997 H.spc      1 <1>        0.000
@<TRIPOS>BOND
     1    3    4 1  
     2    8    9 1  
     3    4    5 1  
     4    9   10 2  
     5    5    6 1  
     6    6    7 1  
     7    2    3 1  
     8    4   11 2  
     9    1    2 1  
    10    1    9 1  
    11    7    8 1  
    12    1   12 1  
    13    1   13 1  
    14    2   14 1  
    15    2   15 1  
    16    5   16 1  
    17    5   17 1  
    18    6   18 1  
    19    6   19 1  
    20    7   20 1  
    21    7   21 1  
# Name:          frag5-692-22/41815
# Creation time: Sat Jun  5 12:53:04 2010


@<TRIPOS>MOLECULE
frag5-692-22/41815
   21    21     1     1     1
SMALL
USER_CHARGES


@<TRIPOS>ATOM
      1 C1         -4.5658   -0.4222    1.0391 C.3        1 <1>        0.000
      2 C2         -3.4082    0.5373    1.1592 C.3        1 <1>        0.000
      3 O1         -2.4111    0.3544    0.1894 O.3        1 <1>        0.000
      4 C3         -2.4545    1.1977   -0.8625 C.2        1 <1>        0.000
      5 C4         -2.5786    0.6012   -2.2389 C.3        1 <1>        0.000
      6 C5         -3.8678    0.7927   -3.0074 C.3        1 <1>        0.000
      7 C6         -5.2302    0.4526   -2.4304 C.3        1 <1>        0.000
      8 O2         -5.3902    0.4629   -1.0394 O.3        1 <1>        0.000
      9 C7         -4.9091   -0.6262   -0.4054 C.2        1 <1>        0.000
     10 O3         -4.6358   -1.6832   -0.9760 O.2        1 <1>        0.000
     11 O6         -2.4033    2.4040   -0.7266 O.2        1 <1>        0.000
     12 H          -5.4303   -0.0107    1.5601 H.spc      1 <1>        0.000
     13 H          -4.2882   -1.3787    1.4819 H.spc      1 <1>        0.000
     14 H          -3.8072    1.5429    1.0265 H.spc      1 <1>        0.000
     15 H          -2.9474    0.3672    2.1322 H.spc      1 <1>        0.000
     16 H          -2.4995   -0.4752   -2.0868 H.spc      1 <1>        0.000
     17 H          -1.8188    1.1077   -2.8341 H.spc      1 <1>        0.000
     18 H          -3.7682    0.0946   -3.8386 H.spc      1 <1>        0.000
     19 H          -3.9180    1.8729   -3.1441 H.spc      1 <1>        0.000
     20 H          -5.4165   -0.5786   -2.7303 H.spc      1 <1>        0.000
     21 H          -5.8975    1.2316   -2.7990 H.spc      1 <1>        0.000
@<TRIPOS>BOND
     1    3    4 1  
     2    8    9 1  
     3    4    5 1  
     4    9   10 2  
     5    5    6 1  
     6    6    7 1  
     7    2    3 1  
     8    4   11 2  
     9    1    2 1  
    10    1    9 1  
    11    7    8 1  
    12    1   12 1  
    13    1   13 1  
    14    2   14 1  
    15    2   15 1  
    16    5   16 1  
    17    5   17 1  
    18    6   18 1  
    19    6   19 1  
    20    7   20 1  
    21    7   21 1  
# Name:          frag5-692-22/41815
# Creation time: Sat Jun  5 12:53:04 2010


@<TRIPOS>MOLECULE
frag5-692-22/41815
   21    21     1     1     1
SMALL
USER_CHARGES


@<TRIPOS>ATOM
      1 C1         -4.2182   -0.6150    0.8631 C.3        1 <1>        0.000
      2 C2         -3.5553    0.7249    1.1403 C.3        1 <1>        0.000
      3 O1         -2.3454    0.9209    0.4447 O.3        1 <1>        0.000
      4 C3         -2.3321    1.1400   -0.8842 C.2        1 <1>        0.000
      5 C4         -3.4623    1.8414   -1.5869 C.3        1 <1>        0.000
      6 C5         -4.0121    1.1968   -2.8346 C.3        1 <1>        0.000
      7 C6         -4.8242   -0.0714   -2.6511 C.3        1 <1>        0.000
      8 O2         -4.4532   -0.8806   -1.5635 O.3        1 <1>        0.000
      9 C7         -5.0480   -0.6229   -0.3849 C.2        1 <1>        0.000
     10 O3         -6.2411   -0.3340   -0.2975 O.2        1 <1>        0.000
     11 O6         -1.3629    0.7711   -1.5441 O.2        1 <1>        0.000
     12 H          -4.8820   -0.8321    1.6999 H.spc      1 <1>        0.000
     13 H          -3.4261   -1.3528    0.7352 H.spc      1 <1>        0.000
     14 H          -4.2463    1.5014    0.8122 H.spc      1 <1>        0.000
     15 H          -3.3249    0.7574    2.2052 H.spc      1 <1>        0.000
     16 H          -3.0585    2.8022   -1.9062 H.spc      1 <1>        0.000
     17 H          -4.2876    1.8547   -0.8750 H.spc      1 <1>        0.000
     18 H          -3.1449    0.9123   -3.4305 H.spc      1 <1>        0.000
     19 H          -4.6932    1.9266   -3.2723 H.spc      1 <1>        0.000
     20 H          -4.6686   -0.6701   -3.5485 H.spc      1 <1>        0.000
     21 H          -5.8510    0.2437   -2.4653 H.spc      1 <1>        0.000
@<TRIPOS>BOND
     1    3    4 1  
     2    8    9 1  
     3    4    5 1  
     4    9   10 2  
     5    5    6 1  
     6    6    7 1  
     7    2    3 1  
     8    4   11 2  
     9    1    2 1  
    10    1    9 1  
    11    7    8 1  
    12    1   12 1  
    13    1   13 1  
    14    2   14 1  
    15    2   15 1  
    16    5   16 1  
    17    5   17 1  
    18    6   18 1  
    19    6   19 1  
    20    7   20 1  
    21    7   21 1  
# Name:          frag5-692-22/41815
# Creation time: Sat Jun  5 12:53:04 2010


@<TRIPOS>MOLECULE
frag5-692-22/41815
   21    21     1     1     1
SMALL
USER_CHARGES


@<TRIPOS>ATOM
      1 C1         -4.0964   -0.4751    0.8141 C.3        1 <1>        0.000
      2 C2         -3.6921    0.9606    1.0405 C.3        1 <1>        0.000
      3 O1         -3.3042    1.7318   -0.0713 O.3        1 <1>        0.000
      4 C3         -2.3422    1.1780   -0.8430 C.2        1 <1>        0.000
      5 C4         -2.5674    1.1803   -2.3376 C.3        1 <1>        0.000
      6 C5         -3.7532    0.3845   -2.9005 C.3        1 <1>        0.000
      7 C6         -5.1822    0.5069   -2.3858 C.3        1 <1>        0.000
      8 O2         -5.4230    0.4533   -1.0090 O.3        1 <1>        0.000
      9 C7         -4.9655   -0.6493   -0.3881 C.2        1 <1>        0.000
     10 O3         -5.1709   -1.7815   -0.8048 O.2        1 <1>        0.000
     11 O6         -1.3577    0.5820   -0.4135 O.2        1 <1>        0.000
     12 H          -4.6626   -0.8037    1.6856 H.spc      1 <1>        0.000
     13 H          -3.1881   -1.0566    0.6563 H.spc      1 <1>        0.000
     14 H          -4.5847    1.4503    1.4298 H.spc      1 <1>        0.000
     15 H          -2.8077    0.9111    1.6757 H.spc      1 <1>        0.000
     16 H          -1.6807    0.7078   -2.7602 H.spc      1 <1>        0.000
     17 H          -2.7745    2.2195   -2.5931 H.spc      1 <1>        0.000
     18 H          -3.4941   -0.6437   -2.6482 H.spc      1 <1>        0.000
     19 H          -3.8322    0.7601   -3.9207 H.spc      1 <1>        0.000
     20 H          -5.6989   -0.3627   -2.7919 H.spc      1 <1>        0.000
     21 H          -5.5001    1.5058   -2.6844 H.spc      1 <1>        0.000
@<TRIPOS>BOND
     1    3    4 1  
     2    8    9 1  
     3    4    5 1  
     4    9   10 2  
     5    5    6 1  
     6    6    7 1  
     7    2    3 1  
     8    4   11 2  
     9    1    2 1  
    10    1    9 1  
    11    7    8 1  
    12    1   12 1  
    13    1   13 1  
    14    2   14 1  
    15    2   15 1  
    16    5   16 1  
    17    5   17 1  
    18    6   18 1  
    19    6   19 1  
    20    7   20 1  
    21    7   21 1  
# Name:          frag5-692-22/41815
# Creation time: Sat Jun  5 12:53:04 2010


@<TRIPOS>MOLECULE
frag5-692-22/41815
   21    21     1     1     1
SMALL
USER_CHARGES


@<TRIPOS>ATOM
      1 C1         -4.6715   -0.3819    0.9443 C.3        1 <1>        0.000
      2 C2         -3.9261    0.9233    0.9589 C.3        1 <1>        0.000
      3 O1         -2.6058    0.9132    0.4402 O.3        1 <1>        0.000
      4 C3         -2.2762    1.2982   -0.8040 C.2        1 <1>        0.000
      5 C4         -3.2510    1.6874   -1.8948 C.3        1 <1>        0.000
      6 C5         -3.8364    0.5849   -2.7424 C.3        1 <1>        0.000
      7 C6         -5.3057    0.2521   -2.5125 C.3        1 <1>        0.000
      8 O2         -5.7238   -0.0021   -1.1876 O.3        1 <1>        0.000
      9 C7         -4.9018   -0.7908   -0.4607 C.2        1 <1>        0.000
     10 O3         -4.2798   -1.7423   -0.9232 O.2        1 <1>        0.000
     11 O6         -1.0766    1.3293   -1.1172 O.2        1 <1>        0.000
     12 H          -5.6277   -0.2645    1.4542 H.spc      1 <1>        0.000
     13 H          -4.0863   -1.1449    1.4577 H.spc      1 <1>        0.000
     14 H          -4.4935    1.5986    0.3185 H.spc      1 <1>        0.000
     15 H          -3.8326    1.2022    2.0084 H.spc      1 <1>        0.000
     16 H          -2.6823    2.3125   -2.5833 H.spc      1 <1>        0.000
     17 H          -4.0987    2.1390   -1.3794 H.spc      1 <1>        0.000
     18 H          -3.2806   -0.3174   -2.4873 H.spc      1 <1>        0.000
     19 H          -3.7642    0.9288   -3.7742 H.spc      1 <1>        0.000
     20 H          -5.4823   -0.6758   -3.0564 H.spc      1 <1>        0.000
     21 H          -5.8573    1.1382   -2.8267 H.spc      1 <1>        0.000
@<TRIPOS>BOND
     1    3    4 1  
     2    8    9 1  
     3    4    5 1  
     4    9   10 2  
     5    5    6 1  
     6    6    7 1  
     7    2    3 1  
     8    4   11 2  
     9    1    2 1  
    10    1    9 1  
    11    7    8 1  
    12    1   12 1  
    13    1   13 1  
    14    2   14 1  
    15    2   15 1  
    16    5   16 1  
    17    5   17 1  
    18    6   18 1  
    19    6   19 1  
    20    7   20 1  
    21    7   21 1  
# Name:          frag5-692-22/41815 -- energy: -2.491925
# Creation time: Sat Jun  5 12:53:04 2010


@<TRIPOS>MOLECULE
frag5-692-22/41815 -- energy: -2.491925
   21    21     1     1     1
SMALL
USER_CHARGES


@<TRIPOS>ATOM
      1 C1         -4.2425   -0.8831    0.9353 C.3        1 <1>        0.000
      2 C2         -3.0841    0.0780    1.0350 C.3        1 <1>        0.000
      3 O1         -2.2993    0.3020   -0.1451 O.3        1 <1>        0.000
      4 C3         -2.5985    1.3734   -0.9085 C.2        1 <1>        0.000
      5 C4         -2.3782    1.2494   -2.4064 C.3        1 <1>        0.000
      6 C5         -3.4711    0.5282   -3.1724 C.3        1 <1>        0.000
      7 C6         -4.7874    0.1709   -2.4739 C.3        1 <1>        0.000
      8 O2         -4.6658   -0.8071   -1.4488 O.3        1 <1>        0.000
      9 C7         -5.1063   -0.4901   -0.2243 C.2        1 <1>        0.000
     10 O3         -6.1262    0.1659   -0.0379 O.2        1 <1>        0.000
     11 O6         -3.0954    2.3837   -0.4518 O.2        1 <1>        0.000
     12 H          -4.8263   -0.8508    1.8552 H.spc      1 <1>        0.000
     13 H          -3.8674   -1.8957    0.7869 H.spc      1 <1>        0.000
     14 H          -3.5268    1.0439    1.2783 H.spc      1 <1>        0.000
     15 H          -2.4006   -0.3636    1.7602 H.spc      1 <1>        0.000
     16 H          -1.4692    0.6625   -2.5379 H.spc      1 <1>        0.000
     17 H          -2.3439    2.2656   -2.7993 H.spc      1 <1>        0.000
     18 H          -3.0312   -0.4341   -3.4341 H.spc      1 <1>        0.000
     19 H          -3.7600    1.2265   -3.9579 H.spc      1 <1>        0.000
     20 H          -5.4487   -0.2449   -3.2340 H.spc      1 <1>        0.000
     21 H          -5.1556    1.0822   -2.0027 H.spc      1 <1>        0.000
@<TRIPOS>BOND
     1    3    4 1  
     2    8    9 1  
     3    4    5 1  
     4    9   10 2  
     5    5    6 1  
     6    6    7 1  
     7    2    3 1  
     8    4   11 2  
     9    1    2 1  
    10    1    9 1  
    11    7    8 1  
    12    1   12 1  
    13    1   13 1  
    14    2   14 1  
    15    2   15 1  
    16    5   16 1  
    17    5   17 1  
    18    6   18 1  
    19    6   19 1  
    20    7   20 1  
    21    7   21 1  
# Name:          frag5-692-22/41815 -- energy: -2.511363
# Creation time: Sat Jun  5 12:53:04 2010


@<TRIPOS>MOLECULE
frag5-692-22/41815 -- energy: -2.511363
   21    21     1     1     1
SMALL
USER_CHARGES


@<TRIPOS>ATOM
      1 C1         -4.3607   -0.4694    1.0110 C.3        1 <1>        0.000
      2 C2         -3.3251    0.6319    1.1304 C.3        1 <1>        0.000
      3 O1         -3.1320    1.5093    0.0337 O.3        1 <1>        0.000
      4 C3         -2.3295    1.1236   -0.9793 C.2        1 <1>        0.000
      5 C4         -2.7759    1.6195   -2.3458 C.3        1 <1>        0.000
      6 C5         -4.2797    1.3519   -2.5134 C.3        1 <1>        0.000
      7 C6         -4.6573   -0.1332   -2.5905 C.3        1 <1>        0.000
      8 O2         -4.2757   -0.8520   -1.4276 O.3        1 <1>        0.000
      9 C7         -5.0520   -0.6110   -0.3290 C.2        1 <1>        0.000
     10 O3         -6.2538   -0.4267   -0.4312 O.2        1 <1>        0.000
     11 O6         -1.4133    0.3273   -0.8571 O.2        1 <1>        0.000
     12 H          -5.1439   -0.2240    1.7283 H.spc      1 <1>        0.000
     13 H          -3.8244   -1.4045    1.1723 H.spc      1 <1>        0.000
     14 H          -3.6807    1.2674    1.9415 H.spc      1 <1>        0.000
     15 H          -2.3736    0.1134    1.2484 H.spc      1 <1>        0.000
     16 H          -2.2219    1.0951   -3.1244 H.spc      1 <1>        0.000
     17 H          -2.5832    2.6892   -2.4278 H.spc      1 <1>        0.000
     18 H          -4.5814    1.8070   -3.4568 H.spc      1 <1>        0.000
     19 H          -4.7765    1.7620   -1.6341 H.spc      1 <1>        0.000
     20 H          -4.1349   -0.5693   -3.4420 H.spc      1 <1>        0.000
     21 H          -5.7410   -0.2002   -2.6868 H.spc      1 <1>        0.000
@<TRIPOS>BOND
     1    3    4 1  
     2    8    9 1  
     3    4    5 1  
     4    9   10 2  
     5    5    6 1  
     6    6    7 1  
     7    2    3 1  
     8    4   11 2  
     9    1    2 1  
    10    1    9 1  
    11    7    8 1  
    12    1   12 1  
    13    1   13 1  
    14    2   14 1  
    15    2   15 1  
    16    5   16 1  
    17    5   17 1  
    18    6   18 1  
    19    6   19 1  
    20    7   20 1  
    21    7   21 1  
# Name:          frag5-692-22/41815 -- energy: -2.485726
# Creation time: Sat Jun  5 12:53:04 2010


@<TRIPOS>MOLECULE
frag5-692-22/41815 -- energy: -2.485726
   21    21     1     1     1
SMALL
USER_CHARGES


@<TRIPOS>ATOM
      1 C1         -4.4459   -0.5073    0.9841 C.3        1 <1>        0.000
      2 C2         -3.1666    0.3155    0.9877 C.3        1 <1>        0.000
      3 O1         -2.3371    0.2599   -0.1440 O.3        1 <1>        0.000
      4 C3         -2.3315    1.3641   -0.9091 C.2        1 <1>        0.000
      5 C4         -2.6464    1.2245   -2.3750 C.3        1 <1>        0.000
      6 C5         -4.1336    1.1261   -2.6060 C.3        1 <1>        0.000
      7 C6         -4.7097   -0.2919   -2.6018 C.3        1 <1>        0.000
      8 O2         -4.4622   -1.0373   -1.4251 O.3        1 <1>        0.000
      9 C7         -5.1508   -0.6114   -0.3368 C.2        1 <1>        0.000
     10 O3         -6.3220   -0.2493   -0.4265 O.2        1 <1>        0.000
     11 O6         -2.1490    2.4783   -0.4465 O.2        1 <1>        0.000
     12 H          -5.1361   -0.0067    1.6631 H.spc      1 <1>        0.000
     13 H          -4.1605   -1.5219    1.2618 H.spc      1 <1>        0.000
     14 H          -3.4931    1.3534    1.0534 H.spc      1 <1>        0.000
     15 H          -2.5672   -0.0896    1.8030 H.spc      1 <1>        0.000
     16 H          -2.1754    0.3146   -2.7471 H.spc      1 <1>        0.000
     17 H          -2.2705    2.1044   -2.8971 H.spc      1 <1>        0.000
     18 H          -4.3207    1.5338   -3.5994 H.spc      1 <1>        0.000
     19 H          -4.6110    1.6571   -1.7825 H.spc      1 <1>        0.000
     20 H          -4.2287   -0.8282   -3.4198 H.spc      1 <1>        0.000
     21 H          -5.7916   -0.1911   -2.6874 H.spc      1 <1>        0.000
@<TRIPOS>BOND
     1    3    4 1  
     2    8    9 1  
     3    4    5 1  
     4    9   10 2  
     5    5    6 1  
     6    6    7 1  
     7    2    3 1  
     8    4   11 2  
     9    1    2 1  
    10    1    9 1  
    11    7    8 1  
    12    1   12 1  
    13    1   13 1  
    14    2   14 1  
    15    2   15 1  
    16    5   16 1  
    17    5   17 1  
    18    6   18 1  
    19    6   19 1  
    20    7   20 1  
    21    7   21 1  
# Name:          frag5-692-22/41815 -- energy: -2.589512
# Creation time: Sat Jun  5 12:53:04 2010


@<TRIPOS>MOLECULE
frag5-692-22/41815 -- energy: -2.589512
   21    21     1     1     1
SMALL
USER_CHARGES


@<TRIPOS>ATOM
      1 C1         -4.7310    0.2095    1.0401 C.3        1 <1>        0.000
      2 C2         -3.3049    0.7190    1.1716 C.3        1 <1>        0.000
      3 O1         -2.8011    1.5257    0.1330 O.3        1 <1>        0.000
      4 C3         -2.4043    0.8550   -0.9718 C.2        1 <1>        0.000
      5 C4         -2.5468    1.5710   -2.2695 C.3        1 <1>        0.000
      6 C5         -3.8227    1.2363   -3.0033 C.3        1 <1>        0.000
      7 C6         -4.6927    0.0804   -2.5412 C.3        1 <1>        0.000
      8 O2         -5.3350    0.3348   -1.3107 O.3        1 <1>        0.000
      9 C7         -5.0785   -0.4657   -0.2614 C.2        1 <1>        0.000
     10 O3         -5.0985   -1.6876   -0.3241 O.2        1 <1>        0.000
     11 O6         -2.0393   -0.3072   -0.9615 O.2        1 <1>        0.000
     12 H          -5.3752    1.0860    1.1099 H.spc      1 <1>        0.000
     13 H          -4.8581   -0.5439    1.8175 H.spc      1 <1>        0.000
     14 H          -3.3009    1.3503    2.0601 H.spc      1 <1>        0.000
     15 H          -2.6762   -0.1714    1.1812 H.spc      1 <1>        0.000
     16 H          -1.7141    1.2683   -2.9044 H.spc      1 <1>        0.000
     17 H          -2.5625    2.6395   -2.0547 H.spc      1 <1>        0.000
     18 H          -3.4919    0.9434   -3.9997 H.spc      1 <1>        0.000
     19 H          -4.4504    2.1171   -2.8684 H.spc      1 <1>        0.000
     20 H          -4.0485   -0.7886   -2.4073 H.spc      1 <1>        0.000
     21 H          -5.4652   -0.0767   -3.2939 H.spc      1 <1>        0.000
@<TRIPOS>BOND
     1    3    4 1  
     2    8    9 1  
     3    4    5 1  
     4    9   10 2  
     5    5    6 1  
     6    6    7 1  
     7    2    3 1  
     8    4   11 2  
     9    1    2 1  
    10    1    9 1  
    11    7    8 1  
    12    1   12 1  
    13    1   13 1  
    14    2   14 1  
    15    2   15 1  
    16    5   16 1  
    17    5   17 1  
    18    6   18 1  
    19    6   19 1  
    20    7   20 1  
    21    7   21 1  
# Name:          frag5-692-22/41815 -- energy: -2.380858
# Creation time: Sat Jun  5 12:53:04 2010


@<TRIPOS>MOLECULE
frag5-692-22/41815 -- energy: -2.380858
   21    21     1     1     1
SMALL
USER_CHARGES


@<TRIPOS>ATOM
      1 C1         -4.3072   -0.6779    0.8928 C.3        1 <1>        0.000
      2 C2         -3.1402    0.2771    0.9638 C.3        1 <1>        0.000
      3 O1         -2.3122    0.2896   -0.1734 O.3        1 <1>        0.000
      4 C3         -2.3862    1.3868   -0.9493 C.2        1 <1>        0.000
      5 C4         -2.4777    1.1878   -2.4377 C.3        1 <1>        0.000
      6 C5         -3.4652    0.1337   -2.8815 C.3        1 <1>        0.000
      7 C6         -4.9079    0.2364   -2.4245 C.3        1 <1>        0.000
      8 O2         -5.0981    0.5639   -1.0701 O.3        1 <1>        0.000
      9 C7         -5.2413   -0.5012   -0.2631 C.2        1 <1>        0.000
     10 O3         -6.0970   -1.3511   -0.4625 O.2        1 <1>        0.000
     11 O6         -2.4219    2.5262   -0.4932 O.2        1 <1>        0.000
     12 H          -4.8992   -0.5002    1.7906 H.spc      1 <1>        0.000
     13 H          -3.8775   -1.6739    0.7856 H.spc      1 <1>        0.000
     14 H          -3.5588    1.2790    1.0593 H.spc      1 <1>        0.000
     15 H          -2.5205   -0.0449    1.8007 H.spc      1 <1>        0.000
     16 H          -1.4940    0.8582   -2.7722 H.spc      1 <1>        0.000
     17 H          -2.8153    2.1336   -2.8615 H.spc      1 <1>        0.000
     18 H          -3.0985   -0.7953   -2.4450 H.spc      1 <1>        0.000
     19 H          -3.5076    0.2285   -3.9665 H.spc      1 <1>        0.000
     20 H          -5.3475   -0.7507   -2.5675 H.spc      1 <1>        0.000
     21 H          -5.3576    1.0435   -3.0028 H.spc      1 <1>        0.000
@<TRIPOS>BOND
     1    3    4 1  
     2    8    9 1  
     3    4    5 1  
     4    9   10 2  
     5    5    6 1  
     6    6    7 1  
     7    2    3 1  
     8    4   11 2  
     9    1    2 1  
    10    1    9 1  
    11    7    8 1  
    12    1   12 1  
    13    1   13 1  
    14    2   14 1  
    15    2   15 1  
    16    5   16 1  
    17    5   17 1  
    18    6   18 1  
    19    6   19 1  
    20    7   20 1  
    21    7   21 1  
# Name:          frag5-692-22/41815 -- energy: -1.915514
# Creation time: Sat Jun  5 12:53:04 2010


@<TRIPOS>MOLECULE
frag5-692-22/41815 -- energy: -1.915514
   21    21     1     1     1
SMALL
USER_CHARGES


@<TRIPOS>ATOM
      1 C1         -4.6760    0.3860    0.8284 C.3        1 <1>        0.000
      2 C2         -3.1827    0.1588    0.9438 C.3        1 <1>        0.000
      3 O1         -2.4751    0.1169   -0.2673 O.3        1 <1>        0.000
      4 C3         -2.4492    1.3329   -0.8196 C.2        1 <1>        0.000
      5 C4         -2.7597    1.4275   -2.2658 C.3        1 <1>        0.000
      6 C5         -3.4583    0.2615   -2.9388 C.3        1 <1>        0.000
      7 C6         -4.8786   -0.1975   -2.5910 C.3        1 <1>        0.000
      8 O2         -5.4316    0.3100   -1.4121 O.3        1 <1>        0.000
      9 C7         -5.1538   -0.4344   -0.3199 C.2        1 <1>        0.000
     10 O3         -5.1464   -1.6532   -0.2918 O.2        1 <1>        0.000
     11 O6         -2.2435    2.3629   -0.1649 O.2        1 <1>        0.000
     12 H          -4.8941    1.4415    0.6656 H.spc      1 <1>        0.000
     13 H          -5.1828    0.0942    1.7482 H.spc      1 <1>        0.000
     14 H          -2.7851    1.0057    1.5031 H.spc      1 <1>        0.000
     15 H          -3.0554   -0.8190    1.4083 H.spc      1 <1>        0.000
     16 H          -1.7906    1.5001   -2.7594 H.spc      1 <1>        0.000
     17 H          -3.4551    2.2624   -2.3521 H.spc      1 <1>        0.000
     18 H          -2.8486   -0.5910   -2.6395 H.spc      1 <1>        0.000
     19 H          -3.5599    0.6025   -3.9691 H.spc      1 <1>        0.000
     20 H          -4.8200   -1.2773   -2.4544 H.spc      1 <1>        0.000
     21 H          -5.5160    0.1601   -3.3997 H.spc      1 <1>        0.000
@<TRIPOS>BOND
     1    3    4 1  
     2    8    9 1  
     3    4    5 1  
     4    9   10 2  
     5    5    6 1  
     6    6    7 1  
     7    2    3 1  
     8    4   11 2  
     9    1    2 1  
    10    1    9 1  
    11    7    8 1  
    12    1   12 1  
    13    1   13 1  
    14    2   14 1  
    15    2   15 1  
    16    5   16 1  
    17    5   17 1  
    18    6   18 1  
    19    6   19 1  
    20    7   20 1  
    21    7   21 1  
# Name:          frag5-692-22/41815 -- energy: -2.456923
# Creation time: Sat Jun  5 12:53:04 2010


@<TRIPOS>MOLECULE
frag5-692-22/41815 -- energy: -2.456923
   21    21     1     1     1
SMALL
USER_CHARGES


@<TRIPOS>ATOM
      1 C1         -4.5658   -0.4222    1.0391 C.3        1 <1>        0.000
      2 C2         -3.4082    0.5373    1.1592 C.3        1 <1>        0.000
      3 O1         -2.4111    0.3544    0.1894 O.3        1 <1>        0.000
      4 C3         -2.4545    1.1977   -0.8625 C.2        1 <1>        0.000
      5 C4         -2.5786    0.6012   -2.2389 C.3        1 <1>        0.000
      6 C5         -3.8678    0.7927   -3.0074 C.3        1 <1>        0.000
      7 C6         -5.2302    0.4526   -2.4304 C.3        1 <1>        0.000
      8 O2         -5.3902    0.4629   -1.0394 O.3        1 <1>        0.000
      9 C7         -4.9091   -0.6262   -0.4054 C.2        1 <1>        0.000
     10 O3         -4.6358   -1.6832   -0.9760 O.2        1 <1>        0.000
     11 O6         -2.4033    2.4040   -0.7266 O.2        1 <1>        0.000
     12 H          -5.4303   -0.0107    1.5601 H.spc      1 <1>        0.000
     13 H          -4.2882   -1.3787    1.4819 H.spc      1 <1>        0.000
     14 H          -3.8072    1.5429    1.0265 H.spc      1 <1>        0.000
     15 H          -2.9474    0.3672    2.1322 H.spc      1 <1>        0.000
     16 H          -2.4995   -0.4752   -2.0868 H.spc      1 <1>        0.000
     17 H          -1.8188    1.1077   -2.8341 H.spc      1 <1>        0.000
     18 H          -3.7682    0.0946   -3.8386 H.spc      1 <1>        0.000
     19 H          -3.9180    1.8729   -3.1441 H.spc      1 <1>        0.000
     20 H          -5.4165   -0.5786   -2.7303 H.spc      1 <1>        0.000
     21 H          -5.8975    1.2316   -2.7990 H.spc      1 <1>        0.000
@<TRIPOS>BOND
     1    3    4 1  
     2    8    9 1  
     3    4    5 1  
     4    9   10 2  
     5    5    6 1  
     6    6    7 1  
     7    2    3 1  
     8    4   11 2  
     9    1    2 1  
    10    1    9 1  
    11    7    8 1  
    12    1   12 1  
    13    1   13 1  
    14    2   14 1  
    15    2   15 1  
    16    5   16 1  
    17    5   17 1  
    18    6   18 1  
    19    6   19 1  
    20    7   20 1  
    21    7   21 1  
# Name:          frag5-692-22/41815 -- energy: -1.149964
# Creation time: Sat Jun  5 12:53:04 2010


@<TRIPOS>MOLECULE
frag5-692-22/41815 -- energy: -1.149964
   21    21     1     1     1
SMALL
USER_CHARGES


@<TRIPOS>ATOM
      1 C1         -4.2182   -0.6150    0.8631 C.3        1 <1>        0.000
      2 C2         -3.5553    0.7249    1.1403 C.3        1 <1>        0.000
      3 O1         -2.3454    0.9209    0.4447 O.3        1 <1>        0.000
      4 C3         -2.3321    1.1400   -0.8842 C.2        1 <1>        0.000
      5 C4         -3.4623    1.8414   -1.5869 C.3        1 <1>        0.000
      6 C5         -4.0121    1.1968   -2.8346 C.3        1 <1>        0.000
      7 C6         -4.8242   -0.0714   -2.6511 C.3        1 <1>        0.000
      8 O2         -4.4532   -0.8806   -1.5635 O.3        1 <1>        0.000
      9 C7         -5.0480   -0.6229   -0.3849 C.2        1 <1>        0.000
     10 O3         -6.2411   -0.3340   -0.2975 O.2        1 <1>        0.000
     11 O6         -1.3629    0.7711   -1.5441 O.2        1 <1>        0.000
     12 H          -4.8820   -0.8321    1.6999 H.spc      1 <1>        0.000
     13 H          -3.4261   -1.3528    0.7352 H.spc      1 <1>        0.000
     14 H          -4.2463    1.5014    0.8122 H.spc      1 <1>        0.000
     15 H          -3.3249    0.7574    2.2052 H.spc      1 <1>        0.000
     16 H          -3.0585    2.8022   -1.9062 H.spc      1 <1>        0.000
     17 H          -4.2876    1.8547   -0.8750 H.spc      1 <1>        0.000
     18 H          -3.1449    0.9123   -3.4305 H.spc      1 <1>        0.000
     19 H          -4.6932    1.9266   -3.2723 H.spc      1 <1>        0.000
     20 H          -4.6686   -0.6701   -3.5485 H.spc      1 <1>        0.000
     21 H          -5.8510    0.2437   -2.4653 H.spc      1 <1>        0.000
@<TRIPOS>BOND
     1    3    4 1  
     2    8    9 1  
     3    4    5 1  
     4    9   10 2  
     5    5    6 1  
     6    6    7 1  
     7    2    3 1  
     8    4   11 2  
     9    1    2 1  
    10    1    9 1  
    11    7    8 1  
    12    1   12 1  
    13    1   13 1  
    14    2   14 1  
    15    2   15 1  
    16    5   16 1  
    17    5   17 1  
    18    6   18 1  
    19    6   19 1  
    20    7   20 1  
    21    7   21 1  
# Name:          frag5-692-22/41815 -- energy: -3.100185
# Creation time: Sat Jun  5 12:53:04 2010


@<TRIPOS>MOLECULE
frag5-692-22/41815 -- energy: -3.100185
   21    21     1     1     1
SMALL
USER_CHARGES


@<TRIPOS>ATOM
      1 C1         -4.0964   -0.4751    0.8141 C.3        1 <1>        0.000
      2 C2         -3.6921    0.9606    1.0405 C.3        1 <1>        0.000
      3 O1         -3.3042    1.7318   -0.0713 O.3        1 <1>        0.000
      4 C3         -2.3422    1.1780   -0.8430 C.2        1 <1>        0.000
      5 C4         -2.5674    1.1803   -2.3376 C.3        1 <1>        0.000
      6 C5         -3.7532    0.3845   -2.9005 C.3        1 <1>        0.000
      7 C6         -5.1822    0.5069   -2.3858 C.3        1 <1>        0.000
      8 O2         -5.4230    0.4533   -1.0090 O.3        1 <1>        0.000
      9 C7         -4.9655   -0.6493   -0.3881 C.2        1 <1>        0.000
     10 O3         -5.1709   -1.7815   -0.8048 O.2        1 <1>        0.000
     11 O6         -1.3577    0.5820   -0.4135 O.2        1 <1>        0.000
     12 H          -4.6626   -0.8037    1.6856 H.spc      1 <1>        0.000
     13 H          -3.1881   -1.0566    0.6563 H.spc      1 <1>        0.000
     14 H          -4.5847    1.4503    1.4298 H.spc      1 <1>        0.000
     15 H          -2.8077    0.9111    1.6757 H.spc      1 <1>        0.000
     16 H          -1.6807    0.7078   -2.7602 H.spc      1 <1>        0.000
     17 H          -2.7745    2.2195   -2.5931 H.spc      1 <1>        0.000
     18 H          -3.4941   -0.6437   -2.6482 H.spc      1 <1>        0.000
     19 H          -3.8322    0.7601   -3.9207 H.spc      1 <1>        0.000
     20 H          -5.6989   -0.3627   -2.7919 H.spc      1 <1>        0.000
     21 H          -5.5001    1.5058   -2.6844 H.spc      1 <1>        0.000
@<TRIPOS>BOND
     1    3    4 1  
     2    8    9 1  
     3    4    5 1  
     4    9   10 2  
     5    5    6 1  
     6    6    7 1  
     7    2    3 1  
     8    4   11 2  
     9    1    2 1  
    10    1    9 1  
    11    7    8 1  
    12    1   12 1  
    13    1   13 1  
    14    2   14 1  
    15    2   15 1  
    16    5   16 1  
    17    5   17 1  
    18    6   18 1  
    19    6   19 1  
    20    7   20 1  
    21    7   21 1  
# Name:          frag5-692-22/41815 -- energy: -2.337859
# Creation time: Sat Jun  5 12:53:04 2010


@<TRIPOS>MOLECULE
frag5-692-22/41815 -- energy: -2.337859
   21    21     1     1     1
SMALL
USER_CHARGES


@<TRIPOS>ATOM
      1 C1         -4.6715   -0.3819    0.9443 C.3        1 <1>        0.000
      2 C2         -3.9261    0.9233    0.9589 C.3        1 <1>        0.000
      3 O1         -2.6058    0.9132    0.4402 O.3        1 <1>        0.000
      4 C3         -2.2762    1.2982   -0.8040 C.2        1 <1>        0.000
      5 C4         -3.2510    1.6874   -1.8948 C.3        1 <1>        0.000
      6 C5         -3.8364    0.5849   -2.7424 C.3        1 <1>        0.000
      7 C6         -5.3057    0.2521   -2.5125 C.3        1 <1>        0.000
      8 O2         -5.7238   -0.0021   -1.1876 O.3        1 <1>        0.000
      9 C7         -4.9018   -0.7908   -0.4607 C.2        1 <1>        0.000
     10 O3         -4.2798   -1.7423   -0.9232 O.2        1 <1>        0.000
     11 O6         -1.0766    1.3293   -1.1172 O.2        1 <1>        0.000
     12 H          -5.6277   -0.2645    1.4542 H.spc      1 <1>        0.000
     13 H          -4.0863   -1.1449    1.4577 H.spc      1 <1>        0.000
     14 H          -4.4935    1.5986    0.3185 H.spc      1 <1>        0.000
     15 H          -3.8326    1.2022    2.0084 H.spc      1 <1>        0.000
     16 H          -2.6823    2.3125   -2.5833 H.spc      1 <1>        0.000
     17 H          -4.0987    2.1390   -1.3794 H.spc      1 <1>        0.000
     18 H          -3.2806   -0.3174   -2.4873 H.spc      1 <1>        0.000
     19 H          -3.7642    0.9288   -3.7742 H.spc      1 <1>        0.000
     20 H          -5.4823   -0.6758   -3.0564 H.spc      1 <1>        0.000
     21 H          -5.8573    1.1382   -2.8267 H.spc      1 <1>        0.000
@<TRIPOS>BOND
     1    3    4 1  
     2    8    9 1  
     3    4    5 1  
     4    9   10 2  
     5    5    6 1  
     6    6    7 1  
     7    2    3 1  
     8    4   11 2  
     9    1    2 1  
    10    1    9 1  
    11    7    8 1  
    12    1   12 1  
    13    1   13 1  
    14    2   14 1  
    15    2   15 1  
    16    5   16 1  
    17    5   17 1  
    18    6   18 1  
    19    6   19 1  
    20    7   20 1  
    21    7   21 1  
