#      Rotatable Fragment
#      Build by yxyuan
#
# Name:          frag5-530-269/138278
# Creation time: Sat Jun  5 12:53:41 2010


@<TRIPOS>MOLECULE
frag5-530-269/138278
   16    17     1     1     1
SMALL
USER_CHARGES


@<TRIPOS>ATOM
      1 C1          0.2073    0.7291   -0.0382 C.ar       1 <1>        0.000
      2 C2          0.3635   -0.6647    0.0514 C.ar       1 <1>        0.000
      3 C3          1.5857    1.3038   -0.0362 C.2        1 <1>        0.000
      4 C4         -1.0618    1.3190   -0.1097 C.ar       1 <1>        0.000
      5 C5          1.8345   -0.9166    0.1035 C.2        1 <1>        0.000
      6 C6         -0.7437   -1.5233    0.0760 C.ar       1 <1>        0.000
      7 N1          2.4987    0.2829    0.0494 N.am       1 <1>        0.000
      8 O1          1.7633    2.5080   -0.1034 O.2        1 <1>        0.000
      9 C7         -2.1986    0.4687   -0.0890 C.ar       1 <1>        0.000
     10 O2          2.2725   -2.0521    0.1809 O.2        1 <1>        0.000
     11 C8         -2.0399   -0.9487    0.0041 C.ar       1 <1>        0.000
     12 H          -1.1732    2.4011   -0.1793 H.spc      1 <1>        0.000
     13 H          -0.6133   -2.6030    0.1484 H.spc      1 <1>        0.000
     14 H           3.5120    0.3977    0.0696 H.spc      1 <1>        0.000
     15 H          -3.1984    0.8994   -0.1444 H.spc      1 <1>        0.000
     16 H          -2.9194   -1.5924    0.0200 H.spc      1 <1>        0.000
@<TRIPOS>BOND
     1    9   11 ar 
     2    6   11 ar 
     3    1    2 ar 
     4    1    3 1  
     5    1    4 ar 
     6    2    5 1  
     7    2    6 ar 
     8    3    7 am 
     9    3    8 2  
    10    4    9 ar 
    11    5   10 2  
    12    5    7 am 
    13    4   12 1  
    14    6   13 1  
    15    7   14 1  
    16    9   15 1  
    17   11   16 1  
# Name:          frag5-530-269/138278 -- energy: -0.996130
# Creation time: Sat Jun  5 12:53:41 2010


@<TRIPOS>MOLECULE
frag5-530-269/138278 -- energy: -0.996130
   16    17     1     1     1
SMALL
USER_CHARGES


@<TRIPOS>ATOM
      1 C1          0.2073    0.7291   -0.0382 C.ar       1 <1>        0.000
      2 C2          0.3635   -0.6647    0.0514 C.ar       1 <1>        0.000
      3 C3          1.5857    1.3038   -0.0362 C.2        1 <1>        0.000
      4 C4         -1.0618    1.3190   -0.1097 C.ar       1 <1>        0.000
      5 C5          1.8345   -0.9166    0.1035 C.2        1 <1>        0.000
      6 C6         -0.7437   -1.5233    0.0760 C.ar       1 <1>        0.000
      7 N1          2.4987    0.2829    0.0494 N.am       1 <1>        0.000
      8 O1          1.7633    2.5080   -0.1034 O.2        1 <1>        0.000
      9 C7         -2.1986    0.4687   -0.0890 C.ar       1 <1>        0.000
     10 O2          2.2725   -2.0521    0.1809 O.2        1 <1>        0.000
     11 C8         -2.0399   -0.9487    0.0041 C.ar       1 <1>        0.000
     12 H          -1.1732    2.4011   -0.1793 H.spc      1 <1>        0.000
     13 H          -0.6133   -2.6030    0.1484 H.spc      1 <1>        0.000
     14 H           3.5120    0.3977    0.0696 H.spc      1 <1>        0.000
     15 H          -3.1984    0.8994   -0.1444 H.spc      1 <1>        0.000
     16 H          -2.9194   -1.5924    0.0200 H.spc      1 <1>        0.000
@<TRIPOS>BOND
     1    9   11 ar 
     2    6   11 ar 
     3    1    2 ar 
     4    1    3 1  
     5    1    4 ar 
     6    2    5 1  
     7    2    6 ar 
     8    3    7 am 
     9    3    8 2  
    10    4    9 ar 
    11    5   10 2  
    12    5    7 am 
    13    4   12 1  
    14    6   13 1  
    15    7   14 1  
    16    9   15 1  
    17   11   16 1  
