#      Rotatable Fragment
#      Build by yxyuan
#
# Name:          frag4-330-195/48856
# Creation time: Sat Jun  5 12:52:50 2010


@<TRIPOS>MOLECULE
frag4-330-195/48856
   22    23     1     1     1
SMALL
USER_CHARGES


@<TRIPOS>ATOM
      1 N1          8.1050    6.1149   -4.4166 N.4        1 <1>        0.000
      2 C1          9.0101    5.1198   -3.8013 C.3        1 <1>        0.000
      3 C2         10.3050    4.8097   -4.5193 C.ar       1 <1>        0.000
      4 C3         10.4613    5.1265   -5.9023 C.ar       1 <1>        0.000
      5 C4         11.6719    4.8231   -6.5310 C.ar       1 <1>        0.000
      6 C5         12.7183    4.2244   -5.8431 C.ar       1 <1>        0.000
      7 C6         12.5695    3.9168   -4.4914 C.ar       1 <1>        0.000
      8 C7         11.3744    4.2084   -3.8474 C.ar       1 <1>        0.000
      9 C10         9.3457    5.7971   -6.6585 C.3        1 <1>        0.000
     10 C11         8.7354    6.7312   -5.6029 C.3        1 <1>        0.000
     11 H           7.9041    6.8450   -3.7332 H.spc      1 <1>        0.000
     12 H           7.2467    5.6457   -4.7056 H.spc      1 <1>        0.000
     13 H           9.3031    5.5456   -2.8416 H.spc      1 <1>        0.000
     14 H           8.4511    4.1841   -3.7902 H.spc      1 <1>        0.000
     15 H          11.7974    5.0624   -7.5870 H.spc      1 <1>        0.000
     16 H          13.6519    3.9958   -6.3572 H.spc      1 <1>        0.000
     17 H          13.3874    3.4497   -3.9428 H.spc      1 <1>        0.000
     18 H          11.2668    3.9624   -2.7910 H.spc      1 <1>        0.000
     19 H           9.6922    6.3272   -7.5457 H.spc      1 <1>        0.000
     20 H           8.6245    5.0897   -7.0680 H.spc      1 <1>        0.000
     21 H           7.9331    7.2626   -6.1147 H.spc      1 <1>        0.000
     22 H           9.5695    7.3171   -5.2168 H.spc      1 <1>        0.000
@<TRIPOS>BOND
     1    4    5 ar 
     2    3    4 ar 
     3    9   10 1  
     4    5    6 ar 
     5    3    8 ar 
     6    4    9 1  
     7    6    7 ar 
     8    2    3 1  
     9    1    2 1  
    10    1   10 1  
    11    7    8 ar 
    12    1   11 1  
    13    1   12 1  
    14    2   13 1  
    15    2   14 1  
    16    5   15 1  
    17    6   16 1  
    18    7   17 1  
    19    8   18 1  
    20    9   19 1  
    21    9   20 1  
    22   10   21 1  
    23   10   22 1  
# Name:          frag4-330-195/48856 -- energy: -1.222637
# Creation time: Sat Jun  5 12:52:50 2010


@<TRIPOS>MOLECULE
frag4-330-195/48856 -- energy: -1.222637
   22    23     1     1     1
SMALL
USER_CHARGES


@<TRIPOS>ATOM
      1 N1          8.1050    6.1149   -4.4166 N.4        1 <1>        0.000
      2 C1          9.0101    5.1198   -3.8013 C.3        1 <1>        0.000
      3 C2         10.3050    4.8097   -4.5193 C.ar       1 <1>        0.000
      4 C3         10.4613    5.1265   -5.9023 C.ar       1 <1>        0.000
      5 C4         11.6719    4.8231   -6.5310 C.ar       1 <1>        0.000
      6 C5         12.7183    4.2244   -5.8431 C.ar       1 <1>        0.000
      7 C6         12.5695    3.9168   -4.4914 C.ar       1 <1>        0.000
      8 C7         11.3744    4.2084   -3.8474 C.ar       1 <1>        0.000
      9 C10         9.3457    5.7971   -6.6585 C.3        1 <1>        0.000
     10 C11         8.7354    6.7312   -5.6029 C.3        1 <1>        0.000
     11 H           7.9041    6.8450   -3.7332 H.spc      1 <1>        0.000
     12 H           7.2467    5.6457   -4.7056 H.spc      1 <1>        0.000
     13 H           9.3031    5.5456   -2.8416 H.spc      1 <1>        0.000
     14 H           8.4511    4.1841   -3.7902 H.spc      1 <1>        0.000
     15 H          11.7974    5.0624   -7.5870 H.spc      1 <1>        0.000
     16 H          13.6519    3.9958   -6.3572 H.spc      1 <1>        0.000
     17 H          13.3874    3.4497   -3.9428 H.spc      1 <1>        0.000
     18 H          11.2668    3.9624   -2.7910 H.spc      1 <1>        0.000
     19 H           9.6922    6.3272   -7.5457 H.spc      1 <1>        0.000
     20 H           8.6245    5.0897   -7.0680 H.spc      1 <1>        0.000
     21 H           7.9331    7.2626   -6.1147 H.spc      1 <1>        0.000
     22 H           9.5695    7.3171   -5.2168 H.spc      1 <1>        0.000
@<TRIPOS>BOND
     1    4    5 ar 
     2    3    4 ar 
     3    9   10 1  
     4    5    6 ar 
     5    3    8 ar 
     6    4    9 1  
     7    6    7 ar 
     8    2    3 1  
     9    1    2 1  
    10    1   10 1  
    11    7    8 ar 
    12    1   11 1  
    13    1   12 1  
    14    2   13 1  
    15    2   14 1  
    16    5   15 1  
    17    6   16 1  
    18    7   17 1  
    19    8   18 1  
    20    9   19 1  
    21    9   20 1  
    22   10   21 1  
    23   10   22 1  
