#      Rotatable Fragment
#      Build by yxyuan
#
# Name:          frag5-548-63/41815
# Creation time: Sat Jun  5 12:52:53 2010


@<TRIPOS>MOLECULE
frag5-548-63/41815
   29    30     1     1     1
SMALL
USER_CHARGES


@<TRIPOS>ATOM
      1 C6          1.6232    0.2291    0.0572 C.3        1 <1>        0.000
      2 C7          2.8276    1.1144    0.4484 C.3        1 <1>        0.000
      3 C8          2.4465    2.1677    1.5109 C.3        1 <1>        0.000
      4 C9          3.6542    3.0418    1.8954 C.3        1 <1>        0.000
      5 C10         4.8225    2.1707    2.3956 C.3        1 <1>        0.000
      6 C11         5.2165    1.1244    1.3374 C.3        1 <1>        0.000
      7 C12         4.0140    0.2370    0.9438 C.3        1 <1>        0.000
      8 C13         4.3999   -0.8026   -0.1324 C.3        1 <1>        0.000
      9 C14         3.5018   -0.7087   -1.3808 C.3        1 <1>        0.000
     10 C15         2.0568   -0.7933   -0.9591 C.2        1 <1>        0.000
     11 C16         1.2225   -1.7194   -1.4510 C.2        1 <1>        0.000
     12 H           0.8382    0.8535   -0.3695 H.spc      1 <1>        0.000
     13 H           1.2446   -0.2796    0.9438 H.spc      1 <1>        0.000
     14 H           3.1410    1.6536   -0.4455 H.spc      1 <1>        0.000
     15 H           1.6713    2.8121    1.0964 H.spc      1 <1>        0.000
     16 H           2.0977    1.6481    2.4033 H.spc      1 <1>        0.000
     17 H           3.3561    3.7220    2.6933 H.spc      1 <1>        0.000
     18 H           3.9808    3.5967    1.0159 H.spc      1 <1>        0.000
     19 H           5.6811    2.8130    2.5914 H.spc      1 <1>        0.000
     20 H           4.5114    1.6530    3.3029 H.spc      1 <1>        0.000
     21 H           5.9946    0.4860    1.7558 H.spc      1 <1>        0.000
     22 H           5.5655    1.6478    0.4473 H.spc      1 <1>        0.000
     23 H           3.7026   -0.3083    1.8348 H.spc      1 <1>        0.000
     24 H           4.2796   -1.7968    0.2979 H.spc      1 <1>        0.000
     25 H           5.4278   -0.6081   -0.4387 H.spc      1 <1>        0.000
     26 H           3.7332   -1.5288   -2.0605 H.spc      1 <1>        0.000
     27 H           3.6797    0.2390   -1.8891 H.spc      1 <1>        0.000
     28 H           1.5823   -2.4442   -2.1813 H.spc      1 <1>        0.000
     29 H           0.1841   -1.7479   -1.1209 H.spc      1 <1>        0.000
@<TRIPOS>BOND
     1    1    2 1  
     2    7    8 1  
     3    5    6 1  
     4    8    9 1  
     5    9   10 1  
     6    3    4 1  
     7    4    5 1  
     8    2    7 1  
     9    6    7 1  
    10   10   11 2  
    11    2    3 1  
    12    1   10 1  
    13    1   12 1  
    14    1   13 1  
    15    2   14 1  
    16    3   15 1  
    17    3   16 1  
    18    4   17 1  
    19    4   18 1  
    20    5   19 1  
    21    5   20 1  
    22    6   21 1  
    23    6   22 1  
    24    7   23 1  
    25    8   24 1  
    26    8   25 1  
    27    9   26 1  
    28    9   27 1  
    29   11   28 1  
    30   11   29 1  
# Name:          frag5-548-63/41815 -- energy: -3.595768
# Creation time: Sat Jun  5 12:52:53 2010


@<TRIPOS>MOLECULE
frag5-548-63/41815 -- energy: -3.595768
   29    30     1     1     1
SMALL
USER_CHARGES


@<TRIPOS>ATOM
      1 C6          1.6232    0.2291    0.0572 C.3        1 <1>        0.000
      2 C7          2.8276    1.1144    0.4484 C.3        1 <1>        0.000
      3 C8          2.4465    2.1677    1.5109 C.3        1 <1>        0.000
      4 C9          3.6542    3.0418    1.8954 C.3        1 <1>        0.000
      5 C10         4.8225    2.1707    2.3956 C.3        1 <1>        0.000
      6 C11         5.2165    1.1244    1.3374 C.3        1 <1>        0.000
      7 C12         4.0140    0.2370    0.9438 C.3        1 <1>        0.000
      8 C13         4.3999   -0.8026   -0.1324 C.3        1 <1>        0.000
      9 C14         3.5018   -0.7087   -1.3808 C.3        1 <1>        0.000
     10 C15         2.0568   -0.7933   -0.9591 C.2        1 <1>        0.000
     11 C16         1.2225   -1.7194   -1.4510 C.2        1 <1>        0.000
     12 H           0.8382    0.8535   -0.3695 H.spc      1 <1>        0.000
     13 H           1.2446   -0.2796    0.9438 H.spc      1 <1>        0.000
     14 H           3.1410    1.6536   -0.4455 H.spc      1 <1>        0.000
     15 H           1.6713    2.8121    1.0964 H.spc      1 <1>        0.000
     16 H           2.0977    1.6481    2.4033 H.spc      1 <1>        0.000
     17 H           3.3561    3.7220    2.6933 H.spc      1 <1>        0.000
     18 H           3.9808    3.5967    1.0159 H.spc      1 <1>        0.000
     19 H           5.6811    2.8130    2.5914 H.spc      1 <1>        0.000
     20 H           4.5114    1.6530    3.3029 H.spc      1 <1>        0.000
     21 H           5.9946    0.4860    1.7558 H.spc      1 <1>        0.000
     22 H           5.5655    1.6478    0.4473 H.spc      1 <1>        0.000
     23 H           3.7026   -0.3083    1.8348 H.spc      1 <1>        0.000
     24 H           4.2796   -1.7968    0.2979 H.spc      1 <1>        0.000
     25 H           5.4278   -0.6081   -0.4387 H.spc      1 <1>        0.000
     26 H           3.7332   -1.5288   -2.0605 H.spc      1 <1>        0.000
     27 H           3.6797    0.2390   -1.8891 H.spc      1 <1>        0.000
     28 H           1.5823   -2.4442   -2.1813 H.spc      1 <1>        0.000
     29 H           0.1841   -1.7479   -1.1209 H.spc      1 <1>        0.000
@<TRIPOS>BOND
     1    1    2 1  
     2    7    8 1  
     3    5    6 1  
     4    8    9 1  
     5    9   10 1  
     6    3    4 1  
     7    4    5 1  
     8    2    7 1  
     9    6    7 1  
    10   10   11 2  
    11    2    3 1  
    12    1   10 1  
    13    1   12 1  
    14    1   13 1  
    15    2   14 1  
    16    3   15 1  
    17    3   16 1  
    18    4   17 1  
    19    4   18 1  
    20    5   19 1  
    21    5   20 1  
    22    6   21 1  
    23    6   22 1  
    24    7   23 1  
    25    8   24 1  
    26    8   25 1  
    27    9   26 1  
    28    9   27 1  
    29   11   28 1  
    30   11   29 1  
