#      Rotatable Fragment
#      Build by yxyuan
#
# Name:          frag5-691-22/41815
# Creation time: Sat Jun  5 12:53:04 2010


@<TRIPOS>MOLECULE
frag5-691-22/41815
   17    17     1     1     1
SMALL
USER_CHARGES


@<TRIPOS>ATOM
      1 O1          3.2133   -0.1985    0.6193 O.3        1 <1>        0.000
      2 C2          1.8655   -0.1458    0.3273 C.ar       1 <1>        0.000
      3 C3          1.3930    0.7483   -0.6432 C.ar       1 <1>        0.000
      4 C4          0.0378    0.8331   -0.9469 C.ar       1 <1>        0.000
      5 C5         -0.9023    0.0232   -0.2924 C.ar       1 <1>        0.000
      6 C6         -0.4293   -0.8979    0.6573 C.ar       1 <1>        0.000
      7 C7          0.9255   -0.9679    0.9737 C.ar       1 <1>        0.000
      8 C8         -2.3579    0.1730   -0.6445 C.2        1 <1>        0.000
      9 C9         -3.1561    1.1599   -0.2122 C.2        1 <1>        0.000
     10 H           3.3665   -0.8577    1.3001 H.spc      1 <1>        0.000
     11 H           2.1003    1.3891   -1.1698 H.spc      1 <1>        0.000
     12 H          -0.2987    1.5400   -1.7053 H.spc      1 <1>        0.000
     13 H          -1.1323   -1.5671    1.1534 H.spc      1 <1>        0.000
     14 H           1.2625   -1.6715    1.7349 H.spc      1 <1>        0.000
     15 H          -2.7968   -0.5782   -1.3011 H.spc      1 <1>        0.000
     16 H          -2.7595    1.9328    0.4462 H.spc      1 <1>        0.000
     17 H          -4.2016    1.1893   -0.5192 H.spc      1 <1>        0.000
@<TRIPOS>BOND
     1    6    7 ar 
     2    8    9 2  
     3    1    2 1  
     4    2    3 ar 
     5    2    7 ar 
     6    3    4 ar 
     7    4    5 ar 
     8    5    6 ar 
     9    5    8 1  
    10    1   10 1  
    11    3   11 1  
    12    4   12 1  
    13    6   13 1  
    14    7   14 1  
    15    8   15 1  
    16    9   16 1  
    17    9   17 1  
# Name:          frag5-691-22/41815 -- energy: -0.728268
# Creation time: Sat Jun  5 12:53:04 2010


@<TRIPOS>MOLECULE
frag5-691-22/41815 -- energy: -0.728268
   17    17     1     1     1
SMALL
USER_CHARGES


@<TRIPOS>ATOM
      1 O1          3.2133   -0.1985    0.6193 O.3        1 <1>        0.000
      2 C2          1.8655   -0.1458    0.3273 C.ar       1 <1>        0.000
      3 C3          1.3930    0.7483   -0.6432 C.ar       1 <1>        0.000
      4 C4          0.0378    0.8331   -0.9469 C.ar       1 <1>        0.000
      5 C5         -0.9023    0.0232   -0.2924 C.ar       1 <1>        0.000
      6 C6         -0.4293   -0.8979    0.6573 C.ar       1 <1>        0.000
      7 C7          0.9255   -0.9679    0.9737 C.ar       1 <1>        0.000
      8 C8         -2.3579    0.1730   -0.6445 C.2        1 <1>        0.000
      9 C9         -3.1561    1.1599   -0.2122 C.2        1 <1>        0.000
     10 H           3.3665   -0.8577    1.3001 H.spc      1 <1>        0.000
     11 H           2.1003    1.3891   -1.1698 H.spc      1 <1>        0.000
     12 H          -0.2987    1.5400   -1.7053 H.spc      1 <1>        0.000
     13 H          -1.1323   -1.5671    1.1534 H.spc      1 <1>        0.000
     14 H           1.2625   -1.6715    1.7349 H.spc      1 <1>        0.000
     15 H          -2.7968   -0.5782   -1.3011 H.spc      1 <1>        0.000
     16 H          -2.7595    1.9328    0.4462 H.spc      1 <1>        0.000
     17 H          -4.2016    1.1893   -0.5192 H.spc      1 <1>        0.000
@<TRIPOS>BOND
     1    6    7 ar 
     2    8    9 2  
     3    1    2 1  
     4    2    3 ar 
     5    2    7 ar 
     6    3    4 ar 
     7    4    5 ar 
     8    5    6 ar 
     9    5    8 1  
    10    1   10 1  
    11    3   11 1  
    12    4   12 1  
    13    6   13 1  
    14    7   14 1  
    15    8   15 1  
    16    9   16 1  
    17    9   17 1  
