#      Rotatable Fragment
#      Build by yxyuan
#
# Name:          frag3-268-2/31924
# Creation time: Sat Jun  5 12:52:41 2010


@<TRIPOS>MOLECULE
frag3-268-2/31924
    8     7     1     1     1
SMALL
USER_CHARGES


@<TRIPOS>ATOM
      1 O1          1.8717   -0.2373   -0.4937 O.3        1 <1>        0.000
      2 C21         0.7530    0.1817    0.1184 C.2        1 <1>        0.000
      3 O4          0.7588    0.8698    1.1305 O.2        1 <1>        0.000
      4 O5         -0.2760   -0.3133   -0.5996 O.3        1 <1>        0.000
      5 C22        -1.5351    0.0385   -0.2643 C.2        1 <1>        0.000
      6 O6         -2.6186   -0.2232   -0.7795 O.2        1 <1>        0.000
      7 H           1.6371   -0.7603   -1.2638 H.spc      1 <1>        0.000
      8 H          -1.6023    0.6679    0.6231 H.spc      1 <1>        0.000
@<TRIPOS>BOND
     1    1    2 1  
     2    2    4 1  
     3    4    5 1  
     4    5    6 2  
     5    2    3 2  
     6    1    7 1  
     7    5    8 1  
# Name:          frag3-268-2/31924
# Creation time: Sat Jun  5 12:52:41 2010


@<TRIPOS>MOLECULE
frag3-268-2/31924
    8     7     1     1     1
SMALL
USER_CHARGES


@<TRIPOS>ATOM
      1 O1          1.2103   -0.5985   -0.5499 O.3        1 <1>        0.000
      2 C21         0.7133    0.3633    0.2328 C.2        1 <1>        0.000
      3 O4          1.3429    0.8794    1.1647 O.2        1 <1>        0.000
      4 O5         -0.5368    0.6250   -0.2179 O.3        1 <1>        0.000
      5 C22        -1.3543   -0.4402   -0.4548 C.2        1 <1>        0.000
      6 O6         -2.4214   -0.5129   -1.0632 O.2        1 <1>        0.000
      7 H           0.5532   -0.8493   -1.2033 H.spc      1 <1>        0.000
      8 H          -1.0046   -1.3837   -0.0358 H.spc      1 <1>        0.000
@<TRIPOS>BOND
     1    1    2 1  
     2    2    4 1  
     3    4    5 1  
     4    5    6 2  
     5    2    3 2  
     6    1    7 1  
     7    5    8 1  
# Name:          frag3-268-2/31924
# Creation time: Sat Jun  5 12:52:41 2010


@<TRIPOS>MOLECULE
frag3-268-2/31924
    8     7     1     1     1
SMALL
USER_CHARGES


@<TRIPOS>ATOM
      1 O1          1.8797   -0.1988   -0.2476 O.3        1 <1>        0.000
      2 C21         0.6179    0.1566    0.0399 C.2        1 <1>        0.000
      3 O4          0.3156    0.8247    1.0202 O.2        1 <1>        0.000
      4 O5         -0.1526   -0.3687   -0.9343 O.3        1 <1>        0.000
      5 C22        -1.4947   -0.2808   -0.8241 C.2        1 <1>        0.000
      6 O6         -2.2119    0.1832    0.0577 O.2        1 <1>        0.000
      7 H           1.8888   -0.7169   -1.0557 H.spc      1 <1>        0.000
      8 H          -2.0405   -0.6969   -1.6709 H.spc      1 <1>        0.000
@<TRIPOS>BOND
     1    1    2 1  
     2    2    4 1  
     3    4    5 1  
     4    5    6 2  
     5    2    3 2  
     6    1    7 1  
     7    5    8 1  
# Name:          frag3-268-2/31924
# Creation time: Sat Jun  5 12:52:41 2010


@<TRIPOS>MOLECULE
frag3-268-2/31924
    8     7     1     1     1
SMALL
USER_CHARGES


@<TRIPOS>ATOM
      1 O1          0.8460   -0.7986   -0.4580 O.3        1 <1>        0.000
      2 C21         0.5913    0.3396    0.2027 C.2        1 <1>        0.000
      3 O4          1.2211    0.7017    1.1930 O.2        1 <1>        0.000
      4 O5         -0.4420    0.9288   -0.4390 O.3        1 <1>        0.000
      5 C22        -1.4895    0.1555   -0.8123 C.2        1 <1>        0.000
      6 O6         -1.7729   -1.0109   -0.5747 O.2        1 <1>        0.000
      7 H           0.2371   -0.8823   -1.1954 H.spc      1 <1>        0.000
      8 H          -2.2162    0.6683   -1.4424 H.spc      1 <1>        0.000
@<TRIPOS>BOND
     1    1    2 1  
     2    2    4 1  
     3    4    5 1  
     4    5    6 2  
     5    2    3 2  
     6    1    7 1  
     7    5    8 1  
# Name:          frag3-268-2/31924
# Creation time: Sat Jun  5 12:52:41 2010


@<TRIPOS>MOLECULE
frag3-268-2/31924
    8     7     1     1     1
SMALL
USER_CHARGES


@<TRIPOS>ATOM
      1 O1          0.8689    0.0816   -1.0142 O.3        1 <1>        0.000
      2 C21         0.5848    0.2159    0.2885 C.2        1 <1>        0.000
      3 O4          1.2450    0.9114    1.0568 O.2        1 <1>        0.000
      4 O5         -0.5056   -0.5481    0.5218 O.3        1 <1>        0.000
      5 C22        -1.4990   -0.5434   -0.3994 C.2        1 <1>        0.000
      6 O6         -1.7401    0.1987   -1.3417 O.2        1 <1>        0.000
      7 H           0.2270   -0.5045   -1.4218 H.spc      1 <1>        0.000
      8 H          -2.2187   -1.3530   -0.2782 H.spc      1 <1>        0.000
@<TRIPOS>BOND
     1    1    2 1  
     2    2    4 1  
     3    4    5 1  
     4    5    6 2  
     5    2    3 2  
     6    1    7 1  
     7    5    8 1  
# Name:          frag3-268-2/31924 -- energy: 0.390295
# Creation time: Sat Jun  5 12:52:41 2010


@<TRIPOS>MOLECULE
frag3-268-2/31924 -- energy: 0.390295
    8     7     1     1     1
SMALL
USER_CHARGES


@<TRIPOS>ATOM
      1 O1          1.8717   -0.2373   -0.4937 O.3        1 <1>        0.000
      2 C21         0.7530    0.1817    0.1184 C.2        1 <1>        0.000
      3 O4          0.7588    0.8698    1.1305 O.2        1 <1>        0.000
      4 O5         -0.2760   -0.3133   -0.5996 O.3        1 <1>        0.000
      5 C22        -1.5351    0.0385   -0.2643 C.2        1 <1>        0.000
      6 O6         -2.6186   -0.2232   -0.7795 O.2        1 <1>        0.000
      7 H           1.6371   -0.7603   -1.2638 H.spc      1 <1>        0.000
      8 H          -1.6023    0.6679    0.6231 H.spc      1 <1>        0.000
@<TRIPOS>BOND
     1    1    2 1  
     2    2    4 1  
     3    4    5 1  
     4    5    6 2  
     5    2    3 2  
     6    1    7 1  
     7    5    8 1  
# Name:          frag3-268-2/31924 -- energy: 0.328033
# Creation time: Sat Jun  5 12:52:41 2010


@<TRIPOS>MOLECULE
frag3-268-2/31924 -- energy: 0.328033
    8     7     1     1     1
SMALL
USER_CHARGES


@<TRIPOS>ATOM
      1 O1          1.8797   -0.1988   -0.2476 O.3        1 <1>        0.000
      2 C21         0.6179    0.1566    0.0399 C.2        1 <1>        0.000
      3 O4          0.3156    0.8247    1.0202 O.2        1 <1>        0.000
      4 O5         -0.1526   -0.3687   -0.9343 O.3        1 <1>        0.000
      5 C22        -1.4947   -0.2808   -0.8241 C.2        1 <1>        0.000
      6 O6         -2.2119    0.1832    0.0577 O.2        1 <1>        0.000
      7 H           1.8888   -0.7169   -1.0557 H.spc      1 <1>        0.000
      8 H          -2.0405   -0.6969   -1.6709 H.spc      1 <1>        0.000
@<TRIPOS>BOND
     1    1    2 1  
     2    2    4 1  
     3    4    5 1  
     4    5    6 2  
     5    2    3 2  
     6    1    7 1  
     7    5    8 1  
