#      Rotatable Fragment
#      Build by yxyuan
#
# Name:          frag5-580-42/41815
# Creation time: Sat Jun  5 12:52:56 2010


@<TRIPOS>MOLECULE
frag5-580-42/41815
   20    20     1     1     1
SMALL
USER_CHARGES


@<TRIPOS>ATOM
      1 O8         -3.9119    4.5099   -1.6840 O.3        1 <1>        0.000
      2 C15        -3.8489    3.1897   -1.8848 C.2        1 <1>        0.000
      3 O9         -2.8929    2.6853   -2.4548 O.2        1 <1>        0.000
      4 C16        -4.9556    2.3462   -1.4114 C.2        1 <1>        0.000
      5 C17        -4.8657    1.0035   -1.2767 C.2        1 <1>        0.000
      6 C18        -5.9889    0.1317   -0.8068 C.ar       1 <1>        0.000
      7 C19        -5.7797   -1.0881   -0.1378 C.ar       1 <1>        0.000
      8 C20        -6.8511   -1.8924    0.2336 C.ar       1 <1>        0.000
      9 C21        -8.1824   -1.5041   -0.0113 C.ar       1 <1>        0.000
     10 C22        -8.3812   -0.2637   -0.6422 C.ar       1 <1>        0.000
     11 C23        -7.3150    0.5341   -1.0302 C.ar       1 <1>        0.000
     12 O10        -9.2511   -2.2821    0.3447 O.3        1 <1>        0.000
     13 H          -4.7275    4.7241   -1.2251 H.spc      1 <1>        0.000
     14 H          -5.8989    2.8285   -1.1553 H.spc      1 <1>        0.000
     15 H          -3.9176    0.5267   -1.5254 H.spc      1 <1>        0.000
     16 H          -4.7632   -1.4071    0.0926 H.spc      1 <1>        0.000
     17 H          -6.6562   -2.8453    0.7256 H.spc      1 <1>        0.000
     18 H          -9.3983    0.0796   -0.8311 H.spc      1 <1>        0.000
     19 H          -7.5102    1.4897   -1.5168 H.spc      1 <1>        0.000
     20 H          -8.9348   -3.0875    0.7606 H.spc      1 <1>        0.000
@<TRIPOS>BOND
     1    7    8 ar 
     2    6   11 ar 
     3    9   12 1  
     4    5    6 1  
     5   10   11 ar 
     6    9   10 ar 
     7    6    7 ar 
     8    8    9 ar 
     9    1    2 1  
    10    2    3 2  
    11    2    4 1  
    12    4    5 2  
    13    1   13 1  
    14    4   14 1  
    15    5   15 1  
    16    7   16 1  
    17    8   17 1  
    18   10   18 1  
    19   11   19 1  
    20   12   20 1  
# Name:          frag5-580-42/41815
# Creation time: Sat Jun  5 12:52:56 2010


@<TRIPOS>MOLECULE
frag5-580-42/41815
   20    20     1     1     1
SMALL
USER_CHARGES


@<TRIPOS>ATOM
      1 O8         -3.9989    4.1015   -1.7021 O.3        1 <1>        0.000
      2 C15        -3.5102    2.8715   -1.8723 C.2        1 <1>        0.000
      3 O9         -2.3845    2.6968   -2.3217 O.2        1 <1>        0.000
      4 C16        -4.3365    1.7106   -1.5087 C.2        1 <1>        0.000
      5 C17        -5.6477    1.7918   -1.2037 C.2        1 <1>        0.000
      6 C18        -6.4961    0.6146   -0.8222 C.ar       1 <1>        0.000
      7 C19        -7.8988    0.6245   -0.9165 C.ar       1 <1>        0.000
      8 C20        -8.6503   -0.4705   -0.5018 C.ar       1 <1>        0.000
      9 C21        -8.0345   -1.6358   -0.0087 C.ar       1 <1>        0.000
     10 C22        -6.6312   -1.6527    0.0423 C.ar       1 <1>        0.000
     11 C23        -5.8788   -0.5555   -0.3547 C.ar       1 <1>        0.000
     12 O10        -8.7569   -2.7269    0.4085 O.3        1 <1>        0.000
     13 H          -4.8875    4.0447   -1.3432 H.spc      1 <1>        0.000
     14 H          -3.8626    0.7293   -1.4843 H.spc      1 <1>        0.000
     15 H          -6.1204    2.7734   -1.2364 H.spc      1 <1>        0.000
     16 H          -8.4044    1.5018   -1.3199 H.spc      1 <1>        0.000
     17 H          -9.7378   -0.4248   -0.5600 H.spc      1 <1>        0.000
     18 H          -6.1216   -2.5468    0.4014 H.spc      1 <1>        0.000
     19 H          -4.7911   -0.6038   -0.3024 H.spc      1 <1>        0.000
     20 H          -9.6943   -2.5467    0.3063 H.spc      1 <1>        0.000
@<TRIPOS>BOND
     1    7    8 ar 
     2    6   11 ar 
     3    9   12 1  
     4    5    6 1  
     5   10   11 ar 
     6    9   10 ar 
     7    6    7 ar 
     8    8    9 ar 
     9    1    2 1  
    10    2    3 2  
    11    2    4 1  
    12    4    5 2  
    13    1   13 1  
    14    4   14 1  
    15    5   15 1  
    16    7   16 1  
    17    8   17 1  
    18   10   18 1  
    19   11   19 1  
    20   12   20 1  
# Name:          frag5-580-42/41815
# Creation time: Sat Jun  5 12:52:56 2010


@<TRIPOS>MOLECULE
frag5-580-42/41815
   20    20     1     1     1
SMALL
USER_CHARGES


@<TRIPOS>ATOM
      1 O8         -3.4626    3.8802   -1.1034 O.3        1 <1>        0.000
      2 C15        -3.8015    3.0576   -2.0988 C.2        1 <1>        0.000
      3 O9         -3.2572    3.1301   -3.1902 O.2        1 <1>        0.000
      4 C16        -4.8537    2.0493   -1.8747 C.2        1 <1>        0.000
      5 C17        -5.0250    1.3949   -0.7091 C.2        1 <1>        0.000
      6 C18        -6.0868    0.3578   -0.4767 C.ar       1 <1>        0.000
      7 C19        -5.8454   -0.8337    0.2280 C.ar       1 <1>        0.000
      8 C20        -6.8456   -1.7904    0.3766 C.ar       1 <1>        0.000
      9 C21        -8.1382   -1.5792   -0.1374 C.ar       1 <1>        0.000
     10 C22        -8.3831   -0.3683   -0.8024 C.ar       1 <1>        0.000
     11 C23        -7.3816    0.5813   -0.9675 C.ar       1 <1>        0.000
     12 O10        -9.1436   -2.5098   -0.0060 O.3        1 <1>        0.000
     13 H          -3.9913    3.6775   -0.3282 H.spc      1 <1>        0.000
     14 H          -5.5308    1.8204   -2.6977 H.spc      1 <1>        0.000
     15 H          -4.3524    1.6325    0.1150 H.spc      1 <1>        0.000
     16 H          -4.8622   -1.0111    0.6639 H.spc      1 <1>        0.000
     17 H          -6.6234   -2.7200    0.9006 H.spc      1 <1>        0.000
     18 H          -9.3790   -0.1682   -1.1976 H.spc      1 <1>        0.000
     19 H          -7.6058    1.5135   -1.4861 H.spc      1 <1>        0.000
     20 H          -8.8106   -3.2739    0.4704 H.spc      1 <1>        0.000
@<TRIPOS>BOND
     1    7    8 ar 
     2    6   11 ar 
     3    9   12 1  
     4    5    6 1  
     5   10   11 ar 
     6    9   10 ar 
     7    6    7 ar 
     8    8    9 ar 
     9    1    2 1  
    10    2    3 2  
    11    2    4 1  
    12    4    5 2  
    13    1   13 1  
    14    4   14 1  
    15    5   15 1  
    16    7   16 1  
    17    8   17 1  
    18   10   18 1  
    19   11   19 1  
    20   12   20 1  
# Name:          frag5-580-42/41815
# Creation time: Sat Jun  5 12:52:56 2010


@<TRIPOS>MOLECULE
frag5-580-42/41815
   20    20     1     1     1
SMALL
USER_CHARGES


@<TRIPOS>ATOM
      1 O8         -4.0715    4.2063   -2.7661 O.3        1 <1>        0.000
      2 C15        -3.8583    3.1680   -1.9513 C.2        1 <1>        0.000
      3 O9         -2.7537    2.9565   -1.4788 O.2        1 <1>        0.000
      4 C16        -4.9821    2.2715   -1.6284 C.2        1 <1>        0.000
      5 C17        -4.8347    1.0987   -0.9748 C.2        1 <1>        0.000
      6 C18        -5.9691    0.1730   -0.6476 C.ar       1 <1>        0.000
      7 C19        -5.8138   -1.2217   -0.5619 C.ar       1 <1>        0.000
      8 C20        -6.9037   -2.0472   -0.3054 C.ar       1 <1>        0.000
      9 C21        -8.1886   -1.5150   -0.0850 C.ar       1 <1>        0.000
     10 C22        -8.3254   -0.1188   -0.1292 C.ar       1 <1>        0.000
     11 C23        -7.2429    0.7073   -0.4015 C.ar       1 <1>        0.000
     12 O10        -9.2805   -2.3087    0.1683 O.3        1 <1>        0.000
     13 H          -4.9922    4.2145   -3.0380 H.spc      1 <1>        0.000
     14 H          -5.9851    2.5704   -1.9330 H.spc      1 <1>        0.000
     15 H          -3.8307    0.8071   -0.6664 H.spc      1 <1>        0.000
     16 H          -4.8261   -1.6621   -0.6983 H.spc      1 <1>        0.000
     17 H          -6.7603   -3.1273   -0.2744 H.spc      1 <1>        0.000
     18 H          -9.3030    0.3269    0.0543 H.spc      1 <1>        0.000
     19 H          -7.3850    1.7878   -0.4244 H.spc      1 <1>        0.000
     20 H          -9.0127   -3.2306    0.1629 H.spc      1 <1>        0.000
@<TRIPOS>BOND
     1    7    8 ar 
     2    6   11 ar 
     3    9   12 1  
     4    5    6 1  
     5   10   11 ar 
     6    9   10 ar 
     7    6    7 ar 
     8    8    9 ar 
     9    1    2 1  
    10    2    3 2  
    11    2    4 1  
    12    4    5 2  
    13    1   13 1  
    14    4   14 1  
    15    5   15 1  
    16    7   16 1  
    17    8   17 1  
    18   10   18 1  
    19   11   19 1  
    20   12   20 1  
# Name:          frag5-580-42/41815 -- energy: -0.963160
# Creation time: Sat Jun  5 12:52:56 2010


@<TRIPOS>MOLECULE
frag5-580-42/41815 -- energy: -0.963160
   20    20     1     1     1
SMALL
USER_CHARGES


@<TRIPOS>ATOM
      1 O8         -3.9119    4.5099   -1.6840 O.3        1 <1>        0.000
      2 C15        -3.8489    3.1897   -1.8848 C.2        1 <1>        0.000
      3 O9         -2.8929    2.6853   -2.4548 O.2        1 <1>        0.000
      4 C16        -4.9556    2.3462   -1.4114 C.2        1 <1>        0.000
      5 C17        -4.8657    1.0035   -1.2767 C.2        1 <1>        0.000
      6 C18        -5.9889    0.1317   -0.8068 C.ar       1 <1>        0.000
      7 C19        -5.7797   -1.0881   -0.1378 C.ar       1 <1>        0.000
      8 C20        -6.8511   -1.8924    0.2336 C.ar       1 <1>        0.000
      9 C21        -8.1824   -1.5041   -0.0113 C.ar       1 <1>        0.000
     10 C22        -8.3812   -0.2637   -0.6422 C.ar       1 <1>        0.000
     11 C23        -7.3150    0.5341   -1.0302 C.ar       1 <1>        0.000
     12 O10        -9.2511   -2.2821    0.3447 O.3        1 <1>        0.000
     13 H          -4.7275    4.7241   -1.2251 H.spc      1 <1>        0.000
     14 H          -5.8989    2.8285   -1.1553 H.spc      1 <1>        0.000
     15 H          -3.9176    0.5267   -1.5254 H.spc      1 <1>        0.000
     16 H          -4.7632   -1.4071    0.0926 H.spc      1 <1>        0.000
     17 H          -6.6562   -2.8453    0.7256 H.spc      1 <1>        0.000
     18 H          -9.3983    0.0796   -0.8311 H.spc      1 <1>        0.000
     19 H          -7.5102    1.4897   -1.5168 H.spc      1 <1>        0.000
     20 H          -8.9348   -3.0875    0.7606 H.spc      1 <1>        0.000
@<TRIPOS>BOND
     1    7    8 ar 
     2    6   11 ar 
     3    9   12 1  
     4    5    6 1  
     5   10   11 ar 
     6    9   10 ar 
     7    6    7 ar 
     8    8    9 ar 
     9    1    2 1  
    10    2    3 2  
    11    2    4 1  
    12    4    5 2  
    13    1   13 1  
    14    4   14 1  
    15    5   15 1  
    16    7   16 1  
    17    8   17 1  
    18   10   18 1  
    19   11   19 1  
    20   12   20 1  
# Name:          frag5-580-42/41815 -- energy: 0.521803
# Creation time: Sat Jun  5 12:52:56 2010


@<TRIPOS>MOLECULE
frag5-580-42/41815 -- energy: 0.521803
   20    20     1     1     1
SMALL
USER_CHARGES


@<TRIPOS>ATOM
      1 O8         -3.9989    4.1015   -1.7021 O.3        1 <1>        0.000
      2 C15        -3.5102    2.8715   -1.8723 C.2        1 <1>        0.000
      3 O9         -2.3845    2.6968   -2.3217 O.2        1 <1>        0.000
      4 C16        -4.3365    1.7106   -1.5087 C.2        1 <1>        0.000
      5 C17        -5.6477    1.7918   -1.2037 C.2        1 <1>        0.000
      6 C18        -6.4961    0.6146   -0.8222 C.ar       1 <1>        0.000
      7 C19        -7.8988    0.6245   -0.9165 C.ar       1 <1>        0.000
      8 C20        -8.6503   -0.4705   -0.5018 C.ar       1 <1>        0.000
      9 C21        -8.0345   -1.6358   -0.0087 C.ar       1 <1>        0.000
     10 C22        -6.6312   -1.6527    0.0423 C.ar       1 <1>        0.000
     11 C23        -5.8788   -0.5555   -0.3547 C.ar       1 <1>        0.000
     12 O10        -8.7569   -2.7269    0.4085 O.3        1 <1>        0.000
     13 H          -4.8875    4.0447   -1.3432 H.spc      1 <1>        0.000
     14 H          -3.8626    0.7293   -1.4843 H.spc      1 <1>        0.000
     15 H          -6.1204    2.7734   -1.2364 H.spc      1 <1>        0.000
     16 H          -8.4044    1.5018   -1.3199 H.spc      1 <1>        0.000
     17 H          -9.7378   -0.4248   -0.5600 H.spc      1 <1>        0.000
     18 H          -6.1216   -2.5468    0.4014 H.spc      1 <1>        0.000
     19 H          -4.7911   -0.6038   -0.3024 H.spc      1 <1>        0.000
     20 H          -9.6943   -2.5467    0.3063 H.spc      1 <1>        0.000
@<TRIPOS>BOND
     1    7    8 ar 
     2    6   11 ar 
     3    9   12 1  
     4    5    6 1  
     5   10   11 ar 
     6    9   10 ar 
     7    6    7 ar 
     8    8    9 ar 
     9    1    2 1  
    10    2    3 2  
    11    2    4 1  
    12    4    5 2  
    13    1   13 1  
    14    4   14 1  
    15    5   15 1  
    16    7   16 1  
    17    8   17 1  
    18   10   18 1  
    19   11   19 1  
    20   12   20 1  
# Name:          frag5-580-42/41815 -- energy: -1.079480
# Creation time: Sat Jun  5 12:52:56 2010


@<TRIPOS>MOLECULE
frag5-580-42/41815 -- energy: -1.079480
   20    20     1     1     1
SMALL
USER_CHARGES


@<TRIPOS>ATOM
      1 O8         -3.4626    3.8802   -1.1034 O.3        1 <1>        0.000
      2 C15        -3.8015    3.0576   -2.0988 C.2        1 <1>        0.000
      3 O9         -3.2572    3.1301   -3.1902 O.2        1 <1>        0.000
      4 C16        -4.8537    2.0493   -1.8747 C.2        1 <1>        0.000
      5 C17        -5.0250    1.3949   -0.7091 C.2        1 <1>        0.000
      6 C18        -6.0868    0.3578   -0.4767 C.ar       1 <1>        0.000
      7 C19        -5.8454   -0.8337    0.2280 C.ar       1 <1>        0.000
      8 C20        -6.8456   -1.7904    0.3766 C.ar       1 <1>        0.000
      9 C21        -8.1382   -1.5792   -0.1374 C.ar       1 <1>        0.000
     10 C22        -8.3831   -0.3683   -0.8024 C.ar       1 <1>        0.000
     11 C23        -7.3816    0.5813   -0.9675 C.ar       1 <1>        0.000
     12 O10        -9.1436   -2.5098   -0.0060 O.3        1 <1>        0.000
     13 H          -3.9913    3.6775   -0.3282 H.spc      1 <1>        0.000
     14 H          -5.5308    1.8204   -2.6977 H.spc      1 <1>        0.000
     15 H          -4.3524    1.6325    0.1150 H.spc      1 <1>        0.000
     16 H          -4.8622   -1.0111    0.6639 H.spc      1 <1>        0.000
     17 H          -6.6234   -2.7200    0.9006 H.spc      1 <1>        0.000
     18 H          -9.3790   -0.1682   -1.1976 H.spc      1 <1>        0.000
     19 H          -7.6058    1.5135   -1.4861 H.spc      1 <1>        0.000
     20 H          -8.8106   -3.2739    0.4704 H.spc      1 <1>        0.000
@<TRIPOS>BOND
     1    7    8 ar 
     2    6   11 ar 
     3    9   12 1  
     4    5    6 1  
     5   10   11 ar 
     6    9   10 ar 
     7    6    7 ar 
     8    8    9 ar 
     9    1    2 1  
    10    2    3 2  
    11    2    4 1  
    12    4    5 2  
    13    1   13 1  
    14    4   14 1  
    15    5   15 1  
    16    7   16 1  
    17    8   17 1  
    18   10   18 1  
    19   11   19 1  
    20   12   20 1  
# Name:          frag5-580-42/41815 -- energy: -1.001720
# Creation time: Sat Jun  5 12:52:56 2010


@<TRIPOS>MOLECULE
frag5-580-42/41815 -- energy: -1.001720
   20    20     1     1     1
SMALL
USER_CHARGES


@<TRIPOS>ATOM
      1 O8         -4.0715    4.2063   -2.7661 O.3        1 <1>        0.000
      2 C15        -3.8583    3.1680   -1.9513 C.2        1 <1>        0.000
      3 O9         -2.7537    2.9565   -1.4788 O.2        1 <1>        0.000
      4 C16        -4.9821    2.2715   -1.6284 C.2        1 <1>        0.000
      5 C17        -4.8347    1.0987   -0.9748 C.2        1 <1>        0.000
      6 C18        -5.9691    0.1730   -0.6476 C.ar       1 <1>        0.000
      7 C19        -5.8138   -1.2217   -0.5619 C.ar       1 <1>        0.000
      8 C20        -6.9037   -2.0472   -0.3054 C.ar       1 <1>        0.000
      9 C21        -8.1886   -1.5150   -0.0850 C.ar       1 <1>        0.000
     10 C22        -8.3254   -0.1188   -0.1292 C.ar       1 <1>        0.000
     11 C23        -7.2429    0.7073   -0.4015 C.ar       1 <1>        0.000
     12 O10        -9.2805   -2.3087    0.1683 O.3        1 <1>        0.000
     13 H          -4.9922    4.2145   -3.0380 H.spc      1 <1>        0.000
     14 H          -5.9851    2.5704   -1.9330 H.spc      1 <1>        0.000
     15 H          -3.8307    0.8071   -0.6664 H.spc      1 <1>        0.000
     16 H          -4.8261   -1.6621   -0.6983 H.spc      1 <1>        0.000
     17 H          -6.7603   -3.1273   -0.2744 H.spc      1 <1>        0.000
     18 H          -9.3030    0.3269    0.0543 H.spc      1 <1>        0.000
     19 H          -7.3850    1.7878   -0.4244 H.spc      1 <1>        0.000
     20 H          -9.0127   -3.2306    0.1629 H.spc      1 <1>        0.000
@<TRIPOS>BOND
     1    7    8 ar 
     2    6   11 ar 
     3    9   12 1  
     4    5    6 1  
     5   10   11 ar 
     6    9   10 ar 
     7    6    7 ar 
     8    8    9 ar 
     9    1    2 1  
    10    2    3 2  
    11    2    4 1  
    12    4    5 2  
    13    1   13 1  
    14    4   14 1  
    15    5   15 1  
    16    7   16 1  
    17    8   17 1  
    18   10   18 1  
    19   11   19 1  
    20   12   20 1  
