#      Rotatable Fragment
#      Build by yxyuan
#
# Name:          frag4-418-52/48856
# Creation time: Sat Jun  5 12:52:03 2010


@<TRIPOS>MOLECULE
frag4-418-52/48856
   61    66     1     1     1
SMALL
USER_CHARGES


@<TRIPOS>ATOM
      1 C19        -2.8843    1.7452    0.2126 C.3        1 <1>        0.000
      2 C20        -2.3780    2.9528    1.0251 C.3        1 <1>        0.000
      3 C21        -1.1104    3.5588    0.3833 C.3        1 <1>        0.000
      4 C22         0.0291    2.5142    0.2301 C.3        1 <1>        0.000
      5 C23        -0.5010    1.2778   -0.5571 C.3        1 <1>        0.000
      6 C24        -1.7707    0.6859    0.1019 C.3        1 <1>        0.000
      7 C25         0.5906    0.1907   -0.6873 C.3        1 <1>        0.000
      8 C34         7.8131    3.6028   -0.3175 C.3        1 <1>        0.000
      9 C26         1.8517    0.7548   -1.3646 C.3        1 <1>        0.000
     10 C27         2.3937    1.9688   -0.5774 C.3        1 <1>        0.000
     11 C28         1.3116    3.0860   -0.4515 C.3        1 <1>        0.000
     12 C29         1.8963    4.3343    0.2755 C.3        1 <1>        0.000
     13 C30         3.2084    4.8512   -0.3597 C.3        1 <1>        0.000
     14 C31         4.2320    3.7056   -0.4180 C.3        1 <1>        0.000
     15 C32         5.5707    3.9994   -1.1291 C.3        1 <1>        0.000
     16 C33         6.6713    4.6377   -0.2486 C.3        1 <1>        0.000
     17 O16         8.6061    3.8555   -1.4932 O.3        1 <1>        0.000
     18 C35         9.6264    2.8781   -1.7133 C.3        1 <1>        0.000
     19 C36        10.6088    2.8312   -0.5217 C.3        1 <1>        0.000
     20 C37         9.8327    2.5482    0.7811 C.3        1 <1>        0.000
     21 C38         8.7079    3.5916    0.9425 C.3        1 <1>        0.000
     22 O17         7.0945    2.3711   -0.4642 O.3        1 <1>        0.000
     23 C40         6.0939    2.5775   -1.4604 C.3        1 <1>        0.000
     24 C41         4.8984    1.6040   -1.3335 C.3        1 <1>        0.000
     25 C42         3.6717    2.5337   -1.2400 C.3        1 <1>        0.000
     26 H          -3.1670    2.0764   -0.7867 H.spc      1 <1>        0.000
     27 H          -3.7475    1.3091    0.7155 H.spc      1 <1>        0.000
     28 H          -2.1340    2.6186    2.0335 H.spc      1 <1>        0.000
     29 H          -3.1584    3.7136    1.0443 H.spc      1 <1>        0.000
     30 H          -1.3741    3.9201   -0.6107 H.spc      1 <1>        0.000
     31 H          -0.7518    4.3581    1.0319 H.spc      1 <1>        0.000
     32 H           0.3298    2.2213    1.2360 H.spc      1 <1>        0.000
     33 H          -0.7677    1.6227   -1.5561 H.spc      1 <1>        0.000
     34 H          -1.5153    0.3426    1.1044 H.spc      1 <1>        0.000
     35 H          -2.1323   -0.1368   -0.5149 H.spc      1 <1>        0.000
     36 H           0.8561   -0.1598    0.3101 H.spc      1 <1>        0.000
     37 H           0.2013   -0.6249   -1.2967 H.spc      1 <1>        0.000
     38 H           2.6170   -0.0210   -1.3890 H.spc      1 <1>        0.000
     39 H           1.5975    1.0738   -2.3754 H.spc      1 <1>        0.000
     40 H           2.6483    1.6234    0.4246 H.spc      1 <1>        0.000
     41 H           1.0137    3.4253   -1.4436 H.spc      1 <1>        0.000
     42 H           2.1187    4.0442    1.3024 H.spc      1 <1>        0.000
     43 H           1.1582    5.1333    0.2048 H.spc      1 <1>        0.000
     44 H           3.6083    5.6669    0.2427 H.spc      1 <1>        0.000
     45 H           3.0075    5.2120   -1.3684 H.spc      1 <1>        0.000
     46 H           4.4124    3.5144    0.6398 H.spc      1 <1>        0.000
     47 H           5.3885    4.6960   -1.9474 H.spc      1 <1>        0.000
     48 H           6.9735    5.6246   -0.5990 H.spc      1 <1>        0.000
     49 H           6.3376    4.8317    0.7707 H.spc      1 <1>        0.000
     50 H           9.1581    1.8997   -1.8210 H.spc      1 <1>        0.000
     51 H          10.1794    3.1445   -2.6140 H.spc      1 <1>        0.000
     52 H          11.1199    3.7902   -0.4368 H.spc      1 <1>        0.000
     53 H          11.3392    2.0391   -0.6865 H.spc      1 <1>        0.000
     54 H          10.5123    2.6103    1.6311 H.spc      1 <1>        0.000
     55 H           9.3995    1.5489    0.7376 H.spc      1 <1>        0.000
     56 H           8.1015    3.3340    1.8109 H.spc      1 <1>        0.000
     57 H           9.1507    4.5785    1.0769 H.spc      1 <1>        0.000
     58 H           6.5051    2.4338   -2.4596 H.spc      1 <1>        0.000
     59 H           4.9882    0.9487   -0.4671 H.spc      1 <1>        0.000
     60 H           4.8333    0.9162   -2.1766 H.spc      1 <1>        0.000
     61 H           3.3022    2.7617   -2.2398 H.spc      1 <1>        0.000
@<TRIPOS>BOND
     1   10   11 1  
     2   10   25 1  
     3   11   12 1  
     4    9   10 1  
     5    7    9 1  
     6   12   13 1  
     7    5    7 1  
     8    5    6 1  
     9    4   11 1  
    10    4    5 1  
    11   13   14 1  
    12    3    4 1  
    13   14   15 1  
    14   14   25 1  
    15    1    2 1  
    16    1    6 1  
    17   15   23 1  
    18   16    8 1  
    19   15   16 1  
    20    8   17 1  
    21    8   21 1  
    22    8   22 1  
    23   18   19 1  
    24   17   18 1  
    25    2    3 1  
    26   19   20 1  
    27   20   21 1  
    28   22   23 1  
    29   23   24 1  
    30   24   25 1  
    31    1   26 1  
    32    1   27 1  
    33    2   28 1  
    34    2   29 1  
    35    3   30 1  
    36    3   31 1  
    37    4   32 1  
    38    5   33 1  
    39    6   34 1  
    40    6   35 1  
    41    7   36 1  
    42    7   37 1  
    43    9   38 1  
    44    9   39 1  
    45   10   40 1  
    46   11   41 1  
    47   12   42 1  
    48   12   43 1  
    49   13   44 1  
    50   13   45 1  
    51   14   46 1  
    52   15   47 1  
    53   16   48 1  
    54   16   49 1  
    55   18   50 1  
    56   18   51 1  
    57   19   52 1  
    58   19   53 1  
    59   20   54 1  
    60   20   55 1  
    61   21   56 1  
    62   21   57 1  
    63   23   58 1  
    64   24   59 1  
    65   24   60 1  
    66   25   61 1  
# Name:          frag4-418-52/48856 -- energy: -12.935383
# Creation time: Sat Jun  5 12:52:03 2010


@<TRIPOS>MOLECULE
frag4-418-52/48856 -- energy: -12.935383
   61    66     1     1     1
SMALL
USER_CHARGES


@<TRIPOS>ATOM
      1 C19        -2.8843    1.7452    0.2126 C.3        1 <1>        0.000
      2 C20        -2.3780    2.9528    1.0251 C.3        1 <1>        0.000
      3 C21        -1.1104    3.5588    0.3833 C.3        1 <1>        0.000
      4 C22         0.0291    2.5142    0.2301 C.3        1 <1>        0.000
      5 C23        -0.5010    1.2778   -0.5571 C.3        1 <1>        0.000
      6 C24        -1.7707    0.6859    0.1019 C.3        1 <1>        0.000
      7 C25         0.5906    0.1907   -0.6873 C.3        1 <1>        0.000
      8 C34         7.8131    3.6028   -0.3175 C.3        1 <1>        0.000
      9 C26         1.8517    0.7548   -1.3646 C.3        1 <1>        0.000
     10 C27         2.3937    1.9688   -0.5774 C.3        1 <1>        0.000
     11 C28         1.3116    3.0860   -0.4515 C.3        1 <1>        0.000
     12 C29         1.8963    4.3343    0.2755 C.3        1 <1>        0.000
     13 C30         3.2084    4.8512   -0.3597 C.3        1 <1>        0.000
     14 C31         4.2320    3.7056   -0.4180 C.3        1 <1>        0.000
     15 C32         5.5707    3.9994   -1.1291 C.3        1 <1>        0.000
     16 C33         6.6713    4.6377   -0.2486 C.3        1 <1>        0.000
     17 O16         8.6061    3.8555   -1.4932 O.3        1 <1>        0.000
     18 C35         9.6264    2.8781   -1.7133 C.3        1 <1>        0.000
     19 C36        10.6088    2.8312   -0.5217 C.3        1 <1>        0.000
     20 C37         9.8327    2.5482    0.7811 C.3        1 <1>        0.000
     21 C38         8.7079    3.5916    0.9425 C.3        1 <1>        0.000
     22 O17         7.0945    2.3711   -0.4642 O.3        1 <1>        0.000
     23 C40         6.0939    2.5775   -1.4604 C.3        1 <1>        0.000
     24 C41         4.8984    1.6040   -1.3335 C.3        1 <1>        0.000
     25 C42         3.6717    2.5337   -1.2400 C.3        1 <1>        0.000
     26 H          -3.1670    2.0764   -0.7867 H.spc      1 <1>        0.000
     27 H          -3.7475    1.3091    0.7155 H.spc      1 <1>        0.000
     28 H          -2.1340    2.6186    2.0335 H.spc      1 <1>        0.000
     29 H          -3.1584    3.7136    1.0443 H.spc      1 <1>        0.000
     30 H          -1.3741    3.9201   -0.6107 H.spc      1 <1>        0.000
     31 H          -0.7518    4.3581    1.0319 H.spc      1 <1>        0.000
     32 H           0.3298    2.2213    1.2360 H.spc      1 <1>        0.000
     33 H          -0.7677    1.6227   -1.5561 H.spc      1 <1>        0.000
     34 H          -1.5153    0.3426    1.1044 H.spc      1 <1>        0.000
     35 H          -2.1323   -0.1368   -0.5149 H.spc      1 <1>        0.000
     36 H           0.8561   -0.1598    0.3101 H.spc      1 <1>        0.000
     37 H           0.2013   -0.6249   -1.2967 H.spc      1 <1>        0.000
     38 H           2.6170   -0.0210   -1.3890 H.spc      1 <1>        0.000
     39 H           1.5975    1.0738   -2.3754 H.spc      1 <1>        0.000
     40 H           2.6483    1.6234    0.4246 H.spc      1 <1>        0.000
     41 H           1.0137    3.4253   -1.4436 H.spc      1 <1>        0.000
     42 H           2.1187    4.0442    1.3024 H.spc      1 <1>        0.000
     43 H           1.1582    5.1333    0.2048 H.spc      1 <1>        0.000
     44 H           3.6083    5.6669    0.2427 H.spc      1 <1>        0.000
     45 H           3.0075    5.2120   -1.3684 H.spc      1 <1>        0.000
     46 H           4.4124    3.5144    0.6398 H.spc      1 <1>        0.000
     47 H           5.3885    4.6960   -1.9474 H.spc      1 <1>        0.000
     48 H           6.9735    5.6246   -0.5990 H.spc      1 <1>        0.000
     49 H           6.3376    4.8317    0.7707 H.spc      1 <1>        0.000
     50 H           9.1581    1.8997   -1.8210 H.spc      1 <1>        0.000
     51 H          10.1794    3.1445   -2.6140 H.spc      1 <1>        0.000
     52 H          11.1199    3.7902   -0.4368 H.spc      1 <1>        0.000
     53 H          11.3392    2.0391   -0.6865 H.spc      1 <1>        0.000
     54 H          10.5123    2.6103    1.6311 H.spc      1 <1>        0.000
     55 H           9.3995    1.5489    0.7376 H.spc      1 <1>        0.000
     56 H           8.1015    3.3340    1.8109 H.spc      1 <1>        0.000
     57 H           9.1507    4.5785    1.0769 H.spc      1 <1>        0.000
     58 H           6.5051    2.4338   -2.4596 H.spc      1 <1>        0.000
     59 H           4.9882    0.9487   -0.4671 H.spc      1 <1>        0.000
     60 H           4.8333    0.9162   -2.1766 H.spc      1 <1>        0.000
     61 H           3.3022    2.7617   -2.2398 H.spc      1 <1>        0.000
@<TRIPOS>BOND
     1   10   11 1  
     2   10   25 1  
     3   11   12 1  
     4    9   10 1  
     5    7    9 1  
     6   12   13 1  
     7    5    7 1  
     8    5    6 1  
     9    4   11 1  
    10    4    5 1  
    11   13   14 1  
    12    3    4 1  
    13   14   15 1  
    14   14   25 1  
    15    1    2 1  
    16    1    6 1  
    17   15   23 1  
    18   16    8 1  
    19   15   16 1  
    20    8   17 1  
    21    8   21 1  
    22    8   22 1  
    23   18   19 1  
    24   17   18 1  
    25    2    3 1  
    26   19   20 1  
    27   20   21 1  
    28   22   23 1  
    29   23   24 1  
    30   24   25 1  
    31    1   26 1  
    32    1   27 1  
    33    2   28 1  
    34    2   29 1  
    35    3   30 1  
    36    3   31 1  
    37    4   32 1  
    38    5   33 1  
    39    6   34 1  
    40    6   35 1  
    41    7   36 1  
    42    7   37 1  
    43    9   38 1  
    44    9   39 1  
    45   10   40 1  
    46   11   41 1  
    47   12   42 1  
    48   12   43 1  
    49   13   44 1  
    50   13   45 1  
    51   14   46 1  
    52   15   47 1  
    53   16   48 1  
    54   16   49 1  
    55   18   50 1  
    56   18   51 1  
    57   19   52 1  
    58   19   53 1  
    59   20   54 1  
    60   20   55 1  
    61   21   56 1  
    62   21   57 1  
    63   23   58 1  
    64   24   59 1  
    65   24   60 1  
    66   25   61 1  
