#      Rotatable Fragment
#      Build by yxyuan
#
# Name:          frag5-628-31/41815
# Creation time: Sat Jun  5 12:53:00 2010


@<TRIPOS>MOLECULE
frag5-628-31/41815
   15    15     1     1     1
SMALL
USER_CHARGES


@<TRIPOS>ATOM
      1 O1          1.5909    2.0123    0.1109 O.3        1 <1>        0.000
      2 C2          0.7544    0.9106    0.0360 C.ar       1 <1>        0.000
      3 C3          1.3017   -0.3764    0.1041 C.ar       1 <1>        0.000
      4 C4          0.4542   -1.4910    0.0285 C.ar       1 <1>        0.000
      5 C5         -0.9263   -1.3330   -0.1149 C.ar       1 <1>        0.000
      6 C6         -1.4964   -0.0545   -0.1841 C.ar       1 <1>        0.000
      7 C7         -0.6399    1.0631   -0.1080 C.ar       1 <1>        0.000
      8 O2         -2.8693    0.0932   -0.3235 O.3        1 <1>        0.000
      9 O3          2.6655   -0.5324    0.2450 O.3        1 <1>        0.000
     10 H           1.0676    2.8148    0.0499 H.spc      1 <1>        0.000
     11 H           0.8781   -2.4937    0.0823 H.spc      1 <1>        0.000
     12 H          -1.5667   -2.2131   -0.1736 H.spc      1 <1>        0.000
     13 H          -1.0645    2.0656   -0.1616 H.spc      1 <1>        0.000
     14 H          -3.0880    1.0274   -0.3542 H.spc      1 <1>        0.000
     15 H           2.8780   -1.4681    0.2756 H.spc      1 <1>        0.000
@<TRIPOS>BOND
     1    1    2 1  
     2    2    3 ar 
     3    2    7 ar 
     4    3    4 ar 
     5    4    5 ar 
     6    5    6 ar 
     7    3    9 1  
     8    6    7 ar 
     9    6    8 1  
    10    1   10 1  
    11    4   11 1  
    12    5   12 1  
    13    7   13 1  
    14    8   14 1  
    15    9   15 1  
# Name:          frag5-628-31/41815 -- energy: -0.339969
# Creation time: Sat Jun  5 12:53:00 2010


@<TRIPOS>MOLECULE
frag5-628-31/41815 -- energy: -0.339969
   15    15     1     1     1
SMALL
USER_CHARGES


@<TRIPOS>ATOM
      1 O1          1.5909    2.0123    0.1109 O.3        1 <1>        0.000
      2 C2          0.7544    0.9106    0.0360 C.ar       1 <1>        0.000
      3 C3          1.3017   -0.3764    0.1041 C.ar       1 <1>        0.000
      4 C4          0.4542   -1.4910    0.0285 C.ar       1 <1>        0.000
      5 C5         -0.9263   -1.3330   -0.1149 C.ar       1 <1>        0.000
      6 C6         -1.4964   -0.0545   -0.1841 C.ar       1 <1>        0.000
      7 C7         -0.6399    1.0631   -0.1080 C.ar       1 <1>        0.000
      8 O2         -2.8693    0.0932   -0.3235 O.3        1 <1>        0.000
      9 O3          2.6655   -0.5324    0.2450 O.3        1 <1>        0.000
     10 H           1.0676    2.8148    0.0499 H.spc      1 <1>        0.000
     11 H           0.8781   -2.4937    0.0823 H.spc      1 <1>        0.000
     12 H          -1.5667   -2.2131   -0.1736 H.spc      1 <1>        0.000
     13 H          -1.0645    2.0656   -0.1616 H.spc      1 <1>        0.000
     14 H          -3.0880    1.0274   -0.3542 H.spc      1 <1>        0.000
     15 H           2.8780   -1.4681    0.2756 H.spc      1 <1>        0.000
@<TRIPOS>BOND
     1    1    2 1  
     2    2    3 ar 
     3    2    7 ar 
     4    3    4 ar 
     5    4    5 ar 
     6    5    6 ar 
     7    3    9 1  
     8    6    7 ar 
     9    6    8 1  
    10    1   10 1  
    11    4   11 1  
    12    5   12 1  
    13    7   13 1  
    14    8   14 1  
    15    9   15 1  
