#      Rotatable Fragment
#      Build by yxyuan
#
# Name:          frag4-386-249/150395
# Creation time: Sat Jun  5 12:53:33 2010


@<TRIPOS>MOLECULE
frag4-386-249/150395
   19    20     1     1     1
SMALL
USER_CHARGES


@<TRIPOS>ATOM
      1 C1         -2.0148   -0.4826   -0.5841 C.3        1 <1>        0.000
      2 C2         -1.9722    1.0348    0.0646 C.3        1 <1>        0.000
      3 C3         -3.5296   -1.1072   -0.4050 C.3        1 <1>        0.000
      4 C5         -3.4920    1.3793    0.6432 C.3        1 <1>        0.000
      5 C7         -3.7847    0.2134   -0.0396 C.3        1 <1>        0.000
      6 C8         -5.0925   -0.6633   -0.1522 C.3        1 <1>        0.000
      7 C9         -5.0817    0.9120    0.5496 C.3        1 <1>        0.000
      8 H          -1.2939   -1.1196   -0.0716 H.spc      1 <1>        0.000
      9 H          -1.7621   -0.4345   -1.6433 H.spc      1 <1>        0.000
     10 H          -1.6802    1.7630   -0.6921 H.spc      1 <1>        0.000
     11 H          -1.2396    1.0827    0.8702 H.spc      1 <1>        0.000
     12 H          -3.3870   -2.1684   -0.6092 H.spc      1 <1>        0.000
     13 H          -3.3209    2.2718    1.2451 H.spc      1 <1>        0.000
     14 H          -4.5731   -0.0686    0.6583 H.spc      1 <1>        0.000
     15 H          -3.4266    0.6089   -0.9901 H.spc      1 <1>        0.000
     16 H          -5.6422   -0.6560   -1.0934 H.spc      1 <1>        0.000
     17 H          -5.5857   -1.3720    0.5130 H.spc      1 <1>        0.000
     18 H          -5.6579    1.6116   -0.0559 H.spc      1 <1>        0.000
     19 H          -5.5428    0.9011    1.5372 H.spc      1 <1>        0.000
@<TRIPOS>BOND
     1    4    7 1  
     2    3    5 1  
     3    4    5 1  
     4    6    7 1  
     5    3    6 1  
     6    1    2 1  
     7    1    3 1  
     8    2    4 1  
     9    1    8 1  
    10    1    9 1  
    11    2   10 1  
    12    2   11 1  
    13    3   12 1  
    14    4   13 1  
    15    5   14 1  
    16    5   15 1  
    17    6   16 1  
    18    6   17 1  
    19    7   18 1  
    20    7   19 1  
