#      Rotatable Fragment
#      Build by yxyuan
#
# Name:          frag2-017-34987/92655
# Creation time: Sat Jun  5 12:51:56 2010


@<TRIPOS>MOLECULE
frag2-017-34987/92655
    4     3     1     1     1
SMALL
USER_CHARGES


@<TRIPOS>ATOM
      1 C21         0.0102    0.0057    0.0001 C.2        1 <1>        0.000
      2 O2         -1.0886   -0.5336   -0.0211 O.2        1 <1>        0.000
      3 H           0.3098    0.5985    0.8644 H.spc      1 <1>        0.000
      4 H           0.6890   -0.1069   -0.8453 H.spc      1 <1>        0.000
@<TRIPOS>BOND
     1    1    2 2  
     2    1    3 1  
     3    1    4 1  
# Name:          frag2-017-34987/92655 -- energy: 0.000000
# Creation time: Sat Jun  5 12:51:56 2010


@<TRIPOS>MOLECULE
frag2-017-34987/92655 -- energy: 0.000000
    4     3     1     1     1
SMALL
USER_CHARGES


@<TRIPOS>ATOM
      1 C21         0.0102    0.0057    0.0001 C.2        1 <1>        0.000
      2 O2         -1.0886   -0.5336   -0.0211 O.2        1 <1>        0.000
      3 H           0.3098    0.5985    0.8644 H.spc      1 <1>        0.000
      4 H           0.6890   -0.1069   -0.8453 H.spc      1 <1>        0.000
@<TRIPOS>BOND
     1    1    2 2  
     2    1    3 1  
     3    1    4 1  
