#      Rotatable Fragment
#      Build by yxyuan
#
# Name:          frag5-564-152/138278
# Creation time: Sat Jun  5 12:53:44 2010


@<TRIPOS>MOLECULE
frag5-564-152/138278
   17    17     1     1     1
SMALL
USER_CHARGES


@<TRIPOS>ATOM
      1 C1         -1.0833   -0.4675    0.3908 C.3        1 <1>        0.000
      2 N1         -2.2909    0.3446    0.2838 N.am       1 <1>        0.000
      3 C3         -1.4060   -1.7795   -0.2424 C.3        1 <1>        0.000
      4 C4         -2.2852    1.6677    0.5181 C.2        1 <1>        0.000
      5 C5         -3.3671   -0.4832   -0.2215 C.3        1 <1>        0.000
      6 C6         -2.8922   -1.8851   -0.0360 C.3        1 <1>        0.000
      7 O2         -3.2273    2.0998    1.3724 O.3        1 <1>        0.000
      8 O3         -1.4849    2.4369    0.0329 O.2        1 <1>        0.000
      9 H          -0.7874   -0.5960    1.4319 H.spc      1 <1>        0.000
     10 H          -0.2415    0.0128   -0.1079 H.spc      1 <1>        0.000
     11 H          -0.8543   -2.6116    0.1951 H.spc      1 <1>        0.000
     12 H          -1.1164   -1.8293   -1.2921 H.spc      1 <1>        0.000
     13 H          -4.3021   -0.2991    0.3076 H.spc      1 <1>        0.000
     14 H          -3.5888   -0.2657   -1.2663 H.spc      1 <1>        0.000
     15 H          -3.3629   -2.5820   -0.7295 H.spc      1 <1>        0.000
     16 H          -3.1515   -2.2891    0.9426 H.spc      1 <1>        0.000
     17 H          -3.7678    1.3577    1.6530 H.spc      1 <1>        0.000
@<TRIPOS>BOND
     1    5    6 1  
     2    4    8 2  
     3    1    2 1  
     4    1    3 1  
     5    2    4 am 
     6    2    5 1  
     7    3    6 1  
     8    4    7 1  
     9    1    9 1  
    10    1   10 1  
    11    3   11 1  
    12    3   12 1  
    13    5   13 1  
    14    5   14 1  
    15    6   15 1  
    16    6   16 1  
    17    7   17 1  
# Name:          frag5-564-152/138278
# Creation time: Sat Jun  5 12:53:44 2010


@<TRIPOS>MOLECULE
frag5-564-152/138278
   17    17     1     1     1
SMALL
USER_CHARGES


@<TRIPOS>ATOM
      1 C1         -3.3922   -0.5075   -0.0321 C.3        1 <1>        0.000
      2 N1         -2.2753    0.3814    0.0257 N.am       1 <1>        0.000
      3 C3         -2.8356   -1.8208    0.4124 C.3        1 <1>        0.000
      4 C4         -2.2797    1.6202    0.5816 C.2        1 <1>        0.000
      5 C5         -1.0971   -0.3615   -0.4598 C.3        1 <1>        0.000
      6 C6         -1.4063   -1.7939   -0.1157 C.3        1 <1>        0.000
      7 O2         -3.4713    2.1513    0.8909 O.3        1 <1>        0.000
      8 O3         -1.2793    2.2645    0.7952 O.2        1 <1>        0.000
      9 H          -3.8257   -0.5603   -1.0308 H.spc      1 <1>        0.000
     10 H          -4.2169   -0.1748    0.5982 H.spc      1 <1>        0.000
     11 H          -3.4068   -2.6682    0.0331 H.spc      1 <1>        0.000
     12 H          -2.8806   -1.9508    1.4937 H.spc      1 <1>        0.000
     13 H          -0.9285   -0.2190   -1.5272 H.spc      1 <1>        0.000
     14 H          -0.1711   -0.0157   -0.0003 H.spc      1 <1>        0.000
     15 H          -0.7094   -2.1720    0.6323 H.spc      1 <1>        0.000
     16 H          -1.3048   -2.4338   -0.9923 H.spc      1 <1>        0.000
     17 H          -4.1661    1.5281    0.6663 H.spc      1 <1>        0.000
@<TRIPOS>BOND
     1    5    6 1  
     2    4    8 2  
     3    1    2 1  
     4    1    3 1  
     5    2    4 am 
     6    2    5 1  
     7    3    6 1  
     8    4    7 1  
     9    1    9 1  
    10    1   10 1  
    11    3   11 1  
    12    3   12 1  
    13    5   13 1  
    14    5   14 1  
    15    6   15 1  
    16    6   16 1  
    17    7   17 1  
# Name:          frag5-564-152/138278
# Creation time: Sat Jun  5 12:53:44 2010


@<TRIPOS>MOLECULE
frag5-564-152/138278
   17    17     1     1     1
SMALL
USER_CHARGES


@<TRIPOS>ATOM
      1 C1         -1.0327   -0.4495    0.2637 C.3        1 <1>        0.000
      2 N1         -2.2827    0.2685    0.5310 N.am       1 <1>        0.000
      3 C3         -1.4742   -1.5283   -0.6891 C.3        1 <1>        0.000
      4 C4         -2.2907    1.6259    0.5124 C.2        1 <1>        0.000
      5 C5         -3.3403   -0.7040    0.6713 C.3        1 <1>        0.000
      6 C6         -2.8975   -1.8422   -0.2199 C.3        1 <1>        0.000
      7 O2         -3.4512    2.2890    0.5503 O.3        1 <1>        0.000
      8 O3         -1.2676    2.2745    0.4783 O.2        1 <1>        0.000
      9 H          -0.5643   -0.8422    1.1662 H.spc      1 <1>        0.000
     10 H          -0.2521    0.1905   -0.1477 H.spc      1 <1>        0.000
     11 H          -0.8215   -2.4010   -0.6703 H.spc      1 <1>        0.000
     12 H          -1.4334   -1.2132   -1.7317 H.spc      1 <1>        0.000
     13 H          -3.4847   -1.0164    1.7055 H.spc      1 <1>        0.000
     14 H          -4.3137   -0.3053    0.3855 H.spc      1 <1>        0.000
     15 H          -3.5680   -1.9426   -1.0734 H.spc      1 <1>        0.000
     16 H          -2.9210   -2.7859    0.3251 H.spc      1 <1>        0.000
     17 H          -4.1767    1.6608    0.5746 H.spc      1 <1>        0.000
@<TRIPOS>BOND
     1    5    6 1  
     2    4    8 2  
     3    1    2 1  
     4    1    3 1  
     5    2    4 am 
     6    2    5 1  
     7    3    6 1  
     8    4    7 1  
     9    1    9 1  
    10    1   10 1  
    11    3   11 1  
    12    3   12 1  
    13    5   13 1  
    14    5   14 1  
    15    6   15 1  
    16    6   16 1  
    17    7   17 1  
# Name:          frag5-564-152/138278 -- energy: -1.646843
# Creation time: Sat Jun  5 12:53:44 2010


@<TRIPOS>MOLECULE
frag5-564-152/138278 -- energy: -1.646843
   17    17     1     1     1
SMALL
USER_CHARGES


@<TRIPOS>ATOM
      1 C1         -1.0833   -0.4675    0.3908 C.3        1 <1>        0.000
      2 N1         -2.2909    0.3446    0.2838 N.am       1 <1>        0.000
      3 C3         -1.4060   -1.7795   -0.2424 C.3        1 <1>        0.000
      4 C4         -2.2852    1.6677    0.5181 C.2        1 <1>        0.000
      5 C5         -3.3671   -0.4832   -0.2215 C.3        1 <1>        0.000
      6 C6         -2.8922   -1.8851   -0.0360 C.3        1 <1>        0.000
      7 O2         -3.2273    2.0998    1.3724 O.3        1 <1>        0.000
      8 O3         -1.4849    2.4369    0.0329 O.2        1 <1>        0.000
      9 H          -0.7874   -0.5960    1.4319 H.spc      1 <1>        0.000
     10 H          -0.2415    0.0128   -0.1079 H.spc      1 <1>        0.000
     11 H          -0.8543   -2.6116    0.1951 H.spc      1 <1>        0.000
     12 H          -1.1164   -1.8293   -1.2921 H.spc      1 <1>        0.000
     13 H          -4.3021   -0.2991    0.3076 H.spc      1 <1>        0.000
     14 H          -3.5888   -0.2657   -1.2663 H.spc      1 <1>        0.000
     15 H          -3.3629   -2.5820   -0.7295 H.spc      1 <1>        0.000
     16 H          -3.1515   -2.2891    0.9426 H.spc      1 <1>        0.000
     17 H          -3.7678    1.3577    1.6530 H.spc      1 <1>        0.000
@<TRIPOS>BOND
     1    5    6 1  
     2    4    8 2  
     3    1    2 1  
     4    1    3 1  
     5    2    4 am 
     6    2    5 1  
     7    3    6 1  
     8    4    7 1  
     9    1    9 1  
    10    1   10 1  
    11    3   11 1  
    12    3   12 1  
    13    5   13 1  
    14    5   14 1  
    15    6   15 1  
    16    6   16 1  
    17    7   17 1  
# Name:          frag5-564-152/138278 -- energy: 1.001509
# Creation time: Sat Jun  5 12:53:44 2010


@<TRIPOS>MOLECULE
frag5-564-152/138278 -- energy: 1.001509
   17    17     1     1     1
SMALL
USER_CHARGES


@<TRIPOS>ATOM
      1 C1         -3.3922   -0.5075   -0.0321 C.3        1 <1>        0.000
      2 N1         -2.2753    0.3814    0.0257 N.am       1 <1>        0.000
      3 C3         -2.8356   -1.8208    0.4124 C.3        1 <1>        0.000
      4 C4         -2.2797    1.6202    0.5816 C.2        1 <1>        0.000
      5 C5         -1.0971   -0.3615   -0.4598 C.3        1 <1>        0.000
      6 C6         -1.4063   -1.7939   -0.1157 C.3        1 <1>        0.000
      7 O2         -3.4713    2.1513    0.8909 O.3        1 <1>        0.000
      8 O3         -1.2793    2.2645    0.7952 O.2        1 <1>        0.000
      9 H          -3.8257   -0.5603   -1.0308 H.spc      1 <1>        0.000
     10 H          -4.2169   -0.1748    0.5982 H.spc      1 <1>        0.000
     11 H          -3.4068   -2.6682    0.0331 H.spc      1 <1>        0.000
     12 H          -2.8806   -1.9508    1.4937 H.spc      1 <1>        0.000
     13 H          -0.9285   -0.2190   -1.5272 H.spc      1 <1>        0.000
     14 H          -0.1711   -0.0157   -0.0003 H.spc      1 <1>        0.000
     15 H          -0.7094   -2.1720    0.6323 H.spc      1 <1>        0.000
     16 H          -1.3048   -2.4338   -0.9923 H.spc      1 <1>        0.000
     17 H          -4.1661    1.5281    0.6663 H.spc      1 <1>        0.000
@<TRIPOS>BOND
     1    5    6 1  
     2    4    8 2  
     3    1    2 1  
     4    1    3 1  
     5    2    4 am 
     6    2    5 1  
     7    3    6 1  
     8    4    7 1  
     9    1    9 1  
    10    1   10 1  
    11    3   11 1  
    12    3   12 1  
    13    5   13 1  
    14    5   14 1  
    15    6   15 1  
    16    6   16 1  
    17    7   17 1  
# Name:          frag5-564-152/138278 -- energy: -1.194149
# Creation time: Sat Jun  5 12:53:44 2010


@<TRIPOS>MOLECULE
frag5-564-152/138278 -- energy: -1.194149
   17    17     1     1     1
SMALL
USER_CHARGES


@<TRIPOS>ATOM
      1 C1         -1.0327   -0.4495    0.2637 C.3        1 <1>        0.000
      2 N1         -2.2827    0.2685    0.5310 N.am       1 <1>        0.000
      3 C3         -1.4742   -1.5283   -0.6891 C.3        1 <1>        0.000
      4 C4         -2.2907    1.6259    0.5124 C.2        1 <1>        0.000
      5 C5         -3.3403   -0.7040    0.6713 C.3        1 <1>        0.000
      6 C6         -2.8975   -1.8422   -0.2199 C.3        1 <1>        0.000
      7 O2         -3.4512    2.2890    0.5503 O.3        1 <1>        0.000
      8 O3         -1.2676    2.2745    0.4783 O.2        1 <1>        0.000
      9 H          -0.5643   -0.8422    1.1662 H.spc      1 <1>        0.000
     10 H          -0.2521    0.1905   -0.1477 H.spc      1 <1>        0.000
     11 H          -0.8215   -2.4010   -0.6703 H.spc      1 <1>        0.000
     12 H          -1.4334   -1.2132   -1.7317 H.spc      1 <1>        0.000
     13 H          -3.4847   -1.0164    1.7055 H.spc      1 <1>        0.000
     14 H          -4.3137   -0.3053    0.3855 H.spc      1 <1>        0.000
     15 H          -3.5680   -1.9426   -1.0734 H.spc      1 <1>        0.000
     16 H          -2.9210   -2.7859    0.3251 H.spc      1 <1>        0.000
     17 H          -4.1767    1.6608    0.5746 H.spc      1 <1>        0.000
@<TRIPOS>BOND
     1    5    6 1  
     2    4    8 2  
     3    1    2 1  
     4    1    3 1  
     5    2    4 am 
     6    2    5 1  
     7    3    6 1  
     8    4    7 1  
     9    1    9 1  
    10    1   10 1  
    11    3   11 1  
    12    3   12 1  
    13    5   13 1  
    14    5   14 1  
    15    6   15 1  
    16    6   16 1  
    17    7   17 1  
