#      Rotatable Fragment
#      Build by yxyuan
#
# Name:          frag5-592-117/138278
# Creation time: Sat Jun  5 12:53:45 2010


@<TRIPOS>MOLECULE
frag5-592-117/138278
   15    15     1     1     1
SMALL
USER_CHARGES


@<TRIPOS>ATOM
      1 C1         -0.8997   -0.3961   -0.2544 C.ar       1 <1>        0.000
      2 C2          0.3358    0.4072   -0.6306 C.2        1 <1>        0.000
      3 C3         -2.1168    0.2763   -0.1090 C.ar       1 <1>        0.000
      4 C4         -0.8853   -1.7786   -0.0454 C.ar       1 <1>        0.000
      5 N1          0.5062    1.6997   -0.2619 N.am       1 <1>        0.000
      6 O1          1.1930   -0.1511   -1.2983 O.2        1 <1>        0.000
      7 C5         -3.2638   -0.4242    0.2702 C.ar       1 <1>        0.000
      8 N2         -1.9926   -2.4404    0.3560 N.ar       1 <1>        0.000
      9 C7         -3.1700   -1.7957    0.5154 C.ar       1 <1>        0.000
     10 H          -2.1705    1.3495   -0.2920 H.spc      1 <1>        0.000
     11 H           0.0382   -2.3337   -0.2097 H.spc      1 <1>        0.000
     12 H           1.3480    2.2032   -0.5418 H.spc      1 <1>        0.000
     13 H          -0.2073    2.1693    0.2956 H.spc      1 <1>        0.000
     14 H          -4.2183    0.0920    0.3733 H.spc      1 <1>        0.000
     15 H          -4.0517   -2.3499    0.8373 H.spc      1 <1>        0.000
@<TRIPOS>BOND
     1    8    9 ar 
     2    1    2 1  
     3    1    3 ar 
     4    1    4 ar 
     5    2    5 am 
     6    2    6 2  
     7    3    7 ar 
     8    4    8 ar 
     9    7    9 ar 
    10    3   10 1  
    11    4   11 1  
    12    5   12 1  
    13    5   13 1  
    14    7   14 1  
    15    9   15 1  
# Name:          frag5-592-117/138278
# Creation time: Sat Jun  5 12:53:45 2010


@<TRIPOS>MOLECULE
frag5-592-117/138278
   15    15     1     1     1
SMALL
USER_CHARGES


@<TRIPOS>ATOM
      1 C1         -0.9034   -0.3892   -0.2525 C.ar       1 <1>        0.000
      2 C2          0.3397    0.4108   -0.6103 C.2        1 <1>        0.000
      3 C3         -2.0006    0.2855    0.2908 C.ar       1 <1>        0.000
      4 C4         -1.0114   -1.7705   -0.4419 C.ar       1 <1>        0.000
      5 N1          0.2786    1.6251   -1.2085 N.am       1 <1>        0.000
      6 O1          1.4263   -0.0829   -0.3500 O.2        1 <1>        0.000
      7 C5         -3.1455   -0.4223    0.6620 C.ar       1 <1>        0.000
      8 N2         -2.1090   -2.4507   -0.0446 N.ar       1 <1>        0.000
      9 C7         -3.1681   -1.8087    0.4971 C.ar       1 <1>        0.000
     10 H          -1.9623    1.3665    0.4249 H.spc      1 <1>        0.000
     11 H          -0.1933   -2.3094   -0.9198 H.spc      1 <1>        0.000
     12 H           1.1380    2.1235   -1.4398 H.spc      1 <1>        0.000
     13 H          -0.6268    2.0408   -1.4275 H.spc      1 <1>        0.000
     14 H          -4.0089    0.0997    1.0744 H.spc      1 <1>        0.000
     15 H          -4.0452   -2.3768    0.8071 H.spc      1 <1>        0.000
@<TRIPOS>BOND
     1    8    9 ar 
     2    1    2 1  
     3    1    3 ar 
     4    1    4 ar 
     5    2    5 am 
     6    2    6 2  
     7    3    7 ar 
     8    4    8 ar 
     9    7    9 ar 
    10    3   10 1  
    11    4   11 1  
    12    5   12 1  
    13    5   13 1  
    14    7   14 1  
    15    9   15 1  
# Name:          frag5-592-117/138278
# Creation time: Sat Jun  5 12:53:45 2010


@<TRIPOS>MOLECULE
frag5-592-117/138278
   15    15     1     1     1
SMALL
USER_CHARGES


@<TRIPOS>ATOM
      1 C1         -0.9058   -0.3819   -0.2458 C.ar       1 <1>        0.000
      2 C2          0.3109    0.4489   -0.6240 C.2        1 <1>        0.000
      3 C3         -2.1774    0.1544   -0.4631 C.ar       1 <1>        0.000
      4 C4         -0.8191   -1.6623    0.3113 C.ar       1 <1>        0.000
      5 N1          1.5791   -0.0155   -0.4958 N.am       1 <1>        0.000
      6 O1          0.1183    1.5759   -1.0484 O.2        1 <1>        0.000
      7 C5         -3.3151   -0.5675   -0.0949 C.ar       1 <1>        0.000
      8 N2         -1.9254   -2.3363    0.6973 N.ar       1 <1>        0.000
      9 C7         -3.1589   -1.8186    0.5056 C.ar       1 <1>        0.000
     10 H          -2.2819    1.1381   -0.9209 H.spc      1 <1>        0.000
     11 H           0.1596   -2.1254    0.4365 H.spc      1 <1>        0.000
     12 H           2.3679    0.5774   -0.7540 H.spc      1 <1>        0.000
     13 H           1.7438   -0.9576   -0.1412 H.spc      1 <1>        0.000
     14 H          -4.3103   -0.1603   -0.2737 H.spc      1 <1>        0.000
     15 H          -4.0374   -2.3811    0.8217 H.spc      1 <1>        0.000
@<TRIPOS>BOND
     1    8    9 ar 
     2    1    2 1  
     3    1    3 ar 
     4    1    4 ar 
     5    2    5 am 
     6    2    6 2  
     7    3    7 ar 
     8    4    8 ar 
     9    7    9 ar 
    10    3   10 1  
    11    4   11 1  
    12    5   12 1  
    13    5   13 1  
    14    7   14 1  
    15    9   15 1  
# Name:          frag5-592-117/138278
# Creation time: Sat Jun  5 12:53:45 2010


@<TRIPOS>MOLECULE
frag5-592-117/138278
   15    15     1     1     1
SMALL
USER_CHARGES


@<TRIPOS>ATOM
      1 C1         -0.9004   -0.3917   -0.2495 C.ar       1 <1>        0.000
      2 C2          0.3220    0.4238   -0.6411 C.2        1 <1>        0.000
      3 C3         -2.1690    0.1201   -0.5369 C.ar       1 <1>        0.000
      4 C4         -0.8241   -1.6358    0.3863 C.ar       1 <1>        0.000
      5 N1          1.1559    0.9740    0.2756 N.am       1 <1>        0.000
      6 O1          0.5397    0.5833   -1.8316 O.2        1 <1>        0.000
      7 C5         -3.3126   -0.5864   -0.1600 C.ar       1 <1>        0.000
      8 N2         -1.9373   -2.2927    0.7792 N.ar       1 <1>        0.000
      9 C7         -3.1675   -1.7975    0.5202 C.ar       1 <1>        0.000
     10 H          -2.2656    1.0733   -1.0567 H.spc      1 <1>        0.000
     11 H           0.1528   -2.0838    0.5682 H.spc      1 <1>        0.000
     12 H           1.9619    1.5190   -0.0304 H.spc      1 <1>        0.000
     13 H           0.9772    0.8429    1.2712 H.spc      1 <1>        0.000
     14 H          -4.3042   -0.1985   -0.3932 H.spc      1 <1>        0.000
     15 H          -4.0518   -2.3464    0.8440 H.spc      1 <1>        0.000
@<TRIPOS>BOND
     1    8    9 ar 
     2    1    2 1  
     3    1    3 ar 
     4    1    4 ar 
     5    2    5 am 
     6    2    6 2  
     7    3    7 ar 
     8    4    8 ar 
     9    7    9 ar 
    10    3   10 1  
    11    4   11 1  
    12    5   12 1  
    13    5   13 1  
    14    7   14 1  
    15    9   15 1  
# Name:          frag5-592-117/138278 -- energy: -0.518492
# Creation time: Sat Jun  5 12:53:45 2010


@<TRIPOS>MOLECULE
frag5-592-117/138278 -- energy: -0.518492
   15    15     1     1     1
SMALL
USER_CHARGES


@<TRIPOS>ATOM
      1 C1         -0.8997   -0.3961   -0.2544 C.ar       1 <1>        0.000
      2 C2          0.3358    0.4072   -0.6306 C.2        1 <1>        0.000
      3 C3         -2.1168    0.2763   -0.1090 C.ar       1 <1>        0.000
      4 C4         -0.8853   -1.7786   -0.0454 C.ar       1 <1>        0.000
      5 N1          0.5062    1.6997   -0.2619 N.am       1 <1>        0.000
      6 O1          1.1930   -0.1511   -1.2983 O.2        1 <1>        0.000
      7 C5         -3.2638   -0.4242    0.2702 C.ar       1 <1>        0.000
      8 N2         -1.9926   -2.4404    0.3560 N.ar       1 <1>        0.000
      9 C7         -3.1700   -1.7957    0.5154 C.ar       1 <1>        0.000
     10 H          -2.1705    1.3495   -0.2920 H.spc      1 <1>        0.000
     11 H           0.0382   -2.3337   -0.2097 H.spc      1 <1>        0.000
     12 H           1.3480    2.2032   -0.5418 H.spc      1 <1>        0.000
     13 H          -0.2073    2.1693    0.2956 H.spc      1 <1>        0.000
     14 H          -4.2183    0.0920    0.3733 H.spc      1 <1>        0.000
     15 H          -4.0517   -2.3499    0.8373 H.spc      1 <1>        0.000
@<TRIPOS>BOND
     1    8    9 ar 
     2    1    2 1  
     3    1    3 ar 
     4    1    4 ar 
     5    2    5 am 
     6    2    6 2  
     7    3    7 ar 
     8    4    8 ar 
     9    7    9 ar 
    10    3   10 1  
    11    4   11 1  
    12    5   12 1  
    13    5   13 1  
    14    7   14 1  
    15    9   15 1  
# Name:          frag5-592-117/138278 -- energy: -0.571608
# Creation time: Sat Jun  5 12:53:45 2010


@<TRIPOS>MOLECULE
frag5-592-117/138278 -- energy: -0.571608
   15    15     1     1     1
SMALL
USER_CHARGES


@<TRIPOS>ATOM
      1 C1         -0.9034   -0.3892   -0.2525 C.ar       1 <1>        0.000
      2 C2          0.3397    0.4108   -0.6103 C.2        1 <1>        0.000
      3 C3         -2.0006    0.2855    0.2908 C.ar       1 <1>        0.000
      4 C4         -1.0114   -1.7705   -0.4419 C.ar       1 <1>        0.000
      5 N1          0.2786    1.6251   -1.2085 N.am       1 <1>        0.000
      6 O1          1.4263   -0.0829   -0.3500 O.2        1 <1>        0.000
      7 C5         -3.1455   -0.4223    0.6620 C.ar       1 <1>        0.000
      8 N2         -2.1090   -2.4507   -0.0446 N.ar       1 <1>        0.000
      9 C7         -3.1681   -1.8087    0.4971 C.ar       1 <1>        0.000
     10 H          -1.9623    1.3665    0.4249 H.spc      1 <1>        0.000
     11 H          -0.1933   -2.3094   -0.9198 H.spc      1 <1>        0.000
     12 H           1.1380    2.1235   -1.4398 H.spc      1 <1>        0.000
     13 H          -0.6268    2.0408   -1.4275 H.spc      1 <1>        0.000
     14 H          -4.0089    0.0997    1.0744 H.spc      1 <1>        0.000
     15 H          -4.0452   -2.3768    0.8071 H.spc      1 <1>        0.000
@<TRIPOS>BOND
     1    8    9 ar 
     2    1    2 1  
     3    1    3 ar 
     4    1    4 ar 
     5    2    5 am 
     6    2    6 2  
     7    3    7 ar 
     8    4    8 ar 
     9    7    9 ar 
    10    3   10 1  
    11    4   11 1  
    12    5   12 1  
    13    5   13 1  
    14    7   14 1  
    15    9   15 1  
# Name:          frag5-592-117/138278 -- energy: -0.273259
# Creation time: Sat Jun  5 12:53:45 2010


@<TRIPOS>MOLECULE
frag5-592-117/138278 -- energy: -0.273259
   15    15     1     1     1
SMALL
USER_CHARGES


@<TRIPOS>ATOM
      1 C1         -0.9058   -0.3819   -0.2458 C.ar       1 <1>        0.000
      2 C2          0.3109    0.4489   -0.6240 C.2        1 <1>        0.000
      3 C3         -2.1774    0.1544   -0.4631 C.ar       1 <1>        0.000
      4 C4         -0.8191   -1.6623    0.3113 C.ar       1 <1>        0.000
      5 N1          1.5791   -0.0155   -0.4958 N.am       1 <1>        0.000
      6 O1          0.1183    1.5759   -1.0484 O.2        1 <1>        0.000
      7 C5         -3.3151   -0.5675   -0.0949 C.ar       1 <1>        0.000
      8 N2         -1.9254   -2.3363    0.6973 N.ar       1 <1>        0.000
      9 C7         -3.1589   -1.8186    0.5056 C.ar       1 <1>        0.000
     10 H          -2.2819    1.1381   -0.9209 H.spc      1 <1>        0.000
     11 H           0.1596   -2.1254    0.4365 H.spc      1 <1>        0.000
     12 H           2.3679    0.5774   -0.7540 H.spc      1 <1>        0.000
     13 H           1.7438   -0.9576   -0.1412 H.spc      1 <1>        0.000
     14 H          -4.3103   -0.1603   -0.2737 H.spc      1 <1>        0.000
     15 H          -4.0374   -2.3811    0.8217 H.spc      1 <1>        0.000
@<TRIPOS>BOND
     1    8    9 ar 
     2    1    2 1  
     3    1    3 ar 
     4    1    4 ar 
     5    2    5 am 
     6    2    6 2  
     7    3    7 ar 
     8    4    8 ar 
     9    7    9 ar 
    10    3   10 1  
    11    4   11 1  
    12    5   12 1  
    13    5   13 1  
    14    7   14 1  
    15    9   15 1  
# Name:          frag5-592-117/138278 -- energy: -0.550239
# Creation time: Sat Jun  5 12:53:45 2010


@<TRIPOS>MOLECULE
frag5-592-117/138278 -- energy: -0.550239
   15    15     1     1     1
SMALL
USER_CHARGES


@<TRIPOS>ATOM
      1 C1         -0.9004   -0.3917   -0.2495 C.ar       1 <1>        0.000
      2 C2          0.3220    0.4238   -0.6411 C.2        1 <1>        0.000
      3 C3         -2.1690    0.1201   -0.5369 C.ar       1 <1>        0.000
      4 C4         -0.8241   -1.6358    0.3863 C.ar       1 <1>        0.000
      5 N1          1.1559    0.9740    0.2756 N.am       1 <1>        0.000
      6 O1          0.5397    0.5833   -1.8316 O.2        1 <1>        0.000
      7 C5         -3.3126   -0.5864   -0.1600 C.ar       1 <1>        0.000
      8 N2         -1.9373   -2.2927    0.7792 N.ar       1 <1>        0.000
      9 C7         -3.1675   -1.7975    0.5202 C.ar       1 <1>        0.000
     10 H          -2.2656    1.0733   -1.0567 H.spc      1 <1>        0.000
     11 H           0.1528   -2.0838    0.5682 H.spc      1 <1>        0.000
     12 H           1.9619    1.5190   -0.0304 H.spc      1 <1>        0.000
     13 H           0.9772    0.8429    1.2712 H.spc      1 <1>        0.000
     14 H          -4.3042   -0.1985   -0.3932 H.spc      1 <1>        0.000
     15 H          -4.0518   -2.3464    0.8440 H.spc      1 <1>        0.000
@<TRIPOS>BOND
     1    8    9 ar 
     2    1    2 1  
     3    1    3 ar 
     4    1    4 ar 
     5    2    5 am 
     6    2    6 2  
     7    3    7 ar 
     8    4    8 ar 
     9    7    9 ar 
    10    3   10 1  
    11    4   11 1  
    12    5   12 1  
    13    5   13 1  
    14    7   14 1  
    15    9   15 1  
