#      Rotatable Fragment
#      Build by yxyuan
#
# Name:          frag4-467-103/150395
# Creation time: Sat Jun  5 12:53:37 2010


@<TRIPOS>MOLECULE
frag4-467-103/150395
   16    17     1     1     1
SMALL
USER_CHARGES


@<TRIPOS>ATOM
      1 C1          2.1216    0.5952    0.1702 C.ar       1 <1>        0.000
      2 C2          2.2472   -0.8333    0.1099 C.ar       1 <1>        0.000
      3 C3          0.8681    1.3033    0.2273 C.ar       1 <1>        0.000
      4 C4          3.4432    1.3201    0.1560 C.ar       1 <1>        0.000
      5 C5          0.9771   -1.5834    0.0626 C.ar       1 <1>        0.000
      6 N1          3.4678   -1.4217    0.1007 N.ar       1 <1>        0.000
      7 C6         -0.3365    0.4513    0.1652 C.ar       1 <1>        0.000
      8 N2          4.5613    0.6325    0.1197 N.ar       1 <1>        0.000
      9 C7         -0.3579   -1.0026    0.0715 C.ar       1 <1>        0.000
     10 C8          4.5590   -0.6867    0.0938 C.ar       1 <1>        0.000
     11 H           0.8129    2.3887    0.3103 H.spc      1 <1>        0.000
     12 H           3.4706    2.4096    0.1758 H.spc      1 <1>        0.000
     13 H           1.0446   -2.6703    0.0169 H.spc      1 <1>        0.000
     14 H          -1.3011    0.9581    0.1920 H.spc      1 <1>        0.000
     15 H          -1.2735   -1.5912    0.0143 H.spc      1 <1>        0.000
     16 H           5.5205   -1.1992    0.0649 H.spc      1 <1>        0.000
@<TRIPOS>BOND
     1    5    9 ar 
     2    7    9 ar 
     3    8   10 ar 
     4    6   10 ar 
     5    1    2 ar 
     6    1    4 ar 
     7    1    3 ar 
     8    2    5 ar 
     9    2    6 ar 
    10    3    7 ar 
    11    4    8 ar 
    12    3   11 1  
    13    4   12 1  
    14    5   13 1  
    15    7   14 1  
    16    9   15 1  
    17   10   16 1  
# Name:          frag4-467-103/150395 -- energy: -0.377673
# Creation time: Sat Jun  5 12:53:37 2010


@<TRIPOS>MOLECULE
frag4-467-103/150395 -- energy: -0.377673
   16    17     1     1     1
SMALL
USER_CHARGES


@<TRIPOS>ATOM
      1 C1          2.1216    0.5952    0.1702 C.ar       1 <1>        0.000
      2 C2          2.2472   -0.8333    0.1099 C.ar       1 <1>        0.000
      3 C3          0.8681    1.3033    0.2273 C.ar       1 <1>        0.000
      4 C4          3.4432    1.3201    0.1560 C.ar       1 <1>        0.000
      5 C5          0.9771   -1.5834    0.0626 C.ar       1 <1>        0.000
      6 N1          3.4678   -1.4217    0.1007 N.ar       1 <1>        0.000
      7 C6         -0.3365    0.4513    0.1652 C.ar       1 <1>        0.000
      8 N2          4.5613    0.6325    0.1197 N.ar       1 <1>        0.000
      9 C7         -0.3579   -1.0026    0.0715 C.ar       1 <1>        0.000
     10 C8          4.5590   -0.6867    0.0938 C.ar       1 <1>        0.000
     11 H           0.8129    2.3887    0.3103 H.spc      1 <1>        0.000
     12 H           3.4706    2.4096    0.1758 H.spc      1 <1>        0.000
     13 H           1.0446   -2.6703    0.0169 H.spc      1 <1>        0.000
     14 H          -1.3011    0.9581    0.1920 H.spc      1 <1>        0.000
     15 H          -1.2735   -1.5912    0.0143 H.spc      1 <1>        0.000
     16 H           5.5205   -1.1992    0.0649 H.spc      1 <1>        0.000
@<TRIPOS>BOND
     1    5    9 ar 
     2    7    9 ar 
     3    8   10 ar 
     4    6   10 ar 
     5    1    2 ar 
     6    1    4 ar 
     7    1    3 ar 
     8    2    5 ar 
     9    2    6 ar 
    10    3    7 ar 
    11    4    8 ar 
    12    3   11 1  
    13    4   12 1  
    14    5   13 1  
    15    7   14 1  
    16    9   15 1  
    17   10   16 1  
