#      Rotatable Fragment
#      Build by yxyuan
#
# Name:          frag5-554-56/41815
# Creation time: Sat Jun  5 12:52:53 2010


@<TRIPOS>MOLECULE
frag5-554-56/41815
   16    16     1     1     1
SMALL
USER_CHARGES


@<TRIPOS>ATOM
      1 O2          3.1294    0.5419   -0.7635 O.3        1 <1>        0.000
      2 C8          2.3440   -0.3982   -0.1912 C.2        1 <1>        0.000
      3 O3          2.8179   -1.4286    0.2530 O.2        1 <1>        0.000
      4 C9          0.8929   -0.1620   -0.1017 C.ar       1 <1>        0.000
      5 C10         0.3756    1.1298    0.1148 C.ar       1 <1>        0.000
      6 C11        -1.0214    1.3441    0.1977 C.ar       1 <1>        0.000
      7 C12        -1.9501    0.2939    0.0708 C.ar       1 <1>        0.000
      8 C13        -1.4155   -0.9941   -0.1466 C.ar       1 <1>        0.000
      9 C14        -0.0231   -1.2249   -0.2308 C.ar       1 <1>        0.000
     10 O4         -3.3000    0.5161    0.1560 O.3        1 <1>        0.000
     11 H           2.5859    1.2784   -1.0529 H.spc      1 <1>        0.000
     12 H           1.0578    1.9734    0.2196 H.spc      1 <1>        0.000
     13 H          -1.3901    2.3560    0.3654 H.spc      1 <1>        0.000
     14 H          -2.0976   -1.8376   -0.2530 H.spc      1 <1>        0.000
     15 H           0.3460   -2.2368   -0.3975 H.spc      1 <1>        0.000
     16 H          -3.7676   -0.3150    0.0455 H.spc      1 <1>        0.000
@<TRIPOS>BOND
     1    8    9 ar 
     2    7   10 1  
     3    1    2 1  
     4    2    4 1  
     5    2    3 2  
     6    4    5 ar 
     7    4    9 ar 
     8    5    6 ar 
     9    6    7 ar 
    10    7    8 ar 
    11    1   11 1  
    12    5   12 1  
    13    6   13 1  
    14    8   14 1  
    15    9   15 1  
    16   10   16 1  
# Name:          frag5-554-56/41815
# Creation time: Sat Jun  5 12:52:53 2010


@<TRIPOS>MOLECULE
frag5-554-56/41815
   16    16     1     1     1
SMALL
USER_CHARGES


@<TRIPOS>ATOM
      1 O2          3.1905    0.4481    0.4058 O.3        1 <1>        0.000
      2 C8          2.3411   -0.3944   -0.2260 C.2        1 <1>        0.000
      3 O3          2.7604   -1.3390   -0.8717 O.2        1 <1>        0.000
      4 C9          0.8914   -0.1638   -0.1225 C.ar       1 <1>        0.000
      5 C10         0.0095   -1.2053    0.2249 C.ar       1 <1>        0.000
      6 C11        -1.3839   -0.9707    0.3228 C.ar       1 <1>        0.000
      7 C12        -1.9479    0.2955    0.0810 C.ar       1 <1>        0.000
      8 C13        -1.0522    1.3294   -0.2650 C.ar       1 <1>        0.000
      9 C14         0.3414    1.1104   -0.3678 C.ar       1 <1>        0.000
     10 O4         -3.3006    0.5077    0.1769 O.3        1 <1>        0.000
     11 H           2.6867    1.1270    0.8606 H.spc      1 <1>        0.000
     12 H           0.4034   -2.2026    0.4205 H.spc      1 <1>        0.000
     13 H          -2.0403   -1.7975    0.5941 H.spc      1 <1>        0.000
     14 H          -1.4461    2.3270   -0.4589 H.spc      1 <1>        0.000
     15 H           0.9978    1.9370   -0.6400 H.spc      1 <1>        0.000
     16 H          -3.4941    1.4267   -0.0220 H.spc      1 <1>        0.000
@<TRIPOS>BOND
     1    8    9 ar 
     2    7   10 1  
     3    1    2 1  
     4    2    4 1  
     5    2    3 2  
     6    4    5 ar 
     7    4    9 ar 
     8    5    6 ar 
     9    6    7 ar 
    10    7    8 ar 
    11    1   11 1  
    12    5   12 1  
    13    6   13 1  
    14    8   14 1  
    15    9   15 1  
    16   10   16 1  
# Name:          frag5-554-56/41815 -- energy: -0.555346
# Creation time: Sat Jun  5 12:52:53 2010


@<TRIPOS>MOLECULE
frag5-554-56/41815 -- energy: -0.555346
   16    16     1     1     1
SMALL
USER_CHARGES


@<TRIPOS>ATOM
      1 O2          3.1294    0.5419   -0.7635 O.3        1 <1>        0.000
      2 C8          2.3440   -0.3982   -0.1912 C.2        1 <1>        0.000
      3 O3          2.8179   -1.4286    0.2530 O.2        1 <1>        0.000
      4 C9          0.8929   -0.1620   -0.1017 C.ar       1 <1>        0.000
      5 C10         0.3756    1.1298    0.1148 C.ar       1 <1>        0.000
      6 C11        -1.0214    1.3441    0.1977 C.ar       1 <1>        0.000
      7 C12        -1.9501    0.2939    0.0708 C.ar       1 <1>        0.000
      8 C13        -1.4155   -0.9941   -0.1466 C.ar       1 <1>        0.000
      9 C14        -0.0231   -1.2249   -0.2308 C.ar       1 <1>        0.000
     10 O4         -3.3000    0.5161    0.1560 O.3        1 <1>        0.000
     11 H           2.5859    1.2784   -1.0529 H.spc      1 <1>        0.000
     12 H           1.0578    1.9734    0.2196 H.spc      1 <1>        0.000
     13 H          -1.3901    2.3560    0.3654 H.spc      1 <1>        0.000
     14 H          -2.0976   -1.8376   -0.2530 H.spc      1 <1>        0.000
     15 H           0.3460   -2.2368   -0.3975 H.spc      1 <1>        0.000
     16 H          -3.7676   -0.3150    0.0455 H.spc      1 <1>        0.000
@<TRIPOS>BOND
     1    8    9 ar 
     2    7   10 1  
     3    1    2 1  
     4    2    4 1  
     5    2    3 2  
     6    4    5 ar 
     7    4    9 ar 
     8    5    6 ar 
     9    6    7 ar 
    10    7    8 ar 
    11    1   11 1  
    12    5   12 1  
    13    6   13 1  
    14    8   14 1  
    15    9   15 1  
    16   10   16 1  
# Name:          frag5-554-56/41815 -- energy: -0.759653
# Creation time: Sat Jun  5 12:52:53 2010


@<TRIPOS>MOLECULE
frag5-554-56/41815 -- energy: -0.759653
   16    16     1     1     1
SMALL
USER_CHARGES


@<TRIPOS>ATOM
      1 O2          3.1905    0.4481    0.4058 O.3        1 <1>        0.000
      2 C8          2.3411   -0.3944   -0.2260 C.2        1 <1>        0.000
      3 O3          2.7604   -1.3390   -0.8717 O.2        1 <1>        0.000
      4 C9          0.8914   -0.1638   -0.1225 C.ar       1 <1>        0.000
      5 C10         0.0095   -1.2053    0.2249 C.ar       1 <1>        0.000
      6 C11        -1.3839   -0.9707    0.3228 C.ar       1 <1>        0.000
      7 C12        -1.9479    0.2955    0.0810 C.ar       1 <1>        0.000
      8 C13        -1.0522    1.3294   -0.2650 C.ar       1 <1>        0.000
      9 C14         0.3414    1.1104   -0.3678 C.ar       1 <1>        0.000
     10 O4         -3.3006    0.5077    0.1769 O.3        1 <1>        0.000
     11 H           2.6867    1.1270    0.8606 H.spc      1 <1>        0.000
     12 H           0.4034   -2.2026    0.4205 H.spc      1 <1>        0.000
     13 H          -2.0403   -1.7975    0.5941 H.spc      1 <1>        0.000
     14 H          -1.4461    2.3270   -0.4589 H.spc      1 <1>        0.000
     15 H           0.9978    1.9370   -0.6400 H.spc      1 <1>        0.000
     16 H          -3.4941    1.4267   -0.0220 H.spc      1 <1>        0.000
@<TRIPOS>BOND
     1    8    9 ar 
     2    7   10 1  
     3    1    2 1  
     4    2    4 1  
     5    2    3 2  
     6    4    5 ar 
     7    4    9 ar 
     8    5    6 ar 
     9    6    7 ar 
    10    7    8 ar 
    11    1   11 1  
    12    5   12 1  
    13    6   13 1  
    14    8   14 1  
    15    9   15 1  
    16   10   16 1  
