#      Rotatable Fragment
#      Build by yxyuan
#
# Name:          frag3-200-9/96164
# Creation time: Sat Jun  5 12:53:09 2010


@<TRIPOS>MOLECULE
frag3-200-9/96164
    7     6     1     1     1
SMALL
USER_CHARGES


@<TRIPOS>ATOM
      1 C7          1.0350    0.0324    0.0133 C.2        1 <1>        0.000
      2 C9         -0.2285   -0.3178    0.2536 C.2        1 <1>        0.000
      3 C10        -1.3974    0.1900   -0.3680 C.1        1 <1>        0.000
      4 N2         -2.3264    0.7029   -0.8521 N.1        1 <1>        0.000
      5 H           1.2569    0.7916   -0.7367 H.spc      1 <1>        0.000
      6 H           1.8463   -0.4404    0.5668 H.spc      1 <1>        0.000
      7 H          -0.3806   -1.0824    1.0155 H.spc      1 <1>        0.000
@<TRIPOS>BOND
     1    1    2 2  
     2    2    3 1  
     3    3    4 3  
     4    1    5 1  
     5    1    6 1  
     6    2    7 1  
# Name:          frag3-200-9/96164 -- energy: -0.168993
# Creation time: Sat Jun  5 12:53:09 2010


@<TRIPOS>MOLECULE
frag3-200-9/96164 -- energy: -0.168993
    7     6     1     1     1
SMALL
USER_CHARGES


@<TRIPOS>ATOM
      1 C7          1.0350    0.0324    0.0133 C.2        1 <1>        0.000
      2 C9         -0.2285   -0.3178    0.2536 C.2        1 <1>        0.000
      3 C10        -1.3974    0.1900   -0.3680 C.1        1 <1>        0.000
      4 N2         -2.3264    0.7029   -0.8521 N.1        1 <1>        0.000
      5 H           1.2569    0.7916   -0.7367 H.spc      1 <1>        0.000
      6 H           1.8463   -0.4404    0.5668 H.spc      1 <1>        0.000
      7 H          -0.3806   -1.0824    1.0155 H.spc      1 <1>        0.000
@<TRIPOS>BOND
     1    1    2 2  
     2    2    3 1  
     3    3    4 3  
     4    1    5 1  
     5    1    6 1  
     6    2    7 1  
