#      Rotatable Fragment
#      Build by yxyuan
#
# Name:          frag2-020-9109/92655
# Creation time: Sat Jun  5 12:51:56 2010


@<TRIPOS>MOLECULE
frag2-020-9109/92655
    4     3     1     1     1
SMALL
USER_CHARGES


@<TRIPOS>ATOM
      1 C25        -0.0119   -0.0020    0.0003 C.2        1 <1>        0.000
      2 O3          1.1984    0.1816   -0.0175 O.2        1 <1>        0.000
      3 H          -0.6303    0.5118    0.7363 H.spc      1 <1>        0.000
      4 H          -0.4710   -0.6793   -0.7198 H.spc      1 <1>        0.000
@<TRIPOS>BOND
     1    1    2 2  
     2    1    3 1  
     3    1    4 1  
# Name:          frag2-020-9109/92655 -- energy: 0.000000
# Creation time: Sat Jun  5 12:51:56 2010


@<TRIPOS>MOLECULE
frag2-020-9109/92655 -- energy: 0.000000
    4     3     1     1     1
SMALL
USER_CHARGES


@<TRIPOS>ATOM
      1 C25        -0.0119   -0.0020    0.0003 C.2        1 <1>        0.000
      2 O3          1.1984    0.1816   -0.0175 O.2        1 <1>        0.000
      3 H          -0.6303    0.5118    0.7363 H.spc      1 <1>        0.000
      4 H          -0.4710   -0.6793   -0.7198 H.spc      1 <1>        0.000
@<TRIPOS>BOND
     1    1    2 2  
     2    1    3 1  
     3    1    4 1  
