#      Rotatable Fragment
#      Build by yxyuan
#
# Name:          frag3-139-25/31924
# Creation time: Sat Jun  5 12:52:03 2010


@<TRIPOS>MOLECULE
frag3-139-25/31924
    5     4     1     1     1
SMALL
USER_CHARGES


@<TRIPOS>ATOM
      1 S1         -1.7214    0.8090    1.0845 S.3        1 <1>        0.000
      2 S2          0.1691    0.2354    1.1613 S.3        1 <1>        0.000
      3 S3         -2.5565   -0.5260   -0.1129 S.3        1 <1>        0.000
      4 H           0.8506    1.0640    1.9474 H.spc      1 <1>        0.000
      5 H          -3.8500   -0.2487   -0.2498 H.spc      1 <1>        0.000
@<TRIPOS>BOND
     1    1    2 1  
     2    1    3 1  
     3    2    4 1  
     4    3    5 1  
# Name:          frag3-139-25/31924 -- energy: -0.026063
# Creation time: Sat Jun  5 12:52:03 2010


@<TRIPOS>MOLECULE
frag3-139-25/31924 -- energy: -0.026063
    5     4     1     1     1
SMALL
USER_CHARGES


@<TRIPOS>ATOM
      1 S1         -1.7214    0.8090    1.0845 S.3        1 <1>        0.000
      2 S2          0.1691    0.2354    1.1613 S.3        1 <1>        0.000
      3 S3         -2.5565   -0.5260   -0.1129 S.3        1 <1>        0.000
      4 H           0.8506    1.0640    1.9474 H.spc      1 <1>        0.000
      5 H          -3.8500   -0.2487   -0.2498 H.spc      1 <1>        0.000
@<TRIPOS>BOND
     1    1    2 1  
     2    1    3 1  
     3    2    4 1  
     4    3    5 1  
