#      Rotatable Fragment
#      Build by yxyuan
#
# Name:          frag4-364-96/48856
# Creation time: Sat Jun  5 12:53:29 2010


@<TRIPOS>MOLECULE
frag4-364-96/48856
   26    28     1     1     1
SMALL
USER_CHARGES


@<TRIPOS>ATOM
      1 C1         -0.5384   -1.1399    0.3466 C.3        1 <1>        0.000
      2 C2          0.8863   -1.7404    0.4055 C.3        1 <1>        0.000
      3 C3          1.8915   -0.6620    0.8753 C.3        1 <1>        0.000
      4 C4          1.8699    0.5241   -0.1180 C.3        1 <1>        0.000
      5 C5          0.4485    1.1323   -0.1783 C.3        1 <1>        0.000
      6 C6         -0.5520    0.0480   -0.6446 C.3        1 <1>        0.000
      7 C7          0.0445    1.6285    1.2304 C.3        1 <1>        0.000
      8 C8          0.0597    0.4459    2.2280 C.3        1 <1>        0.000
      9 C9         -0.9392   -0.6361    1.7535 C.3        1 <1>        0.000
     10 C10         1.4825   -0.1597    2.2804 C.3        1 <1>        0.000
     11 H          -1.2439   -1.9019    0.0152 H.spc      1 <1>        0.000
     12 H           1.1710   -2.0901   -0.5868 H.spc      1 <1>        0.000
     13 H           0.8972   -2.5734    1.1084 H.spc      1 <1>        0.000
     14 H           2.8940   -1.0880    0.9158 H.spc      1 <1>        0.000
     15 H           2.5739    1.2863    0.2159 H.spc      1 <1>        0.000
     16 H           2.1520    0.1690   -1.1092 H.spc      1 <1>        0.000
     17 H           0.4367    1.9676   -0.8785 H.spc      1 <1>        0.000
     18 H          -1.5543    0.4748   -0.6814 H.spc      1 <1>        0.000
     19 H          -0.2641   -0.3058   -1.6346 H.spc      1 <1>        0.000
     20 H          -0.9591    2.0517    1.1890 H.spc      1 <1>        0.000
     21 H           0.7528    2.3880    1.5615 H.spc      1 <1>        0.000
     22 H          -0.2256    0.7985    3.2191 H.spc      1 <1>        0.000
     23 H          -0.9239   -1.4718    2.4531 H.spc      1 <1>        0.000
     24 H          -1.9406   -0.2077    1.7108 H.spc      1 <1>        0.000
     25 H           1.4921   -0.9965    2.9788 H.spc      1 <1>        0.000
     26 H           2.1871    0.6043    2.6088 H.spc      1 <1>        0.000
@<TRIPOS>BOND
     1    4    5 1  
     2    8   10 1  
     3    1    2 1  
     4    1    6 1  
     5    5    6 1  
     6    5    7 1  
     7    2    3 1  
     8    3    4 1  
     9    7    8 1  
    10    1    9 1  
    11    8    9 1  
    12    3   10 1  
    13    1   11 1  
    14    2   12 1  
    15    2   13 1  
    16    3   14 1  
    17    4   15 1  
    18    4   16 1  
    19    5   17 1  
    20    6   18 1  
    21    6   19 1  
    22    7   20 1  
    23    7   21 1  
    24    8   22 1  
    25    9   23 1  
    26    9   24 1  
    27   10   25 1  
    28   10   26 1  
# Name:          frag4-364-96/48856 -- energy: -3.615204
# Creation time: Sat Jun  5 12:53:29 2010


@<TRIPOS>MOLECULE
frag4-364-96/48856 -- energy: -3.615204
   26    28     1     1     1
SMALL
USER_CHARGES


@<TRIPOS>ATOM
      1 C1         -0.5384   -1.1399    0.3466 C.3        1 <1>        0.000
      2 C2          0.8863   -1.7404    0.4055 C.3        1 <1>        0.000
      3 C3          1.8915   -0.6620    0.8753 C.3        1 <1>        0.000
      4 C4          1.8699    0.5241   -0.1180 C.3        1 <1>        0.000
      5 C5          0.4485    1.1323   -0.1783 C.3        1 <1>        0.000
      6 C6         -0.5520    0.0480   -0.6446 C.3        1 <1>        0.000
      7 C7          0.0445    1.6285    1.2304 C.3        1 <1>        0.000
      8 C8          0.0597    0.4459    2.2280 C.3        1 <1>        0.000
      9 C9         -0.9392   -0.6361    1.7535 C.3        1 <1>        0.000
     10 C10         1.4825   -0.1597    2.2804 C.3        1 <1>        0.000
     11 H          -1.2439   -1.9019    0.0152 H.spc      1 <1>        0.000
     12 H           1.1710   -2.0901   -0.5868 H.spc      1 <1>        0.000
     13 H           0.8972   -2.5734    1.1084 H.spc      1 <1>        0.000
     14 H           2.8940   -1.0880    0.9158 H.spc      1 <1>        0.000
     15 H           2.5739    1.2863    0.2159 H.spc      1 <1>        0.000
     16 H           2.1520    0.1690   -1.1092 H.spc      1 <1>        0.000
     17 H           0.4367    1.9676   -0.8785 H.spc      1 <1>        0.000
     18 H          -1.5543    0.4748   -0.6814 H.spc      1 <1>        0.000
     19 H          -0.2641   -0.3058   -1.6346 H.spc      1 <1>        0.000
     20 H          -0.9591    2.0517    1.1890 H.spc      1 <1>        0.000
     21 H           0.7528    2.3880    1.5615 H.spc      1 <1>        0.000
     22 H          -0.2256    0.7985    3.2191 H.spc      1 <1>        0.000
     23 H          -0.9239   -1.4718    2.4531 H.spc      1 <1>        0.000
     24 H          -1.9406   -0.2077    1.7108 H.spc      1 <1>        0.000
     25 H           1.4921   -0.9965    2.9788 H.spc      1 <1>        0.000
     26 H           2.1871    0.6043    2.6088 H.spc      1 <1>        0.000
@<TRIPOS>BOND
     1    4    5 1  
     2    8   10 1  
     3    1    2 1  
     4    1    6 1  
     5    5    6 1  
     6    5    7 1  
     7    2    3 1  
     8    3    4 1  
     9    7    8 1  
    10    1    9 1  
    11    8    9 1  
    12    3   10 1  
    13    1   11 1  
    14    2   12 1  
    15    2   13 1  
    16    3   14 1  
    17    4   15 1  
    18    4   16 1  
    19    5   17 1  
    20    6   18 1  
    21    6   19 1  
    22    7   20 1  
    23    7   21 1  
    24    8   22 1  
    25    9   23 1  
    26    9   24 1  
    27   10   25 1  
    28   10   26 1  
