#      Rotatable Fragment
#      Build by yxyuan
#
# Name:          frag5-603-35/41815
# Creation time: Sat Jun  5 12:52:58 2010


@<TRIPOS>MOLECULE
frag5-603-35/41815
   11    11     1     1     1
SMALL
USER_CHARGES


@<TRIPOS>ATOM
      1 C25        -1.0744   -1.0254   -0.1583 C.ar       1 <1>        0.000
      2 C26        -1.1446    0.2988    0.0492 C.ar       1 <1>        0.000
      3 C27        -0.0359    1.1931    0.2315 C.ar       1 <1>        0.000
      4 C28         1.1054    0.5724    0.1434 C.ar       1 <1>        0.000
      5 C29         1.1779   -0.8384   -0.2172 C.ar       1 <1>        0.000
      6 O6          0.1223   -1.5726   -0.2444 O.3        1 <1>        0.000
      7 O7         -0.2028    2.3304    0.4831 O.2        1 <1>        0.000
      8 H          -1.9772   -1.6289   -0.2526 H.spc      1 <1>        0.000
      9 H          -2.1413    0.7387    0.0826 H.spc      1 <1>        0.000
     10 H           2.0266    1.1195    0.3436 H.spc      1 <1>        0.000
     11 H           2.1431   -1.2784   -0.4680 H.spc      1 <1>        0.000
@<TRIPOS>BOND
     1    1    2 ar 
     2    1    6 ar 
     3    2    3 ar 
     4    3    4 ar 
     5    4    5 ar 
     6    3    7 2  
     7    5    6 ar 
     8    1    8 1  
     9    2    9 1  
    10    4   10 1  
    11    5   11 1  
# Name:          frag5-603-35/41815 -- energy: 0.678594
# Creation time: Sat Jun  5 12:52:58 2010


@<TRIPOS>MOLECULE
frag5-603-35/41815 -- energy: 0.678594
   11    11     1     1     1
SMALL
USER_CHARGES


@<TRIPOS>ATOM
      1 C25        -1.0744   -1.0254   -0.1583 C.ar       1 <1>        0.000
      2 C26        -1.1446    0.2988    0.0492 C.ar       1 <1>        0.000
      3 C27        -0.0359    1.1931    0.2315 C.ar       1 <1>        0.000
      4 C28         1.1054    0.5724    0.1434 C.ar       1 <1>        0.000
      5 C29         1.1779   -0.8384   -0.2172 C.ar       1 <1>        0.000
      6 O6          0.1223   -1.5726   -0.2444 O.3        1 <1>        0.000
      7 O7         -0.2028    2.3304    0.4831 O.2        1 <1>        0.000
      8 H          -1.9772   -1.6289   -0.2526 H.spc      1 <1>        0.000
      9 H          -2.1413    0.7387    0.0826 H.spc      1 <1>        0.000
     10 H           2.0266    1.1195    0.3436 H.spc      1 <1>        0.000
     11 H           2.1431   -1.2784   -0.4680 H.spc      1 <1>        0.000
@<TRIPOS>BOND
     1    1    2 ar 
     2    1    6 ar 
     3    2    3 ar 
     4    3    4 ar 
     5    4    5 ar 
     6    3    7 2  
     7    5    6 ar 
     8    1    8 1  
     9    2    9 1  
    10    4   10 1  
    11    5   11 1  
