#      Rotatable Fragment
#      Build by yxyuan
#
# Name:          frag4-404-197/150395
# Creation time: Sat Jun  5 12:53:34 2010


@<TRIPOS>MOLECULE
frag4-404-197/150395
   42    45     1     1     1
SMALL
USER_CHARGES


@<TRIPOS>ATOM
      1 C1          1.5598    0.2370    0.5822 C.3        1 <1>        0.000
      2 C2          0.2989   -0.6405    0.6135 C.3        1 <1>        0.000
      3 C3          1.6556    1.2174   -0.6218 C.3        1 <1>        0.000
      4 C4          2.9782   -0.2909    0.6306 C.3        1 <1>        0.000
      5 C5         -1.0154    0.2341    0.7106 C.3        1 <1>        0.000
      6 C6          0.2124   -1.7285   -0.4714 C.3        1 <1>        0.000
      7 C7          2.8968    1.9880   -0.2627 C.3        1 <1>        0.000
      8 C8          0.2506    1.8199   -0.8192 C.3        1 <1>        0.000
      9 C10         3.8418    0.9143    0.2636 C.3        1 <1>        0.000
     10 C11        -2.2570   -0.6707    0.7751 C.3        1 <1>        0.000
     11 C12        -1.1490    1.4155   -0.3147 C.3        1 <1>        0.000
     12 C13        -1.0551   -2.5469   -0.4122 C.3        1 <1>        0.000
     13 C15        -2.3092   -1.7096   -0.3903 C.3        1 <1>        0.000
     14 C16        -3.5724    0.0511    0.8637 C.2        1 <1>        0.000
     15 N1         -3.4921   -2.5054   -0.3520 N.3        1 <1>        0.000
     16 C18        -4.7287   -0.5377    0.5229 C.2        1 <1>        0.000
     17 C20        -4.6554   -1.9048    0.0683 C.3        1 <1>        0.000
     18 H           1.3170    0.6326    1.5684 H.spc      1 <1>        0.000
     19 H           0.3911   -1.2182    1.5332 H.spc      1 <1>        0.000
     20 H           1.8277    0.9002   -1.6503 H.spc      1 <1>        0.000
     21 H           3.2326   -0.6950    1.6105 H.spc      1 <1>        0.000
     22 H           3.1286   -1.1269   -0.0525 H.spc      1 <1>        0.000
     23 H          -0.9292    0.7780    1.6512 H.spc      1 <1>        0.000
     24 H           1.0480   -2.4108   -0.3155 H.spc      1 <1>        0.000
     25 H           0.2305   -1.2260   -1.4385 H.spc      1 <1>        0.000
     26 H           2.7048    2.7716    0.4703 H.spc      1 <1>        0.000
     27 H           3.3122    2.5306   -1.1119 H.spc      1 <1>        0.000
     28 H           0.1195    1.6084   -1.8804 H.spc      1 <1>        0.000
     29 H           0.3777    2.7434   -0.2543 H.spc      1 <1>        0.000
     30 H           4.5822    0.6459   -0.4900 H.spc      1 <1>        0.000
     31 H           4.3936    1.2749    1.1317 H.spc      1 <1>        0.000
     32 H          -2.1257   -1.1948    1.7218 H.spc      1 <1>        0.000
     33 H          -1.6194    2.2688    0.1739 H.spc      1 <1>        0.000
     34 H          -1.7609    1.0965   -1.1585 H.spc      1 <1>        0.000
     35 H          -1.0300   -3.1246    0.5118 H.spc      1 <1>        0.000
     36 H          -1.0888   -3.1652   -1.3093 H.spc      1 <1>        0.000
     37 H          -2.3532   -1.1555   -1.3279 H.spc      1 <1>        0.000
     38 H          -3.5873    1.0828    1.2150 H.spc      1 <1>        0.000
     39 H          -3.6636   -2.7849   -1.3179 H.spc      1 <1>        0.000
     40 H          -5.6791   -0.0079    0.5865 H.spc      1 <1>        0.000
     41 H          -5.2641   -1.8937   -0.8358 H.spc      1 <1>        0.000
     42 H          -4.9135   -2.4728    0.9621 H.spc      1 <1>        0.000
@<TRIPOS>BOND
     1    5   10 1  
     2    2    6 1  
     3    3    8 1  
     4    1    3 1  
     5    5   11 1  
     6    1    2 1  
     7    3    7 1  
     8    2    5 1  
     9    4    9 1  
    10    6   12 1  
    11    1    4 1  
    12   16   17 1  
    13   15   17 1  
    14   14   16 2  
    15   13   15 1  
    16   12   13 1  
    17   10   14 1  
    18   10   13 1  
    19    8   11 1  
    20    7    9 1  
    21    1   18 1  
    22    2   19 1  
    23    3   20 1  
    24    4   21 1  
    25    4   22 1  
    26    5   23 1  
    27    6   24 1  
    28    6   25 1  
    29    7   26 1  
    30    7   27 1  
    31    8   28 1  
    32    8   29 1  
    33    9   30 1  
    34    9   31 1  
    35   10   32 1  
    36   11   33 1  
    37   11   34 1  
    38   12   35 1  
    39   12   36 1  
    40   13   37 1  
    41   14   38 1  
    42   15   39 1  
    43   16   40 1  
    44   17   41 1  
    45   17   42 1  
# Name:          frag4-404-197/150395 -- energy: -7.376074
# Creation time: Sat Jun  5 12:53:34 2010


@<TRIPOS>MOLECULE
frag4-404-197/150395 -- energy: -7.376074
   42    45     1     1     1
SMALL
USER_CHARGES


@<TRIPOS>ATOM
      1 C1          1.5598    0.2370    0.5822 C.3        1 <1>        0.000
      2 C2          0.2989   -0.6405    0.6135 C.3        1 <1>        0.000
      3 C3          1.6556    1.2174   -0.6218 C.3        1 <1>        0.000
      4 C4          2.9782   -0.2909    0.6306 C.3        1 <1>        0.000
      5 C5         -1.0154    0.2341    0.7106 C.3        1 <1>        0.000
      6 C6          0.2124   -1.7285   -0.4714 C.3        1 <1>        0.000
      7 C7          2.8968    1.9880   -0.2627 C.3        1 <1>        0.000
      8 C8          0.2506    1.8199   -0.8192 C.3        1 <1>        0.000
      9 C10         3.8418    0.9143    0.2636 C.3        1 <1>        0.000
     10 C11        -2.2570   -0.6707    0.7751 C.3        1 <1>        0.000
     11 C12        -1.1490    1.4155   -0.3147 C.3        1 <1>        0.000
     12 C13        -1.0551   -2.5469   -0.4122 C.3        1 <1>        0.000
     13 C15        -2.3092   -1.7096   -0.3903 C.3        1 <1>        0.000
     14 C16        -3.5724    0.0511    0.8637 C.2        1 <1>        0.000
     15 N1         -3.4921   -2.5054   -0.3520 N.3        1 <1>        0.000
     16 C18        -4.7287   -0.5377    0.5229 C.2        1 <1>        0.000
     17 C20        -4.6554   -1.9048    0.0683 C.3        1 <1>        0.000
     18 H           1.3170    0.6326    1.5684 H.spc      1 <1>        0.000
     19 H           0.3911   -1.2182    1.5332 H.spc      1 <1>        0.000
     20 H           1.8277    0.9002   -1.6503 H.spc      1 <1>        0.000
     21 H           3.2326   -0.6950    1.6105 H.spc      1 <1>        0.000
     22 H           3.1286   -1.1269   -0.0525 H.spc      1 <1>        0.000
     23 H          -0.9292    0.7780    1.6512 H.spc      1 <1>        0.000
     24 H           1.0480   -2.4108   -0.3155 H.spc      1 <1>        0.000
     25 H           0.2305   -1.2260   -1.4385 H.spc      1 <1>        0.000
     26 H           2.7048    2.7716    0.4703 H.spc      1 <1>        0.000
     27 H           3.3122    2.5306   -1.1119 H.spc      1 <1>        0.000
     28 H           0.1195    1.6084   -1.8804 H.spc      1 <1>        0.000
     29 H           0.3777    2.7434   -0.2543 H.spc      1 <1>        0.000
     30 H           4.5822    0.6459   -0.4900 H.spc      1 <1>        0.000
     31 H           4.3936    1.2749    1.1317 H.spc      1 <1>        0.000
     32 H          -2.1257   -1.1948    1.7218 H.spc      1 <1>        0.000
     33 H          -1.6194    2.2688    0.1739 H.spc      1 <1>        0.000
     34 H          -1.7609    1.0965   -1.1585 H.spc      1 <1>        0.000
     35 H          -1.0300   -3.1246    0.5118 H.spc      1 <1>        0.000
     36 H          -1.0888   -3.1652   -1.3093 H.spc      1 <1>        0.000
     37 H          -2.3532   -1.1555   -1.3279 H.spc      1 <1>        0.000
     38 H          -3.5873    1.0828    1.2150 H.spc      1 <1>        0.000
     39 H          -3.6636   -2.7849   -1.3179 H.spc      1 <1>        0.000
     40 H          -5.6791   -0.0079    0.5865 H.spc      1 <1>        0.000
     41 H          -5.2641   -1.8937   -0.8358 H.spc      1 <1>        0.000
     42 H          -4.9135   -2.4728    0.9621 H.spc      1 <1>        0.000
@<TRIPOS>BOND
     1    5   10 1  
     2    2    6 1  
     3    3    8 1  
     4    1    3 1  
     5    5   11 1  
     6    1    2 1  
     7    3    7 1  
     8    2    5 1  
     9    4    9 1  
    10    6   12 1  
    11    1    4 1  
    12   16   17 1  
    13   15   17 1  
    14   14   16 2  
    15   13   15 1  
    16   12   13 1  
    17   10   14 1  
    18   10   13 1  
    19    8   11 1  
    20    7    9 1  
    21    1   18 1  
    22    2   19 1  
    23    3   20 1  
    24    4   21 1  
    25    4   22 1  
    26    5   23 1  
    27    6   24 1  
    28    6   25 1  
    29    7   26 1  
    30    7   27 1  
    31    8   28 1  
    32    8   29 1  
    33    9   30 1  
    34    9   31 1  
    35   10   32 1  
    36   11   33 1  
    37   11   34 1  
    38   12   35 1  
    39   12   36 1  
    40   13   37 1  
    41   14   38 1  
    42   15   39 1  
    43   16   40 1  
    44   17   41 1  
    45   17   42 1  
