#      Rotatable Fragment
#      Build by yxyuan
#
# Name:          frag4-369-303/150395
# Creation time: Sat Jun  5 12:53:32 2010


@<TRIPOS>MOLECULE
frag4-369-303/150395
   12    12     1     1     1
SMALL
USER_CHARGES


@<TRIPOS>ATOM
      1 C1          1.3523   -0.4764    0.0121 C.3        1 <1>        0.000
      2 C2          0.5409    0.7818    0.0760 C.3        1 <1>        0.000
      3 S1          0.2626   -1.7289   -0.1147 S.3        1 <1>        0.000
      4 N1         -0.8658    0.6090    0.0130 N.3        1 <1>        0.000
      5 C4         -1.1239   -0.7720   -0.0956 C.3        1 <1>        0.000
      6 H           1.9751   -0.5869    0.8998 H.spc      1 <1>        0.000
      7 H           2.0330   -0.4612   -0.8391 H.spc      1 <1>        0.000
      8 H           0.8190    1.3737   -0.7960 H.spc      1 <1>        0.000
      9 H           0.7534    1.2379    1.0429 H.spc      1 <1>        0.000
     10 H          -1.2486    1.1058   -0.7914 H.spc      1 <1>        0.000
     11 H          -1.7049   -1.0621    0.7798 H.spc      1 <1>        0.000
     12 H          -1.6396   -0.9310   -1.0427 H.spc      1 <1>        0.000
@<TRIPOS>BOND
     1    1    2 1  
     2    1    3 1  
     3    2    4 1  
     4    3    5 1  
     5    4    5 1  
     6    1    6 1  
     7    1    7 1  
     8    2    8 1  
     9    2    9 1  
    10    4   10 1  
    11    5   11 1  
    12    5   12 1  
# Name:          frag4-369-303/150395 -- energy: -0.557114
# Creation time: Sat Jun  5 12:53:32 2010


@<TRIPOS>MOLECULE
frag4-369-303/150395 -- energy: -0.557114
   12    12     1     1     1
SMALL
USER_CHARGES


@<TRIPOS>ATOM
      1 C1          1.3523   -0.4764    0.0121 C.3        1 <1>        0.000
      2 C2          0.5409    0.7818    0.0760 C.3        1 <1>        0.000
      3 S1          0.2626   -1.7289   -0.1147 S.3        1 <1>        0.000
      4 N1         -0.8658    0.6090    0.0130 N.3        1 <1>        0.000
      5 C4         -1.1239   -0.7720   -0.0956 C.3        1 <1>        0.000
      6 H           1.9751   -0.5869    0.8998 H.spc      1 <1>        0.000
      7 H           2.0330   -0.4612   -0.8391 H.spc      1 <1>        0.000
      8 H           0.8190    1.3737   -0.7960 H.spc      1 <1>        0.000
      9 H           0.7534    1.2379    1.0429 H.spc      1 <1>        0.000
     10 H          -1.2486    1.1058   -0.7914 H.spc      1 <1>        0.000
     11 H          -1.7049   -1.0621    0.7798 H.spc      1 <1>        0.000
     12 H          -1.6396   -0.9310   -1.0427 H.spc      1 <1>        0.000
@<TRIPOS>BOND
     1    1    2 1  
     2    1    3 1  
     3    2    4 1  
     4    3    5 1  
     5    4    5 1  
     6    1    6 1  
     7    1    7 1  
     8    2    8 1  
     9    2    9 1  
    10    4   10 1  
    11    5   11 1  
    12    5   12 1  
