#      Rotatable Fragment
#      Build by yxyuan
#
# Name:          frag4-413-171/150395
# Creation time: Sat Jun  5 12:53:34 2010


@<TRIPOS>MOLECULE
frag4-413-171/150395
   15    16     1     1     1
SMALL
USER_CHARGES


@<TRIPOS>ATOM
      1 C11         1.6691   -1.1322   -0.5078 C.ar       1 <1>        0.000
      2 N4          2.3790   -0.8340   -0.3292 N.ar       1 <1>        0.000
      3 C13         1.2175   -2.4843   -0.3223 C.ar       1 <1>        0.000
      4 C15         3.0743   -1.1802   -0.3692 C.ar       1 <1>        0.000
      5 N6          2.4179   -0.0442   -0.0507 N.2        1 <1>        0.000
      6 C16         2.3273   -3.3168   -0.2016 C.ar       1 <1>        0.000
      7 C19         4.2377   -0.4020   -0.4167 C.3        1 <1>        0.000
      8 N7          3.4025   -2.5206   -0.3337 N.ar       1 <1>        0.000
      9 C20         3.5346    0.7137   -0.0890 C.2        1 <1>        0.000
     10 H           0.9504   -0.4389   -0.9447 H.spc      1 <1>        0.000
     11 H           0.1766   -2.8054   -0.2826 H.spc      1 <1>        0.000
     12 H           2.3247   -4.3939   -0.0342 H.spc      1 <1>        0.000
     13 H           4.8465   -0.4045   -1.3208 H.spc      1 <1>        0.000
     14 H           5.0983   -0.6888    0.1876 H.spc      1 <1>        0.000
     15 H           3.7702    1.7655    0.0729 H.spc      1 <1>        0.000
@<TRIPOS>BOND
     1    1    2 ar 
     2    1    3 ar 
     3    2    4 ar 
     4    2    5 1  
     5    3    6 ar 
     6    4    8 ar 
     7    4    7 1  
     8    5    9 2  
     9    6    8 ar 
    10    7    9 1  
    11    1   10 1  
    12    3   11 1  
    13    6   12 1  
    14    7   13 1  
    15    7   14 1  
    16    9   15 1  
