#      Rotatable Fragment
#      Build by yxyuan
#
# Name:          frag2-054-13/92655
# Creation time: Sat Jun  5 12:51:57 2010


@<TRIPOS>MOLECULE
frag2-054-13/92655
   16    17     1     1     1
SMALL
USER_CHARGES


@<TRIPOS>ATOM
      1 C12         2.4818    0.2260    0.0949 C.ar       1 <1>        0.000
      2 C13         2.2040   -1.1226   -0.1098 C.ar       1 <1>        0.000
      3 N4          0.9176   -1.5425   -0.2013 N.ar       1 <1>        0.000
      4 C14        -0.1218   -0.6819   -0.1020 C.ar       1 <1>        0.000
      5 C15         0.1227    0.6753    0.1050 C.ar       1 <1>        0.000
      6 N5         -0.9198    1.5361    0.2079 N.ar       1 <1>        0.000
      7 C16        -2.2019    1.1232    0.1100 C.ar       1 <1>        0.000
      8 C17        -2.4853   -0.2216   -0.0961 C.ar       1 <1>        0.000
      9 C18        -1.4367   -1.1309   -0.2028 C.ar       1 <1>        0.000
     10 C19         1.4359    1.1280    0.2027 C.ar       1 <1>        0.000
     11 H           3.5136    0.5694    0.1697 H.spc      1 <1>        0.000
     12 H           3.0196   -1.8405   -0.1965 H.spc      1 <1>        0.000
     13 H          -3.0146    1.8449    0.1927 H.spc      1 <1>        0.000
     14 H          -3.5182   -0.5610   -0.1734 H.spc      1 <1>        0.000
     15 H          -1.6434   -2.1889   -0.3644 H.spc      1 <1>        0.000
     16 H           1.6399    2.1867    0.3632 H.spc      1 <1>        0.000
@<TRIPOS>BOND
     1    8    9 ar 
     2    7    8 ar 
     3    1    2 ar 
     4    2    3 ar 
     5    1   10 ar 
     6    3    4 ar 
     7    4    5 ar 
     8    4    9 ar 
     9    5    6 ar 
    10    5   10 ar 
    11    6    7 ar 
    12    1   11 1  
    13    2   12 1  
    14    7   13 1  
    15    8   14 1  
    16    9   15 1  
    17   10   16 1  
# Name:          frag2-054-13/92655 -- energy: 0.122364
# Creation time: Sat Jun  5 12:51:57 2010


@<TRIPOS>MOLECULE
frag2-054-13/92655 -- energy: 0.122364
   16    17     1     1     1
SMALL
USER_CHARGES


@<TRIPOS>ATOM
      1 C12         2.4818    0.2260    0.0949 C.ar       1 <1>        0.000
      2 C13         2.2040   -1.1226   -0.1098 C.ar       1 <1>        0.000
      3 N4          0.9176   -1.5425   -0.2013 N.ar       1 <1>        0.000
      4 C14        -0.1218   -0.6819   -0.1020 C.ar       1 <1>        0.000
      5 C15         0.1227    0.6753    0.1050 C.ar       1 <1>        0.000
      6 N5         -0.9198    1.5361    0.2079 N.ar       1 <1>        0.000
      7 C16        -2.2019    1.1232    0.1100 C.ar       1 <1>        0.000
      8 C17        -2.4853   -0.2216   -0.0961 C.ar       1 <1>        0.000
      9 C18        -1.4367   -1.1309   -0.2028 C.ar       1 <1>        0.000
     10 C19         1.4359    1.1280    0.2027 C.ar       1 <1>        0.000
     11 H           3.5136    0.5694    0.1697 H.spc      1 <1>        0.000
     12 H           3.0196   -1.8405   -0.1965 H.spc      1 <1>        0.000
     13 H          -3.0146    1.8449    0.1927 H.spc      1 <1>        0.000
     14 H          -3.5182   -0.5610   -0.1734 H.spc      1 <1>        0.000
     15 H          -1.6434   -2.1889   -0.3644 H.spc      1 <1>        0.000
     16 H           1.6399    2.1867    0.3632 H.spc      1 <1>        0.000
@<TRIPOS>BOND
     1    8    9 ar 
     2    7    8 ar 
     3    1    2 ar 
     4    2    3 ar 
     5    1   10 ar 
     6    3    4 ar 
     7    4    5 ar 
     8    4    9 ar 
     9    5    6 ar 
    10    5   10 ar 
    11    6    7 ar 
    12    1   11 1  
    13    2   12 1  
    14    7   13 1  
    15    8   14 1  
    16    9   15 1  
    17   10   16 1  
