#      Rotatable Fragment
#      Build by yxyuan
#
# Name:          frag4-385-250/150395
# Creation time: Sat Jun  5 12:53:33 2010


@<TRIPOS>MOLECULE
frag4-385-250/150395
   10    10     1     1     1
SMALL
USER_CHARGES


@<TRIPOS>ATOM
      1 C15         0.9543    0.2717    0.0898 C.2        1 <1>        0.000
      2 C17        -0.1992    0.6063    0.7650 C.2        1 <1>        0.000
      3 C18         0.2192   -0.6115   -0.7780 C.3        1 <1>        0.000
      4 C19        -0.9748   -0.2670   -0.0772 C.3        1 <1>        0.000
      5 H           2.0019    0.5597    0.1773 H.spc      1 <1>        0.000
      6 H          -0.4313    1.2666    1.6006 H.spc      1 <1>        0.000
      7 H           0.5161   -1.6545   -0.8876 H.spc      1 <1>        0.000
      8 H           0.2780   -0.5002   -1.8607 H.spc      1 <1>        0.000
      9 H          -1.8442    0.1104   -0.6156 H.spc      1 <1>        0.000
     10 H          -1.6047   -1.0422    0.3591 H.spc      1 <1>        0.000
@<TRIPOS>BOND
     1    1    2 2  
     2    1    3 1  
     3    2    4 1  
     4    3    4 1  
     5    1    5 1  
     6    2    6 1  
     7    3    7 1  
     8    3    8 1  
     9    4    9 1  
    10    4   10 1  
# Name:          frag4-385-250/150395 -- energy: -0.328093
# Creation time: Sat Jun  5 12:53:33 2010


@<TRIPOS>MOLECULE
frag4-385-250/150395 -- energy: -0.328093
   10    10     1     1     1
SMALL
USER_CHARGES


@<TRIPOS>ATOM
      1 C15         0.9543    0.2717    0.0898 C.2        1 <1>        0.000
      2 C17        -0.1992    0.6063    0.7650 C.2        1 <1>        0.000
      3 C18         0.2192   -0.6115   -0.7780 C.3        1 <1>        0.000
      4 C19        -0.9748   -0.2670   -0.0772 C.3        1 <1>        0.000
      5 H           2.0019    0.5597    0.1773 H.spc      1 <1>        0.000
      6 H          -0.4313    1.2666    1.6006 H.spc      1 <1>        0.000
      7 H           0.5161   -1.6545   -0.8876 H.spc      1 <1>        0.000
      8 H           0.2780   -0.5002   -1.8607 H.spc      1 <1>        0.000
      9 H          -1.8442    0.1104   -0.6156 H.spc      1 <1>        0.000
     10 H          -1.6047   -1.0422    0.3591 H.spc      1 <1>        0.000
@<TRIPOS>BOND
     1    1    2 2  
     2    1    3 1  
     3    2    4 1  
     4    3    4 1  
     5    1    5 1  
     6    2    6 1  
     7    3    7 1  
     8    3    8 1  
     9    4    9 1  
    10    4   10 1  
