#      Rotatable Fragment
#      Build by yxyuan
#
# Name:          frag3-126-50/96164
# Creation time: Sat Jun  5 12:52:56 2010


@<TRIPOS>MOLECULE
frag3-126-50/96164
    7     6     1     1     1
SMALL
USER_CHARGES


@<TRIPOS>ATOM
      1 C20         1.0924    0.0075   -0.2127 C.2        1 <1>        0.000
      2 C23        -0.3416    0.1391    0.2544 C.2        1 <1>        0.000
      3 O6          1.8589   -0.7162    0.3937 O.2        1 <1>        0.000
      4 O7         -0.5647   -0.1085    1.5303 O.3        1 <1>        0.000
      5 O8         -1.1563    0.4011   -0.6052 O.2        1 <1>        0.000
      6 H           1.4361    0.5586   -1.0881 H.spc      1 <1>        0.000
      7 H           0.2695   -0.2841    1.9717 H.spc      1 <1>        0.000
@<TRIPOS>BOND
     1    1    2 1  
     2    1    3 2  
     3    2    4 1  
     4    2    5 2  
     5    1    6 1  
     6    4    7 1  
# Name:          frag3-126-50/96164
# Creation time: Sat Jun  5 12:52:56 2010


@<TRIPOS>MOLECULE
frag3-126-50/96164
    7     6     1     1     1
SMALL
USER_CHARGES


@<TRIPOS>ATOM
      1 C20         0.9220   -0.7158    0.0071 C.2        1 <1>        0.000
      2 C23        -0.3494    0.0356    0.3285 C.2        1 <1>        0.000
      3 O6          1.9896   -0.1388    0.0521 O.2        1 <1>        0.000
      4 O7         -0.8047   -0.0830    1.5645 O.3        1 <1>        0.000
      5 O8         -0.8690    0.6250   -0.5917 O.2        1 <1>        0.000
      6 H           0.8808   -1.7708   -0.2638 H.spc      1 <1>        0.000
      7 H          -0.1876   -0.6044    2.0830 H.spc      1 <1>        0.000
@<TRIPOS>BOND
     1    1    2 1  
     2    1    3 2  
     3    2    4 1  
     4    2    5 2  
     5    1    6 1  
     6    4    7 1  
# Name:          frag3-126-50/96164 -- energy: 0.203203
# Creation time: Sat Jun  5 12:52:56 2010


@<TRIPOS>MOLECULE
frag3-126-50/96164 -- energy: 0.203203
    7     6     1     1     1
SMALL
USER_CHARGES


@<TRIPOS>ATOM
      1 C20         1.0924    0.0075   -0.2127 C.2        1 <1>        0.000
      2 C23        -0.3416    0.1391    0.2544 C.2        1 <1>        0.000
      3 O6          1.8589   -0.7162    0.3937 O.2        1 <1>        0.000
      4 O7         -0.5647   -0.1085    1.5303 O.3        1 <1>        0.000
      5 O8         -1.1563    0.4011   -0.6052 O.2        1 <1>        0.000
      6 H           1.4361    0.5586   -1.0881 H.spc      1 <1>        0.000
      7 H           0.2695   -0.2841    1.9717 H.spc      1 <1>        0.000
@<TRIPOS>BOND
     1    1    2 1  
     2    1    3 2  
     3    2    4 1  
     4    2    5 2  
     5    1    6 1  
     6    4    7 1  
# Name:          frag3-126-50/96164 -- energy: -0.105304
# Creation time: Sat Jun  5 12:52:56 2010


@<TRIPOS>MOLECULE
frag3-126-50/96164 -- energy: -0.105304
    7     6     1     1     1
SMALL
USER_CHARGES


@<TRIPOS>ATOM
      1 C20         0.9220   -0.7158    0.0071 C.2        1 <1>        0.000
      2 C23        -0.3494    0.0356    0.3285 C.2        1 <1>        0.000
      3 O6          1.9896   -0.1388    0.0521 O.2        1 <1>        0.000
      4 O7         -0.8047   -0.0830    1.5645 O.3        1 <1>        0.000
      5 O8         -0.8690    0.6250   -0.5917 O.2        1 <1>        0.000
      6 H           0.8808   -1.7708   -0.2638 H.spc      1 <1>        0.000
      7 H          -0.1876   -0.6044    2.0830 H.spc      1 <1>        0.000
@<TRIPOS>BOND
     1    1    2 1  
     2    1    3 2  
     3    2    4 1  
     4    2    5 2  
     5    1    6 1  
     6    4    7 1  
