#      Rotatable Fragment
#      Build by yxyuan
#
# Name:          frag4-383-75/48856
# Creation time: Sat Jun  5 12:53:37 2010


@<TRIPOS>MOLECULE
frag4-383-75/48856
   16    16     1     1     1
SMALL
USER_CHARGES


@<TRIPOS>ATOM
      1 N2         -0.0546    0.6376    0.2013 N.4        1 <1>        0.000
      2 C7         -0.7474    1.6792    0.9831 C.3        1 <1>        0.000
      3 C8         -2.1604    1.9309    0.4470 C.3        1 <1>        0.000
      4 C9         -2.8826    0.6438    0.1603 C.2        1 <1>        0.000
      5 C10        -2.2452   -0.5413    0.1103 C.2        1 <1>        0.000
      6 C11        -0.7667   -0.6542    0.3123 C.3        1 <1>        0.000
      7 H           0.8921    0.5260    0.5641 H.spc      1 <1>        0.000
      8 H          -0.0313    0.9197   -0.7786 H.spc      1 <1>        0.000
      9 H          -0.1779    2.6055    0.9080 H.spc      1 <1>        0.000
     10 H          -0.8236    1.3434    2.0173 H.spc      1 <1>        0.000
     11 H          -2.0802    2.4946   -0.4825 H.spc      1 <1>        0.000
     12 H          -2.7223    2.4794    1.2029 H.spc      1 <1>        0.000
     13 H          -3.9584    0.6709   -0.0129 H.spc      1 <1>        0.000
     14 H          -2.8232   -1.4450   -0.0830 H.spc      1 <1>        0.000
     15 H          -0.3790   -1.3096   -0.4676 H.spc      1 <1>        0.000
     16 H          -0.6022   -1.0329    1.3211 H.spc      1 <1>        0.000
@<TRIPOS>BOND
     1    5    6 1  
     2    1    2 1  
     3    1    6 1  
     4    2    3 1  
     5    3    4 1  
     6    4    5 2  
     7    1    7 1  
     8    1    8 1  
     9    2    9 1  
    10    2   10 1  
    11    3   11 1  
    12    3   12 1  
    13    4   13 1  
    14    5   14 1  
    15    6   15 1  
    16    6   16 1  
# Name:          frag4-383-75/48856 -- energy: -0.985376
# Creation time: Sat Jun  5 12:53:37 2010


@<TRIPOS>MOLECULE
frag4-383-75/48856 -- energy: -0.985376
   16    16     1     1     1
SMALL
USER_CHARGES


@<TRIPOS>ATOM
      1 N2         -0.0546    0.6376    0.2013 N.4        1 <1>        0.000
      2 C7         -0.7474    1.6792    0.9831 C.3        1 <1>        0.000
      3 C8         -2.1604    1.9309    0.4470 C.3        1 <1>        0.000
      4 C9         -2.8826    0.6438    0.1603 C.2        1 <1>        0.000
      5 C10        -2.2452   -0.5413    0.1103 C.2        1 <1>        0.000
      6 C11        -0.7667   -0.6542    0.3123 C.3        1 <1>        0.000
      7 H           0.8921    0.5260    0.5641 H.spc      1 <1>        0.000
      8 H          -0.0313    0.9197   -0.7786 H.spc      1 <1>        0.000
      9 H          -0.1779    2.6055    0.9080 H.spc      1 <1>        0.000
     10 H          -0.8236    1.3434    2.0173 H.spc      1 <1>        0.000
     11 H          -2.0802    2.4946   -0.4825 H.spc      1 <1>        0.000
     12 H          -2.7223    2.4794    1.2029 H.spc      1 <1>        0.000
     13 H          -3.9584    0.6709   -0.0129 H.spc      1 <1>        0.000
     14 H          -2.8232   -1.4450   -0.0830 H.spc      1 <1>        0.000
     15 H          -0.3790   -1.3096   -0.4676 H.spc      1 <1>        0.000
     16 H          -0.6022   -1.0329    1.3211 H.spc      1 <1>        0.000
@<TRIPOS>BOND
     1    5    6 1  
     2    1    2 1  
     3    1    6 1  
     4    2    3 1  
     5    3    4 1  
     6    4    5 2  
     7    1    7 1  
     8    1    8 1  
     9    2    9 1  
    10    2   10 1  
    11    3   11 1  
    12    3   12 1  
    13    4   13 1  
    14    5   14 1  
    15    6   15 1  
    16    6   16 1  
