#      Rotatable Fragment
#      Build by yxyuan
#
# Name:          frag5-596-36/41815
# Creation time: Sat Jun  5 12:52:57 2010


@<TRIPOS>MOLECULE
frag5-596-36/41815
   13    13     1     1     1
SMALL
USER_CHARGES


@<TRIPOS>ATOM
      1 N1         -2.3722    0.2539    0.0351 N.pl3      1 <1>        0.000
      2 C13        -0.9614    0.0309    0.0118 C.ar       1 <1>        0.000
      3 N3         -0.4816   -1.2418   -0.0683 N.ar       1 <1>        0.000
      4 C14         0.8287   -1.5368   -0.0962 C.ar       1 <1>        0.000
      5 C15         1.7646   -0.5101   -0.0469 C.ar       1 <1>        0.000
      6 C16         1.3341    0.8093    0.0337 C.ar       1 <1>        0.000
      7 C17        -0.0227    1.0768    0.0640 C.ar       1 <1>        0.000
      8 H          -3.0144   -0.5374   -0.0081 H.spc      1 <1>        0.000
      9 H          -2.7374    1.2044    0.0950 H.spc      1 <1>        0.000
     10 H           1.1560   -2.5747   -0.1571 H.spc      1 <1>        0.000
     11 H           2.8302   -0.7383   -0.0713 H.spc      1 <1>        0.000
     12 H           2.0575    1.6237    0.0726 H.spc      1 <1>        0.000
     13 H          -0.3678    2.1087    0.1290 H.spc      1 <1>        0.000
@<TRIPOS>BOND
     1    1    2 1  
     2    2    3 ar 
     3    2    7 ar 
     4    3    4 ar 
     5    4    5 ar 
     6    5    6 ar 
     7    6    7 ar 
     8    1    8 1  
     9    1    9 1  
    10    4   10 1  
    11    5   11 1  
    12    6   12 1  
    13    7   13 1  
# Name:          frag5-596-36/41815 -- energy: -0.026968
# Creation time: Sat Jun  5 12:52:57 2010


@<TRIPOS>MOLECULE
frag5-596-36/41815 -- energy: -0.026968
   13    13     1     1     1
SMALL
USER_CHARGES


@<TRIPOS>ATOM
      1 N1         -2.3722    0.2539    0.0351 N.pl3      1 <1>        0.000
      2 C13        -0.9614    0.0309    0.0118 C.ar       1 <1>        0.000
      3 N3         -0.4816   -1.2418   -0.0683 N.ar       1 <1>        0.000
      4 C14         0.8287   -1.5368   -0.0962 C.ar       1 <1>        0.000
      5 C15         1.7646   -0.5101   -0.0469 C.ar       1 <1>        0.000
      6 C16         1.3341    0.8093    0.0337 C.ar       1 <1>        0.000
      7 C17        -0.0227    1.0768    0.0640 C.ar       1 <1>        0.000
      8 H          -3.0144   -0.5374   -0.0081 H.spc      1 <1>        0.000
      9 H          -2.7374    1.2044    0.0950 H.spc      1 <1>        0.000
     10 H           1.1560   -2.5747   -0.1571 H.spc      1 <1>        0.000
     11 H           2.8302   -0.7383   -0.0713 H.spc      1 <1>        0.000
     12 H           2.0575    1.6237    0.0726 H.spc      1 <1>        0.000
     13 H          -0.3678    2.1087    0.1290 H.spc      1 <1>        0.000
@<TRIPOS>BOND
     1    1    2 1  
     2    2    3 ar 
     3    2    7 ar 
     4    3    4 ar 
     5    4    5 ar 
     6    5    6 ar 
     7    6    7 ar 
     8    1    8 1  
     9    1    9 1  
    10    4   10 1  
    11    5   11 1  
    12    6   12 1  
    13    7   13 1  
