#      Rotatable Fragment
#      Build by yxyuan
#
# Name:          frag5-555-55/41815
# Creation time: Sat Jun  5 12:52:53 2010


@<TRIPOS>MOLECULE
frag5-555-55/41815
   12    12     1     1     1
SMALL
USER_CHARGES


@<TRIPOS>ATOM
      1 O1         -0.1895    0.2511    0.1813 O.3        1 <1>        0.000
      2 C6         -1.5726    0.1732    0.0671 C.ar       1 <1>        0.000
      3 C7         -2.4207    0.4360    1.1547 C.ar       1 <1>        0.000
      4 N2         -3.7587    0.3925    1.0091 N.ar       1 <1>        0.000
      5 C8         -4.3357    0.0883   -0.1705 C.ar       1 <1>        0.000
      6 C9         -3.5448   -0.2138   -1.2829 C.ar       1 <1>        0.000
      7 C10        -2.1557   -0.1774   -1.1566 C.ar       1 <1>        0.000
      8 H           0.2128    0.0381   -0.6639 H.spc      1 <1>        0.000
      9 H          -1.9916    0.6778    2.1271 H.spc      1 <1>        0.000
     10 H          -5.4222    0.0778   -0.2573 H.spc      1 <1>        0.000
     11 H          -4.0067   -0.4741   -2.2353 H.spc      1 <1>        0.000
     12 H          -1.5243   -0.4220   -2.0108 H.spc      1 <1>        0.000
@<TRIPOS>BOND
     1    1    2 1  
     2    2    3 ar 
     3    2    7 ar 
     4    3    4 ar 
     5    4    5 ar 
     6    5    6 ar 
     7    6    7 ar 
     8    1    8 1  
     9    3    9 1  
    10    5   10 1  
    11    6   11 1  
    12    7   12 1  
# Name:          frag5-555-55/41815 -- energy: 0.117725
# Creation time: Sat Jun  5 12:52:53 2010


@<TRIPOS>MOLECULE
frag5-555-55/41815 -- energy: 0.117725
   12    12     1     1     1
SMALL
USER_CHARGES


@<TRIPOS>ATOM
      1 O1         -0.1895    0.2511    0.1813 O.3        1 <1>        0.000
      2 C6         -1.5726    0.1732    0.0671 C.ar       1 <1>        0.000
      3 C7         -2.4207    0.4360    1.1547 C.ar       1 <1>        0.000
      4 N2         -3.7587    0.3925    1.0091 N.ar       1 <1>        0.000
      5 C8         -4.3357    0.0883   -0.1705 C.ar       1 <1>        0.000
      6 C9         -3.5448   -0.2138   -1.2829 C.ar       1 <1>        0.000
      7 C10        -2.1557   -0.1774   -1.1566 C.ar       1 <1>        0.000
      8 H           0.2128    0.0381   -0.6639 H.spc      1 <1>        0.000
      9 H          -1.9916    0.6778    2.1271 H.spc      1 <1>        0.000
     10 H          -5.4222    0.0778   -0.2573 H.spc      1 <1>        0.000
     11 H          -4.0067   -0.4741   -2.2353 H.spc      1 <1>        0.000
     12 H          -1.5243   -0.4220   -2.0108 H.spc      1 <1>        0.000
@<TRIPOS>BOND
     1    1    2 1  
     2    2    3 ar 
     3    2    7 ar 
     4    3    4 ar 
     5    4    5 ar 
     6    5    6 ar 
     7    6    7 ar 
     8    1    8 1  
     9    3    9 1  
    10    5   10 1  
    11    6   11 1  
    12    7   12 1  
