#      Rotatable Fragment
#      Build by yxyuan
#
# Name:          frag4-413-53/48856
# Creation time: Sat Jun  5 12:51:59 2010


@<TRIPOS>MOLECULE
frag4-413-53/48856
   13    13     1     1     1
SMALL
USER_CHARGES


@<TRIPOS>ATOM
      1 N3         -1.5577   -0.2487   -0.1319 N.3        1 <1>        0.000
      2 C4         -2.0644   -1.5017   -0.6452 C.3        1 <1>        0.000
      3 C5         -3.5259   -1.5222   -0.2153 C.3        1 <1>        0.000
      4 N4         -3.7063   -0.2788    0.5001 N.3        1 <1>        0.000
      5 C6         -2.5360    0.4704    0.5454 C.3        1 <1>        0.000
      6 H          -1.2377    0.3131   -0.9208 H.spc      1 <1>        0.000
      7 H          -1.5111   -2.3572   -0.2579 H.spc      1 <1>        0.000
      8 H          -1.9542   -1.5762   -1.7270 H.spc      1 <1>        0.000
      9 H          -3.7591   -2.3887    0.4034 H.spc      1 <1>        0.000
     10 H          -4.2023   -1.6077   -1.0658 H.spc      1 <1>        0.000
     11 H          -3.9816   -0.4986    1.4573 H.spc      1 <1>        0.000
     12 H          -2.6867    1.4442    0.0795 H.spc      1 <1>        0.000
     13 H          -2.2348    0.6477    1.5778 H.spc      1 <1>        0.000
@<TRIPOS>BOND
     1    1    2 1  
     2    1    5 1  
     3    2    3 1  
     4    3    4 1  
     5    4    5 1  
     6    1    6 1  
     7    2    7 1  
     8    2    8 1  
     9    3    9 1  
    10    3   10 1  
    11    4   11 1  
    12    5   12 1  
    13    5   13 1  
# Name:          frag4-413-53/48856 -- energy: -0.635882
# Creation time: Sat Jun  5 12:51:59 2010


@<TRIPOS>MOLECULE
frag4-413-53/48856 -- energy: -0.635882
   13    13     1     1     1
SMALL
USER_CHARGES


@<TRIPOS>ATOM
      1 N3         -1.5577   -0.2487   -0.1319 N.3        1 <1>        0.000
      2 C4         -2.0644   -1.5017   -0.6452 C.3        1 <1>        0.000
      3 C5         -3.5259   -1.5222   -0.2153 C.3        1 <1>        0.000
      4 N4         -3.7063   -0.2788    0.5001 N.3        1 <1>        0.000
      5 C6         -2.5360    0.4704    0.5454 C.3        1 <1>        0.000
      6 H          -1.2377    0.3131   -0.9208 H.spc      1 <1>        0.000
      7 H          -1.5111   -2.3572   -0.2579 H.spc      1 <1>        0.000
      8 H          -1.9542   -1.5762   -1.7270 H.spc      1 <1>        0.000
      9 H          -3.7591   -2.3887    0.4034 H.spc      1 <1>        0.000
     10 H          -4.2023   -1.6077   -1.0658 H.spc      1 <1>        0.000
     11 H          -3.9816   -0.4986    1.4573 H.spc      1 <1>        0.000
     12 H          -2.6867    1.4442    0.0795 H.spc      1 <1>        0.000
     13 H          -2.2348    0.6477    1.5778 H.spc      1 <1>        0.000
@<TRIPOS>BOND
     1    1    2 1  
     2    1    5 1  
     3    2    3 1  
     4    3    4 1  
     5    4    5 1  
     6    1    6 1  
     7    2    7 1  
     8    2    8 1  
     9    3    9 1  
    10    3   10 1  
    11    4   11 1  
    12    5   12 1  
    13    5   13 1  
