#      Rotatable Fragment
#      Build by yxyuan
#
# Name:          frag5-506-480/138278
# Creation time: Sat Jun  5 12:53:40 2010


@<TRIPOS>MOLECULE
frag5-506-480/138278
   19    19     1     1     1
SMALL
USER_CHARGES


@<TRIPOS>ATOM
      1 C1         -0.8588    0.9015    0.4563 C.3        1 <1>        0.000
      2 C2          0.4387    0.1822    0.2226 C.2        1 <1>        0.000
      3 C3         -2.1656    0.1967    0.1993 C.2        1 <1>        0.000
      4 C5          0.3295   -1.1587    0.0449 C.2        1 <1>        0.000
      5 C6          1.7384    0.8505    0.1962 C.2        1 <1>        0.000
      6 C7         -2.0532   -1.1429    0.0183 C.2        1 <1>        0.000
      7 C8         -3.4500    0.8966    0.1771 C.2        1 <1>        0.000
      8 N1         -0.8655   -1.8028    0.0139 N.pl3      1 <1>        0.000
      9 O1          1.6383    2.1390   -0.1613 O.3        1 <1>        0.000
     10 O2          2.7871    0.3023    0.4838 O.2        1 <1>        0.000
     11 O3         -4.5592    0.2310   -0.1090 O.3        1 <1>        0.000
     12 O4         -3.4833    2.1096    0.3661 O.2        1 <1>        0.000
     13 H          -0.8473    1.7248   -0.2580 H.spc      1 <1>        0.000
     14 H          -0.8667    1.1101    1.5261 H.spc      1 <1>        0.000
     15 H           1.2406   -1.7442   -0.0783 H.spc      1 <1>        0.000
     16 H          -2.9649   -1.7212   -0.1317 H.spc      1 <1>        0.000
     17 H          -0.8718   -2.8224   -0.0138 H.spc      1 <1>        0.000
     18 H           0.7191    2.3495   -0.3413 H.spc      1 <1>        0.000
     19 H          -4.3521   -0.6992   -0.2246 H.spc      1 <1>        0.000
@<TRIPOS>BOND
     1    5    9 1  
     2    5   10 2  
     3    7   11 1  
     4    7   12 2  
     5    3    7 1  
     6    3    6 2  
     7    6    8 1  
     8    4    8 1  
     9    1    2 1  
    10    1    3 1  
    11    2    4 2  
    12    2    5 1  
    13    1   13 1  
    14    1   14 1  
    15    4   15 1  
    16    6   16 1  
    17    8   17 1  
    18    9   18 1  
    19   11   19 1  
# Name:          frag5-506-480/138278
# Creation time: Sat Jun  5 12:53:40 2010


@<TRIPOS>MOLECULE
frag5-506-480/138278
   19    19     1     1     1
SMALL
USER_CHARGES


@<TRIPOS>ATOM
      1 C1         -0.8805    0.8433    0.5257 C.3        1 <1>        0.000
      2 C2          0.4160    0.1833    0.2106 C.2        1 <1>        0.000
      3 C3         -2.1658    0.1684    0.2082 C.2        1 <1>        0.000
      4 C5          0.3330   -1.1130   -0.0579 C.2        1 <1>        0.000
      5 C6          1.6732    0.9145    0.2188 C.2        1 <1>        0.000
      6 C7         -2.0706   -1.1318   -0.0535 C.2        1 <1>        0.000
      7 C8         -3.4279    0.8866    0.2221 C.2        1 <1>        0.000
      8 N1         -0.8631   -1.7938   -0.1016 N.pl3      1 <1>        0.000
      9 O1          2.8074    0.2586    0.1047 O.3        1 <1>        0.000
     10 O2          1.6578    2.1378    0.2450 O.2        1 <1>        0.000
     11 O3         -4.5490    0.2522   -0.0380 O.3        1 <1>        0.000
     12 O4         -3.4339    2.0989    0.4239 O.2        1 <1>        0.000
     13 H          -0.8853    1.7376   -0.0974 H.spc      1 <1>        0.000
     14 H          -0.8823    0.9273    1.6125 H.spc      1 <1>        0.000
     15 H           1.2530   -1.6641   -0.2527 H.spc      1 <1>        0.000
     16 H          -2.9845   -1.6967   -0.2374 H.spc      1 <1>        0.000
     17 H          -0.8551   -2.8114   -0.1712 H.spc      1 <1>        0.000
     18 H           2.6311   -0.6851    0.1012 H.spc      1 <1>        0.000
     19 H          -4.3645   -0.6808   -0.1686 H.spc      1 <1>        0.000
@<TRIPOS>BOND
     1    5    9 1  
     2    5   10 2  
     3    7   11 1  
     4    7   12 2  
     5    3    7 1  
     6    3    6 2  
     7    6    8 1  
     8    4    8 1  
     9    1    2 1  
    10    1    3 1  
    11    2    4 2  
    12    2    5 1  
    13    1   13 1  
    14    1   14 1  
    15    4   15 1  
    16    6   16 1  
    17    8   17 1  
    18    9   18 1  
    19   11   19 1  
# Name:          frag5-506-480/138278
# Creation time: Sat Jun  5 12:53:40 2010


@<TRIPOS>MOLECULE
frag5-506-480/138278
   19    19     1     1     1
SMALL
USER_CHARGES


@<TRIPOS>ATOM
      1 C1         -0.8795    0.8619    0.5568 C.3        1 <1>        0.000
      2 C2          0.4118    0.2023    0.2481 C.2        1 <1>        0.000
      3 C3         -2.1659    0.1950    0.1754 C.2        1 <1>        0.000
      4 C5          0.3290   -1.1028   -0.1149 C.2        1 <1>        0.000
      5 C6          1.7193    0.8364    0.3025 C.2        1 <1>        0.000
      6 C7         -2.0537   -1.1036   -0.1810 C.2        1 <1>        0.000
      7 C8         -3.4676    0.8343    0.1586 C.2        1 <1>        0.000
      8 N1         -0.8573   -1.7690   -0.2492 N.pl3      1 <1>        0.000
      9 O1          1.6763    2.0948   -0.1225 O.3        1 <1>        0.000
     10 O2          2.7380    0.3069    0.6998 O.2        1 <1>        0.000
     11 O3         -3.6300    1.7360    1.1158 O.3        1 <1>        0.000
     12 O4         -4.3239    0.6128   -0.6813 O.2        1 <1>        0.000
     13 H          -0.8639    1.7821   -0.0272 H.spc      1 <1>        0.000
     14 H          -0.9087    0.9118    1.6453 H.spc      1 <1>        0.000
     15 H           1.2536   -1.6465   -0.3089 H.spc      1 <1>        0.000
     16 H          -2.9633   -1.6513   -0.4275 H.spc      1 <1>        0.000
     17 H          -0.8520   -2.7774   -0.4026 H.spc      1 <1>        0.000
     18 H           0.7798    2.3107   -0.3895 H.spc      1 <1>        0.000
     19 H          -2.8464    1.7574    1.6700 H.spc      1 <1>        0.000
@<TRIPOS>BOND
     1    5    9 1  
     2    5   10 2  
     3    7   11 1  
     4    7   12 2  
     5    3    7 1  
     6    3    6 2  
     7    6    8 1  
     8    4    8 1  
     9    1    2 1  
    10    1    3 1  
    11    2    4 2  
    12    2    5 1  
    13    1   13 1  
    14    1   14 1  
    15    4   15 1  
    16    6   16 1  
    17    8   17 1  
    18    9   18 1  
    19   11   19 1  
# Name:          frag5-506-480/138278
# Creation time: Sat Jun  5 12:53:40 2010


@<TRIPOS>MOLECULE
frag5-506-480/138278
   19    19     1     1     1
SMALL
USER_CHARGES


@<TRIPOS>ATOM
      1 C1         -0.8663    0.9807    0.0298 C.3        1 <1>        0.000
      2 C2         -2.1617    0.2434    0.0356 C.2        1 <1>        0.000
      3 C3          0.4189    0.2316    0.1068 C.2        1 <1>        0.000
      4 C5         -2.0635   -1.0837   -0.2184 C.2        1 <1>        0.000
      5 C6         -3.4538    0.8575    0.2480 C.2        1 <1>        0.000
      6 C7          0.3205   -1.0939   -0.1542 C.2        1 <1>        0.000
      7 C8          1.7166    0.8094    0.3995 C.2        1 <1>        0.000
      8 N1         -0.8694   -1.7246   -0.3917 N.pl3      1 <1>        0.000
      9 O1         -4.0782    0.4784    1.3631 O.3        1 <1>        0.000
     10 O2         -3.8952    1.7188   -0.4993 O.2        1 <1>        0.000
     11 O3          1.8719    2.0368   -0.0954 O.3        1 <1>        0.000
     12 O4          2.5567    0.2506    1.0844 O.2        1 <1>        0.000
     13 H          -0.8886    1.5770    0.9419 H.spc      1 <1>        0.000
     14 H          -0.8371    1.4717   -0.9429 H.spc      1 <1>        0.000
     15 H          -2.9810   -1.6681   -0.2878 H.spc      1 <1>        0.000
     16 H           1.2347   -1.6870   -0.1760 H.spc      1 <1>        0.000
     17 H          -0.8654   -2.6952   -0.7052 H.spc      1 <1>        0.000
     18 H          -3.5646   -0.2052    1.7995 H.spc      1 <1>        0.000
     19 H           1.0923    2.2777   -0.6012 H.spc      1 <1>        0.000
@<TRIPOS>BOND
     1    5    9 1  
     2    5   10 2  
     3    7   11 1  
     4    7   12 2  
     5    3    7 1  
     6    3    6 2  
     7    6    8 1  
     8    4    8 1  
     9    1    2 1  
    10    1    3 1  
    11    2    4 2  
    12    2    5 1  
    13    1   13 1  
    14    1   14 1  
    15    4   15 1  
    16    6   16 1  
    17    8   17 1  
    18    9   18 1  
    19   11   19 1  
# Name:          frag5-506-480/138278 -- energy: 2.938363
# Creation time: Sat Jun  5 12:53:40 2010


@<TRIPOS>MOLECULE
frag5-506-480/138278 -- energy: 2.938363
   19    19     1     1     1
SMALL
USER_CHARGES


@<TRIPOS>ATOM
      1 C1         -0.8805    0.8433    0.5257 C.3        1 <1>        0.000
      2 C2          0.4160    0.1833    0.2106 C.2        1 <1>        0.000
      3 C3         -2.1658    0.1684    0.2082 C.2        1 <1>        0.000
      4 C5          0.3330   -1.1130   -0.0579 C.2        1 <1>        0.000
      5 C6          1.6732    0.9145    0.2188 C.2        1 <1>        0.000
      6 C7         -2.0706   -1.1318   -0.0535 C.2        1 <1>        0.000
      7 C8         -3.4279    0.8866    0.2221 C.2        1 <1>        0.000
      8 N1         -0.8631   -1.7938   -0.1016 N.pl3      1 <1>        0.000
      9 O1          2.8074    0.2586    0.1047 O.3        1 <1>        0.000
     10 O2          1.6578    2.1378    0.2450 O.2        1 <1>        0.000
     11 O3         -4.5490    0.2522   -0.0380 O.3        1 <1>        0.000
     12 O4         -3.4339    2.0989    0.4239 O.2        1 <1>        0.000
     13 H          -0.8853    1.7376   -0.0974 H.spc      1 <1>        0.000
     14 H          -0.8823    0.9273    1.6125 H.spc      1 <1>        0.000
     15 H           1.2530   -1.6641   -0.2527 H.spc      1 <1>        0.000
     16 H          -2.9845   -1.6967   -0.2374 H.spc      1 <1>        0.000
     17 H          -0.8551   -2.8114   -0.1712 H.spc      1 <1>        0.000
     18 H           2.6311   -0.6851    0.1012 H.spc      1 <1>        0.000
     19 H          -4.3645   -0.6808   -0.1686 H.spc      1 <1>        0.000
@<TRIPOS>BOND
     1    5    9 1  
     2    5   10 2  
     3    7   11 1  
     4    7   12 2  
     5    3    7 1  
     6    3    6 2  
     7    6    8 1  
     8    4    8 1  
     9    1    2 1  
    10    1    3 1  
    11    2    4 2  
    12    2    5 1  
    13    1   13 1  
    14    1   14 1  
    15    4   15 1  
    16    6   16 1  
    17    8   17 1  
    18    9   18 1  
    19   11   19 1  
# Name:          frag5-506-480/138278 -- energy: 0.635866
# Creation time: Sat Jun  5 12:53:40 2010


@<TRIPOS>MOLECULE
frag5-506-480/138278 -- energy: 0.635866
   19    19     1     1     1
SMALL
USER_CHARGES


@<TRIPOS>ATOM
      1 C1         -0.8795    0.8619    0.5568 C.3        1 <1>        0.000
      2 C2          0.4118    0.2023    0.2481 C.2        1 <1>        0.000
      3 C3         -2.1659    0.1950    0.1754 C.2        1 <1>        0.000
      4 C5          0.3290   -1.1028   -0.1149 C.2        1 <1>        0.000
      5 C6          1.7193    0.8364    0.3025 C.2        1 <1>        0.000
      6 C7         -2.0537   -1.1036   -0.1810 C.2        1 <1>        0.000
      7 C8         -3.4676    0.8343    0.1586 C.2        1 <1>        0.000
      8 N1         -0.8573   -1.7690   -0.2492 N.pl3      1 <1>        0.000
      9 O1          1.6763    2.0948   -0.1225 O.3        1 <1>        0.000
     10 O2          2.7380    0.3069    0.6998 O.2        1 <1>        0.000
     11 O3         -3.6300    1.7360    1.1158 O.3        1 <1>        0.000
     12 O4         -4.3239    0.6128   -0.6813 O.2        1 <1>        0.000
     13 H          -0.8639    1.7821   -0.0272 H.spc      1 <1>        0.000
     14 H          -0.9087    0.9118    1.6453 H.spc      1 <1>        0.000
     15 H           1.2536   -1.6465   -0.3089 H.spc      1 <1>        0.000
     16 H          -2.9633   -1.6513   -0.4275 H.spc      1 <1>        0.000
     17 H          -0.8520   -2.7774   -0.4026 H.spc      1 <1>        0.000
     18 H           0.7798    2.3107   -0.3895 H.spc      1 <1>        0.000
     19 H          -2.8464    1.7574    1.6700 H.spc      1 <1>        0.000
@<TRIPOS>BOND
     1    5    9 1  
     2    5   10 2  
     3    7   11 1  
     4    7   12 2  
     5    3    7 1  
     6    3    6 2  
     7    6    8 1  
     8    4    8 1  
     9    1    2 1  
    10    1    3 1  
    11    2    4 2  
    12    2    5 1  
    13    1   13 1  
    14    1   14 1  
    15    4   15 1  
    16    6   16 1  
    17    8   17 1  
    18    9   18 1  
    19   11   19 1  
# Name:          frag5-506-480/138278 -- energy: -1.051397
# Creation time: Sat Jun  5 12:53:40 2010


@<TRIPOS>MOLECULE
frag5-506-480/138278 -- energy: -1.051397
   19    19     1     1     1
SMALL
USER_CHARGES


@<TRIPOS>ATOM
      1 C1         -0.8663    0.9807    0.0298 C.3        1 <1>        0.000
      2 C2         -2.1617    0.2434    0.0356 C.2        1 <1>        0.000
      3 C3          0.4189    0.2316    0.1068 C.2        1 <1>        0.000
      4 C5         -2.0635   -1.0837   -0.2184 C.2        1 <1>        0.000
      5 C6         -3.4538    0.8575    0.2480 C.2        1 <1>        0.000
      6 C7          0.3205   -1.0939   -0.1542 C.2        1 <1>        0.000
      7 C8          1.7166    0.8094    0.3995 C.2        1 <1>        0.000
      8 N1         -0.8694   -1.7246   -0.3917 N.pl3      1 <1>        0.000
      9 O1         -4.0782    0.4784    1.3631 O.3        1 <1>        0.000
     10 O2         -3.8952    1.7188   -0.4993 O.2        1 <1>        0.000
     11 O3          1.8719    2.0368   -0.0954 O.3        1 <1>        0.000
     12 O4          2.5567    0.2506    1.0844 O.2        1 <1>        0.000
     13 H          -0.8886    1.5770    0.9419 H.spc      1 <1>        0.000
     14 H          -0.8371    1.4717   -0.9429 H.spc      1 <1>        0.000
     15 H          -2.9810   -1.6681   -0.2878 H.spc      1 <1>        0.000
     16 H           1.2347   -1.6870   -0.1760 H.spc      1 <1>        0.000
     17 H          -0.8654   -2.6952   -0.7052 H.spc      1 <1>        0.000
     18 H          -3.5646   -0.2052    1.7995 H.spc      1 <1>        0.000
     19 H           1.0923    2.2777   -0.6012 H.spc      1 <1>        0.000
@<TRIPOS>BOND
     1    5    9 1  
     2    5   10 2  
     3    7   11 1  
     4    7   12 2  
     5    3    7 1  
     6    3    6 2  
     7    6    8 1  
     8    4    8 1  
     9    1    2 1  
    10    1    3 1  
    11    2    4 2  
    12    2    5 1  
    13    1   13 1  
    14    1   14 1  
    15    4   15 1  
    16    6   16 1  
    17    8   17 1  
    18    9   18 1  
    19   11   19 1  
