#      Rotatable Fragment
#      Build by yxyuan
#
# Name:          frag3-123-55/96164
# Creation time: Sat Jun  5 12:52:53 2010


@<TRIPOS>MOLECULE
frag3-123-55/96164
   10     9     1     1     1
SMALL
USER_CHARGES


@<TRIPOS>ATOM
      1 C14         1.8327   -0.0879    0.0466 C.2        1 <1>        0.000
      2 N2          0.5671    0.5211    0.1332 N.am       1 <1>        0.000
      3 O2          2.0766   -1.1800   -0.4284 O.2        1 <1>        0.000
      4 C20         0.4502    1.8530    0.4959 C.2        1 <1>        0.000
      5 N3         -0.6349    2.4216    1.1255 N.am       1 <1>        0.000
      6 O3          1.3773    2.6372    0.2225 O.2        1 <1>        0.000
      7 H           2.6772    0.4748    0.4445 H.spc      1 <1>        0.000
      8 H          -0.2710   -0.0225   -0.0727 H.spc      1 <1>        0.000
      9 H          -0.6377    3.4199    1.3348 H.spc      1 <1>        0.000
     10 H          -1.4356    1.8444    1.3825 H.spc      1 <1>        0.000
@<TRIPOS>BOND
     1    1    2 am 
     2    1    3 2  
     3    2    4 am 
     4    4    5 am 
     5    4    6 2  
     6    1    7 1  
     7    2    8 1  
     8    5    9 1  
     9    5   10 1  
# Name:          frag3-123-55/96164
# Creation time: Sat Jun  5 12:52:53 2010


@<TRIPOS>MOLECULE
frag3-123-55/96164
   10     9     1     1     1
SMALL
USER_CHARGES


@<TRIPOS>ATOM
      1 C14         1.8085   -0.3404    0.1471 C.2        1 <1>        0.000
      2 N2          1.9151    1.0338    0.3132 N.am       1 <1>        0.000
      3 O2          0.8200   -0.8972   -0.2677 O.2        1 <1>        0.000
      4 C20         0.7718    1.8875    0.4131 C.2        1 <1>        0.000
      5 N3         -0.5194    1.3792    0.7254 N.am       1 <1>        0.000
      6 O3          0.8728    3.1020    0.2640 O.2        1 <1>        0.000
      7 H           2.6703   -0.9551    0.4071 H.spc      1 <1>        0.000
      8 H           2.8445    1.4507    0.3660 H.spc      1 <1>        0.000
      9 H          -1.3103    2.0169    0.8160 H.spc      1 <1>        0.000
     10 H          -0.6544    0.3770    0.8588 H.spc      1 <1>        0.000
@<TRIPOS>BOND
     1    1    2 am 
     2    1    3 2  
     3    2    4 am 
     4    4    5 am 
     5    4    6 2  
     6    1    7 1  
     7    2    8 1  
     8    5    9 1  
     9    5   10 1  
# Name:          frag3-123-55/96164
# Creation time: Sat Jun  5 12:52:53 2010


@<TRIPOS>MOLECULE
frag3-123-55/96164
   10     9     1     1     1
SMALL
USER_CHARGES


@<TRIPOS>ATOM
      1 C14         1.1021   -0.3744   -0.1108 C.2        1 <1>        0.000
      2 N2          1.4929    0.9583   -0.1633 N.am       1 <1>        0.000
      3 O2          1.8477   -1.3154   -0.0105 O.2        1 <1>        0.000
      4 C20         0.6845    1.9889    0.4127 C.2        1 <1>        0.000
      5 N3         -0.4646    1.7304    1.1877 N.am       1 <1>        0.000
      6 O3          1.0064    3.1771    0.2793 O.2        1 <1>        0.000
      7 H           0.0341   -0.5854   -0.1648 H.spc      1 <1>        0.000
      8 H           2.3707    1.2059   -0.6201 H.spc      1 <1>        0.000
      9 H          -0.9833    2.5036    1.6043 H.spc      1 <1>        0.000
     10 H          -0.7772    0.7702    1.3318 H.spc      1 <1>        0.000
@<TRIPOS>BOND
     1    1    2 am 
     2    1    3 2  
     3    2    4 am 
     4    4    5 am 
     5    4    6 2  
     6    1    7 1  
     7    2    8 1  
     8    5    9 1  
     9    5   10 1  
# Name:          frag3-123-55/96164
# Creation time: Sat Jun  5 12:52:53 2010


@<TRIPOS>MOLECULE
frag3-123-55/96164
   10     9     1     1     1
SMALL
USER_CHARGES


@<TRIPOS>ATOM
      1 C14         1.3906   -0.3662   -0.4289 C.2        1 <1>        0.000
      2 N2          0.9867    0.9337   -0.7137 N.am       1 <1>        0.000
      3 O2          1.6581   -0.7732    0.6804 O.2        1 <1>        0.000
      4 C20         0.6558    1.8595    0.3219 C.2        1 <1>        0.000
      5 N3         -0.1533    1.5111    1.4249 N.am       1 <1>        0.000
      6 O3          1.1310    2.9999    0.3106 O.2        1 <1>        0.000
      7 H           1.4720   -1.0665   -1.2602 H.spc      1 <1>        0.000
      8 H           0.9253    1.2333   -1.6868 H.spc      1 <1>        0.000
      9 H          -0.3230    2.1895    2.1674 H.spc      1 <1>        0.000
     10 H          -0.5682    0.5809    1.4794 H.spc      1 <1>        0.000
@<TRIPOS>BOND
     1    1    2 am 
     2    1    3 2  
     3    2    4 am 
     4    4    5 am 
     5    4    6 2  
     6    1    7 1  
     7    2    8 1  
     8    5    9 1  
     9    5   10 1  
# Name:          frag3-123-55/96164 -- energy: -0.394362
# Creation time: Sat Jun  5 12:52:53 2010


@<TRIPOS>MOLECULE
frag3-123-55/96164 -- energy: -0.394362
   10     9     1     1     1
SMALL
USER_CHARGES


@<TRIPOS>ATOM
      1 C14         1.8327   -0.0879    0.0466 C.2        1 <1>        0.000
      2 N2          0.5671    0.5211    0.1332 N.am       1 <1>        0.000
      3 O2          2.0766   -1.1800   -0.4284 O.2        1 <1>        0.000
      4 C20         0.4502    1.8530    0.4959 C.2        1 <1>        0.000
      5 N3         -0.6349    2.4216    1.1255 N.am       1 <1>        0.000
      6 O3          1.3773    2.6372    0.2225 O.2        1 <1>        0.000
      7 H           2.6772    0.4748    0.4445 H.spc      1 <1>        0.000
      8 H          -0.2710   -0.0225   -0.0727 H.spc      1 <1>        0.000
      9 H          -0.6377    3.4199    1.3348 H.spc      1 <1>        0.000
     10 H          -1.4356    1.8444    1.3825 H.spc      1 <1>        0.000
@<TRIPOS>BOND
     1    1    2 am 
     2    1    3 2  
     3    2    4 am 
     4    4    5 am 
     5    4    6 2  
     6    1    7 1  
     7    2    8 1  
     8    5    9 1  
     9    5   10 1  
# Name:          frag3-123-55/96164 -- energy: -0.226825
# Creation time: Sat Jun  5 12:52:53 2010


@<TRIPOS>MOLECULE
frag3-123-55/96164 -- energy: -0.226825
   10     9     1     1     1
SMALL
USER_CHARGES


@<TRIPOS>ATOM
      1 C14         1.8085   -0.3404    0.1471 C.2        1 <1>        0.000
      2 N2          1.9151    1.0338    0.3132 N.am       1 <1>        0.000
      3 O2          0.8200   -0.8972   -0.2677 O.2        1 <1>        0.000
      4 C20         0.7718    1.8875    0.4131 C.2        1 <1>        0.000
      5 N3         -0.5194    1.3792    0.7254 N.am       1 <1>        0.000
      6 O3          0.8728    3.1020    0.2640 O.2        1 <1>        0.000
      7 H           2.6703   -0.9551    0.4071 H.spc      1 <1>        0.000
      8 H           2.8445    1.4507    0.3660 H.spc      1 <1>        0.000
      9 H          -1.3103    2.0169    0.8160 H.spc      1 <1>        0.000
     10 H          -0.6544    0.3770    0.8588 H.spc      1 <1>        0.000
@<TRIPOS>BOND
     1    1    2 am 
     2    1    3 2  
     3    2    4 am 
     4    4    5 am 
     5    4    6 2  
     6    1    7 1  
     7    2    8 1  
     8    5    9 1  
     9    5   10 1  
# Name:          frag3-123-55/96164 -- energy: -0.535241
# Creation time: Sat Jun  5 12:52:53 2010


@<TRIPOS>MOLECULE
frag3-123-55/96164 -- energy: -0.535241
   10     9     1     1     1
SMALL
USER_CHARGES


@<TRIPOS>ATOM
      1 C14         1.1021   -0.3744   -0.1108 C.2        1 <1>        0.000
      2 N2          1.4929    0.9583   -0.1633 N.am       1 <1>        0.000
      3 O2          1.8477   -1.3154   -0.0105 O.2        1 <1>        0.000
      4 C20         0.6845    1.9889    0.4127 C.2        1 <1>        0.000
      5 N3         -0.4646    1.7304    1.1877 N.am       1 <1>        0.000
      6 O3          1.0064    3.1771    0.2793 O.2        1 <1>        0.000
      7 H           0.0341   -0.5854   -0.1648 H.spc      1 <1>        0.000
      8 H           2.3707    1.2059   -0.6201 H.spc      1 <1>        0.000
      9 H          -0.9833    2.5036    1.6043 H.spc      1 <1>        0.000
     10 H          -0.7772    0.7702    1.3318 H.spc      1 <1>        0.000
@<TRIPOS>BOND
     1    1    2 am 
     2    1    3 2  
     3    2    4 am 
     4    4    5 am 
     5    4    6 2  
     6    1    7 1  
     7    2    8 1  
     8    5    9 1  
     9    5   10 1  
# Name:          frag3-123-55/96164 -- energy: -0.637093
# Creation time: Sat Jun  5 12:52:53 2010


@<TRIPOS>MOLECULE
frag3-123-55/96164 -- energy: -0.637093
   10     9     1     1     1
SMALL
USER_CHARGES


@<TRIPOS>ATOM
      1 C14         1.3906   -0.3662   -0.4289 C.2        1 <1>        0.000
      2 N2          0.9867    0.9337   -0.7137 N.am       1 <1>        0.000
      3 O2          1.6581   -0.7732    0.6804 O.2        1 <1>        0.000
      4 C20         0.6558    1.8595    0.3219 C.2        1 <1>        0.000
      5 N3         -0.1533    1.5111    1.4249 N.am       1 <1>        0.000
      6 O3          1.1310    2.9999    0.3106 O.2        1 <1>        0.000
      7 H           1.4720   -1.0665   -1.2602 H.spc      1 <1>        0.000
      8 H           0.9253    1.2333   -1.6868 H.spc      1 <1>        0.000
      9 H          -0.3230    2.1895    2.1674 H.spc      1 <1>        0.000
     10 H          -0.5682    0.5809    1.4794 H.spc      1 <1>        0.000
@<TRIPOS>BOND
     1    1    2 am 
     2    1    3 2  
     3    2    4 am 
     4    4    5 am 
     5    4    6 2  
     6    1    7 1  
     7    2    8 1  
     8    5    9 1  
     9    5   10 1  
