#      Rotatable Fragment
#      Build by yxyuan
#
# Name:          frag4-338-160/48856
# Creation time: Sat Jun  5 12:52:56 2010


@<TRIPOS>MOLECULE
frag4-338-160/48856
   13    13     1     1     1
SMALL
USER_CHARGES


@<TRIPOS>ATOM
      1 C21        -4.6152   -0.7662    0.4584 C.3        1 <1>        0.000
      2 O5         -5.4285    0.1235   -0.3256 O.3        1 <1>        0.000
      3 C22        -6.5737   -0.4982   -0.5382 C.3        1 <1>        0.000
      4 C23        -6.6828   -1.8163    0.2023 C.3        1 <1>        0.000
      5 C24        -5.5881   -1.6429    1.2357 C.3        1 <1>        0.000
      6 H          -3.9570   -0.2138    1.1291 H.spc      1 <1>        0.000
      7 H          -3.9605   -1.3655   -0.1743 H.spc      1 <1>        0.000
      8 H          -6.6410   -0.7116   -1.6050 H.spc      1 <1>        0.000
      9 H          -7.3734    0.1498   -0.1794 H.spc      1 <1>        0.000
     10 H          -6.5629   -2.6951   -0.4313 H.spc      1 <1>        0.000
     11 H          -7.6686   -2.0101    0.6251 H.spc      1 <1>        0.000
     12 H          -5.9262   -1.2099    2.1771 H.spc      1 <1>        0.000
     13 H          -5.1589   -2.5786    1.5939 H.spc      1 <1>        0.000
@<TRIPOS>BOND
     1    1    2 1  
     2    1    5 1  
     3    2    3 1  
     4    3    4 1  
     5    4    5 1  
     6    1    6 1  
     7    1    7 1  
     8    3    8 1  
     9    3    9 1  
    10    4   10 1  
    11    4   11 1  
    12    5   12 1  
    13    5   13 1  
# Name:          frag4-338-160/48856 -- energy: -0.742289
# Creation time: Sat Jun  5 12:52:56 2010


@<TRIPOS>MOLECULE
frag4-338-160/48856 -- energy: -0.742289
   13    13     1     1     1
SMALL
USER_CHARGES


@<TRIPOS>ATOM
      1 C21        -4.6152   -0.7662    0.4584 C.3        1 <1>        0.000
      2 O5         -5.4285    0.1235   -0.3256 O.3        1 <1>        0.000
      3 C22        -6.5737   -0.4982   -0.5382 C.3        1 <1>        0.000
      4 C23        -6.6828   -1.8163    0.2023 C.3        1 <1>        0.000
      5 C24        -5.5881   -1.6429    1.2357 C.3        1 <1>        0.000
      6 H          -3.9570   -0.2138    1.1291 H.spc      1 <1>        0.000
      7 H          -3.9605   -1.3655   -0.1743 H.spc      1 <1>        0.000
      8 H          -6.6410   -0.7116   -1.6050 H.spc      1 <1>        0.000
      9 H          -7.3734    0.1498   -0.1794 H.spc      1 <1>        0.000
     10 H          -6.5629   -2.6951   -0.4313 H.spc      1 <1>        0.000
     11 H          -7.6686   -2.0101    0.6251 H.spc      1 <1>        0.000
     12 H          -5.9262   -1.2099    2.1771 H.spc      1 <1>        0.000
     13 H          -5.1589   -2.5786    1.5939 H.spc      1 <1>        0.000
@<TRIPOS>BOND
     1    1    2 1  
     2    1    5 1  
     3    2    3 1  
     4    3    4 1  
     5    4    5 1  
     6    1    6 1  
     7    1    7 1  
     8    3    8 1  
     9    3    9 1  
    10    4   10 1  
    11    4   11 1  
    12    5   12 1  
    13    5   13 1  
