#      Rotatable Fragment
#      Build by yxyuan
#
# Name:          frag4-384-74/48856
# Creation time: Sat Jun  5 12:53:38 2010


@<TRIPOS>MOLECULE
frag4-384-74/48856
   13    13     1     1     1
SMALL
USER_CHARGES


@<TRIPOS>ATOM
      1 C9         -1.8460    2.0768    1.6798 C.3        1 <1>        0.000
      2 C10        -2.6854    0.9749    2.3532 C.3        1 <1>        0.000
      3 C11        -4.1143    1.1529    1.8065 C.3        1 <1>        0.000
      4 C12        -3.8397    1.7743    0.4726 C.2        1 <1>        0.000
      5 C13        -2.6018    2.2786    0.4035 C.2        1 <1>        0.000
      6 H          -0.8007    1.8048    1.5330 H.spc      1 <1>        0.000
      7 H          -1.7469    2.9817    2.2794 H.spc      1 <1>        0.000
      8 H          -2.6600    1.0616    3.4395 H.spc      1 <1>        0.000
      9 H          -2.2936   -0.0176    2.1304 H.spc      1 <1>        0.000
     10 H          -4.7580    1.7553    2.4475 H.spc      1 <1>        0.000
     11 H          -4.6818    0.2240    1.7499 H.spc      1 <1>        0.000
     12 H          -4.5608    1.8116   -0.3439 H.spc      1 <1>        0.000
     13 H          -2.1933    2.7762   -0.4760 H.spc      1 <1>        0.000
@<TRIPOS>BOND
     1    1    2 1  
     2    1    5 1  
     3    2    3 1  
     4    3    4 1  
     5    4    5 2  
     6    1    6 1  
     7    1    7 1  
     8    2    8 1  
     9    2    9 1  
    10    3   10 1  
    11    3   11 1  
    12    4   12 1  
    13    5   13 1  
# Name:          frag4-384-74/48856 -- energy: -0.682784
# Creation time: Sat Jun  5 12:53:38 2010


@<TRIPOS>MOLECULE
frag4-384-74/48856 -- energy: -0.682784
   13    13     1     1     1
SMALL
USER_CHARGES


@<TRIPOS>ATOM
      1 C9         -1.8460    2.0768    1.6798 C.3        1 <1>        0.000
      2 C10        -2.6854    0.9749    2.3532 C.3        1 <1>        0.000
      3 C11        -4.1143    1.1529    1.8065 C.3        1 <1>        0.000
      4 C12        -3.8397    1.7743    0.4726 C.2        1 <1>        0.000
      5 C13        -2.6018    2.2786    0.4035 C.2        1 <1>        0.000
      6 H          -0.8007    1.8048    1.5330 H.spc      1 <1>        0.000
      7 H          -1.7469    2.9817    2.2794 H.spc      1 <1>        0.000
      8 H          -2.6600    1.0616    3.4395 H.spc      1 <1>        0.000
      9 H          -2.2936   -0.0176    2.1304 H.spc      1 <1>        0.000
     10 H          -4.7580    1.7553    2.4475 H.spc      1 <1>        0.000
     11 H          -4.6818    0.2240    1.7499 H.spc      1 <1>        0.000
     12 H          -4.5608    1.8116   -0.3439 H.spc      1 <1>        0.000
     13 H          -2.1933    2.7762   -0.4760 H.spc      1 <1>        0.000
@<TRIPOS>BOND
     1    1    2 1  
     2    1    5 1  
     3    2    3 1  
     4    3    4 1  
     5    4    5 2  
     6    1    6 1  
     7    1    7 1  
     8    2    8 1  
     9    2    9 1  
    10    3   10 1  
    11    3   11 1  
    12    4   12 1  
    13    5   13 1  
