#      Rotatable Fragment
#      Build by yxyuan
#
# Name:          frag4-344-137/48856
# Creation time: Sat Jun  5 12:53:00 2010


@<TRIPOS>MOLECULE
frag4-344-137/48856
   26    28     1     1     1
SMALL
USER_CHARGES


@<TRIPOS>ATOM
      1 C4          2.5934   -1.2437    0.3134 C.ar       1 <1>        0.000
      2 C5          1.3372   -0.6190    0.1605 C.ar       1 <1>        0.000
      3 C6          1.2708    0.7521   -0.1320 C.ar       1 <1>        0.000
      4 C7          2.4609    1.4990   -0.2647 C.ar       1 <1>        0.000
      5 C8          3.7096    0.8629   -0.1161 C.ar       1 <1>        0.000
      6 C9          3.7749   -0.4891    0.1719 C.ar       1 <1>        0.000
      7 C17         0.0656   -1.3571    0.2939 C.3        1 <1>        0.000
      8 C10        -0.0661    1.3595   -0.2863 C.3        1 <1>        0.000
      9 C11        -1.3376    0.6207   -0.1554 C.ar       1 <1>        0.000
     10 C12        -1.2711   -0.7503    0.1375 C.ar       1 <1>        0.000
     11 C13        -2.4605   -1.4976    0.2709 C.ar       1 <1>        0.000
     12 C14        -3.7094   -0.8650    0.1094 C.ar       1 <1>        0.000
     13 C15        -3.7750    0.4871   -0.1794 C.ar       1 <1>        0.000
     14 C16        -2.5940    1.2435   -0.3147 C.ar       1 <1>        0.000
     15 H           2.6496   -2.3083    0.5406 H.spc      1 <1>        0.000
     16 H           2.4143    2.5661   -0.4818 H.spc      1 <1>        0.000
     17 H           4.6284    1.4385   -0.2285 H.spc      1 <1>        0.000
     18 H           4.7447   -0.9725    0.2898 H.spc      1 <1>        0.000
     19 H           0.1081   -2.0558   -0.5416 H.spc      1 <1>        0.000
     20 H           0.0712   -1.6514    1.3434 H.spc      1 <1>        0.000
     21 H          -0.0717    1.6575   -1.3348 H.spc      1 <1>        0.000
     22 H          -0.1087    2.0553    0.5516 H.spc      1 <1>        0.000
     23 H          -2.4134   -2.5625    0.4985 H.spc      1 <1>        0.000
     24 H          -4.6278   -1.4430    0.2124 H.spc      1 <1>        0.000
     25 H          -4.7449    0.9690   -0.3027 H.spc      1 <1>        0.000
     26 H          -2.6506    2.3080   -0.5421 H.spc      1 <1>        0.000
@<TRIPOS>BOND
     1   10   11 ar 
     2    5    6 ar 
     3    9   14 ar 
     4    9   10 ar 
     5    4    5 ar 
     6    3    8 1  
     7   11   12 ar 
     8   12   13 ar 
     9    2    3 ar 
    10   13   14 ar 
    11   10    7 1  
    12    8    9 1  
    13    3    4 ar 
    14    1    6 ar 
    15    2    7 1  
    16    1    2 ar 
    17    1   15 1  
    18    4   16 1  
    19    5   17 1  
    20    6   18 1  
    21    7   19 1  
    22    7   20 1  
    23    8   21 1  
    24    8   22 1  
    25   11   23 1  
    26   12   24 1  
    27   13   25 1  
    28   14   26 1  
# Name:          frag4-344-137/48856 -- energy: -1.735846
# Creation time: Sat Jun  5 12:53:00 2010


@<TRIPOS>MOLECULE
frag4-344-137/48856 -- energy: -1.735846
   26    28     1     1     1
SMALL
USER_CHARGES


@<TRIPOS>ATOM
      1 C4          2.5934   -1.2437    0.3134 C.ar       1 <1>        0.000
      2 C5          1.3372   -0.6190    0.1605 C.ar       1 <1>        0.000
      3 C6          1.2708    0.7521   -0.1320 C.ar       1 <1>        0.000
      4 C7          2.4609    1.4990   -0.2647 C.ar       1 <1>        0.000
      5 C8          3.7096    0.8629   -0.1161 C.ar       1 <1>        0.000
      6 C9          3.7749   -0.4891    0.1719 C.ar       1 <1>        0.000
      7 C17         0.0656   -1.3571    0.2939 C.3        1 <1>        0.000
      8 C10        -0.0661    1.3595   -0.2863 C.3        1 <1>        0.000
      9 C11        -1.3376    0.6207   -0.1554 C.ar       1 <1>        0.000
     10 C12        -1.2711   -0.7503    0.1375 C.ar       1 <1>        0.000
     11 C13        -2.4605   -1.4976    0.2709 C.ar       1 <1>        0.000
     12 C14        -3.7094   -0.8650    0.1094 C.ar       1 <1>        0.000
     13 C15        -3.7750    0.4871   -0.1794 C.ar       1 <1>        0.000
     14 C16        -2.5940    1.2435   -0.3147 C.ar       1 <1>        0.000
     15 H           2.6496   -2.3083    0.5406 H.spc      1 <1>        0.000
     16 H           2.4143    2.5661   -0.4818 H.spc      1 <1>        0.000
     17 H           4.6284    1.4385   -0.2285 H.spc      1 <1>        0.000
     18 H           4.7447   -0.9725    0.2898 H.spc      1 <1>        0.000
     19 H           0.1081   -2.0558   -0.5416 H.spc      1 <1>        0.000
     20 H           0.0712   -1.6514    1.3434 H.spc      1 <1>        0.000
     21 H          -0.0717    1.6575   -1.3348 H.spc      1 <1>        0.000
     22 H          -0.1087    2.0553    0.5516 H.spc      1 <1>        0.000
     23 H          -2.4134   -2.5625    0.4985 H.spc      1 <1>        0.000
     24 H          -4.6278   -1.4430    0.2124 H.spc      1 <1>        0.000
     25 H          -4.7449    0.9690   -0.3027 H.spc      1 <1>        0.000
     26 H          -2.6506    2.3080   -0.5421 H.spc      1 <1>        0.000
@<TRIPOS>BOND
     1   10   11 ar 
     2    5    6 ar 
     3    9   14 ar 
     4    9   10 ar 
     5    4    5 ar 
     6    3    8 1  
     7   11   12 ar 
     8   12   13 ar 
     9    2    3 ar 
    10   13   14 ar 
    11   10    7 1  
    12    8    9 1  
    13    3    4 ar 
    14    1    6 ar 
    15    2    7 1  
    16    1    2 ar 
    17    1   15 1  
    18    4   16 1  
    19    5   17 1  
    20    6   18 1  
    21    7   19 1  
    22    7   20 1  
    23    8   21 1  
    24    8   22 1  
    25   11   23 1  
    26   12   24 1  
    27   13   25 1  
    28   14   26 1  
