REMARK  Name = =
REMARK  1 active torsions:
REMARK  status: ('A' for Active; 'I' for Inactive)
REMARK    1  A    between atoms: C_1  and  C_12
REMARK                            x       y       z     vdW  Elec       q    Type
REMARK                         _______ _______ _______ _____ _____    ______ ____
ROOT
ATOM      1  C   UNL     1     -14.274 -43.365  27.517  0.00  0.00    +0.024 C 
ATOM      2  C   UNL     1     -15.387 -42.685  28.023  0.00  0.00    +0.098 C 
ATOM      3  N   UNL     1     -16.347 -42.179  27.231  0.00  0.00    -0.229 NA
ATOM      4  C   UNL     1     -16.292 -42.299  25.884  0.00  0.00    +0.135 C 
ATOM      5  C   UNL     1     -15.221 -42.956  25.359  0.00  0.00    +0.070 C 
ATOM      6  C   UNL     1     -14.225 -43.482  26.145  0.00  0.00    +0.006 C 
ATOM      7  C   UNL     1     -15.123 -43.103  23.987  0.00  0.00    +0.200 C 
ATOM      8  O   UNL     1     -14.134 -43.708  23.513  0.00  0.00    -0.286 OA
ATOM      9  C   UNL     1     -16.109 -42.583  23.180  0.00  0.00    +0.058 C 
ATOM     10  C   UNL     1     -17.175 -41.926  23.757  0.00  0.00    +0.066 C 
ATOM     11  N   UNL     1     -17.250 -41.795  25.093  0.00  0.00    -0.297 N 
ATOM     12  H   UNL     1     -18.016 -41.324  25.494  0.00  0.00    +0.154 HD
ENDROOT
BRANCH   1  13
ATOM     13  C   UNL     1     -13.235 -43.909  28.440  0.00  0.00    +0.139 C 
ATOM     14  O   UNL     1     -13.193 -45.282  28.282  0.00  0.00    -0.352 OA
ATOM     15  C   UNL     1     -11.994 -45.622  27.680  0.00  0.00    +0.143 C 
ATOM     16  C   UNL     1     -10.919 -45.432  28.768  0.00  0.00    +0.032 C 
ATOM     17  C   UNL     1     -10.768 -43.931  28.904  0.00  0.00    +0.005 C 
ATOM     18  C   UNL     1     -11.933 -43.196  28.299  0.00  0.00    +0.034 C 
ENDBRANCH   1  13
TORSDOF 1
