REMARK  Name = =
REMARK  2 active torsions:
REMARK  status: ('A' for Active; 'I' for Inactive)
REMARK    1  A    between atoms: C_1  and  C_28
REMARK    2  A    between atoms: C_17  and  N_18
REMARK                            x       y       z     vdW  Elec       q    Type
REMARK                         _______ _______ _______ _____ _____    ______ ____
ROOT
ATOM      1  C   UNL     1     -13.477 -43.588  29.275  0.00  0.00    +0.036 C 
ATOM      2  C   UNL     1     -12.798 -44.741  29.499  0.00  0.00    +0.132 C 
ATOM      3  N   UNL     1     -12.950 -45.313  30.742  0.00  0.00    -0.216 NA
ATOM      4  C   UNL     1     -13.721 -44.782  31.698  0.00  0.00    +0.137 C 
ATOM      5  C   UNL     1     -14.415 -43.615  31.493  0.00  0.00    +0.071 C 
ATOM      6  C   UNL     1     -14.295 -43.009  30.269  0.00  0.00    +0.007 C 
ATOM      7  C   UNL     1     -15.222 -43.061  32.494  0.00  0.00    +0.200 C 
ATOM      8  O   UNL     1     -15.854 -41.990  32.290  0.00  0.00    -0.286 OA
ATOM      9  C   UNL     1     -15.317 -43.705  33.711  0.00  0.00    +0.058 C 
ATOM     10  C   UNL     1     -14.598 -44.874  33.864  0.00  0.00    +0.066 C 
ATOM     11  N   UNL     1     -13.824 -45.397  32.888  0.00  0.00    -0.297 N 
ATOM     12  N   UNL     1     -11.971 -45.345  28.539  0.00  0.00    -0.279 N 
ATOM     13  C   UNL     1     -12.542 -45.912  27.351  0.00  0.00    +0.112 C 
ATOM     14  C   UNL     1     -11.818 -47.206  26.973  0.00  0.00    +0.110 C 
ATOM     15  N   UNL     1     -10.389 -46.973  26.907  0.00  0.00    -0.213 NA
ATOM     16  C   UNL     1      -9.846 -46.586  28.190  0.00  0.00    +0.125 C 
ATOM     17  C   UNL     1     -10.565 -45.423  28.775  0.00  0.00    +0.153 C 
ATOM     18  H   UNL     1     -13.332 -46.234  33.050  0.00  0.00    +0.154 HD
ENDROOT
BRANCH  17  19
ATOM     19  N   UNL     1      -9.836 -44.192  28.621  0.00  0.00    -0.253 NA
ATOM     20  C   UNL     1     -10.491 -43.090  29.301  0.00  0.00    +0.079 C 
ATOM     21  C   UNL     1      -9.547 -42.055  29.803  0.00  0.00    +0.043 C 
ATOM     22  C   UNL     1      -8.624 -42.744  30.766  0.00  0.00    -0.023 C 
ATOM     23  C   UNL     1      -8.053 -43.898  30.272  0.00  0.00    -0.010 C 
ATOM     24  C   UNL     1      -8.439 -44.253  28.879  0.00  0.00    +0.100 C 
ATOM     25  C   UNL     1      -7.202 -44.613  31.056  0.00  0.00    -0.003 C 
ATOM     26  C   UNL     1      -6.930 -44.158  32.339  0.00  0.00    -0.000 C 
ATOM     27  C   UNL     1      -7.486 -43.011  32.855  0.00  0.00    -0.000 C 
ATOM     28  C   UNL     1      -8.354 -42.303  32.025  0.00  0.00    -0.004 C 
ENDBRANCH  17  19
BRANCH   1  29
ATOM     29  C   UNL     1     -13.422 -42.875  27.999  0.00  0.00    +0.140 C 
ATOM     30  O   UNL     1     -13.422 -43.791  26.939  0.00  0.00    -0.352 OA
ATOM     31  C   UNL     1     -13.146 -43.150  25.735  0.00  0.00    +0.143 C 
ATOM     32  C   UNL     1     -14.073 -42.021  25.427  0.00  0.00    +0.032 C 
ATOM     33  C   UNL     1     -14.376 -41.132  26.610  0.00  0.00    +0.005 C 
ATOM     34  C   UNL     1     -14.725 -42.067  27.772  0.00  0.00    +0.034 C 
ENDBRANCH   1  29
TORSDOF 2
