REMARK  Name = =
REMARK  5 active torsions:
REMARK  status: ('A' for Active; 'I' for Inactive)
REMARK    1  A    between atoms: C_1  and  C_26
REMARK    2  A    between atoms: C_7  and  O_36
REMARK    3  A    between atoms: C_10  and  O_34
REMARK    4  A    between atoms: C_18  and  O_35
REMARK    5  A    between atoms: N_21  and  N_29
REMARK                            x       y       z     vdW  Elec       q    Type
REMARK                         _______ _______ _______ _____ _____    ______ ____
ROOT
ATOM      1  C   UNL     1     -13.930 -42.406  26.464  0.00  0.00    +0.043 C 
ATOM      2  C   UNL     1     -13.295 -43.676  25.850  0.00  0.00    +0.006 C 
ATOM      3  C   UNL     1     -13.149 -43.378  24.346  0.00  0.00    +0.005 C 
ATOM      4  C   UNL     1     -14.534 -43.430  23.792  0.00  0.00    +0.029 C 
ATOM      5  C   UNL     1     -15.545 -42.834  24.714  0.00  0.00    +0.011 A 
ATOM      6  C   UNL     1     -15.288 -42.335  25.963  0.00  0.00    +0.012 A 
ATOM      7  C   UNL     1     -16.362 -41.784  26.683  0.00  0.00    +0.133 A 
ATOM      8  C   UNL     1     -17.650 -41.743  26.150  0.00  0.00    +0.078 A 
ATOM      9  C   UNL     1     -17.903 -42.257  24.871  0.00  0.00    +0.078 A 
ATOM     10  C   UNL     1     -16.840 -42.795  24.176  0.00  0.00    +0.133 A 
ATOM     11  C   UNL     1     -19.251 -42.215  24.316  0.00  0.00    +0.202 C 
ATOM     12  O   UNL     1     -19.499 -42.671  23.169  0.00  0.00    -0.286 OA
ATOM     13  C   UNL     1     -20.381 -41.649  25.043  0.00  0.00    +0.076 C 
ATOM     14  C   UNL     1     -20.134 -41.148  26.289  0.00  0.00    +0.045 C 
ATOM     15  C   UNL     1     -21.198 -40.605  26.995  0.00  0.00    +0.003 C 
ATOM     16  C   UNL     1     -22.464 -40.577  26.448  0.00  0.00    +0.003 C 
ATOM     17  C   UNL     1     -22.675 -41.092  25.187  0.00  0.00    +0.037 C 
ATOM     18  C   UNL     1     -21.637 -41.637  24.461  0.00  0.00    +0.137 C 
ATOM     19  C   UNL     1     -18.782 -41.180  26.868  0.00  0.00    +0.199 C 
ATOM     20  O   UNL     1     -18.691 -40.691  28.015  0.00  0.00    -0.286 OA
ENDROOT
BRANCH   1  26
ATOM     21  N   UNL     1     -14.085 -43.419  28.732  0.00  0.00    -0.216 NA
ATOM     22  C   UNL     1     -13.303 -44.596  28.821  0.00  0.00    +0.110 C 
ATOM     23  C   UNL     1     -11.826 -44.399  28.993  0.00  0.00    +0.113 C 
ATOM     24  N   UNL     1     -11.331 -43.280  28.263  0.00  0.00    -0.269 N 
ATOM     25  C   UNL     1     -12.115 -42.138  28.018  0.00  0.00    +0.112 C 
ATOM     26  C   UNL     1     -13.622 -42.368  27.906  0.00  0.00    +0.097 C 
ATOM     27  C   UNL     1      -9.995 -43.321  27.773  0.00  0.00    +0.303 C 
ATOM     28  O   UNL     1      -9.486 -42.369  27.120  0.00  0.00    -0.265 OA
BRANCH  21  29
ATOM     29  N   UNL     1     -14.674 -42.990  29.883  0.00  0.00    -0.218 NA
ATOM     30  C   UNL     1     -16.078 -42.907  29.947  0.00  0.00    +0.089 C 
ATOM     31  C   UNL     1     -16.320 -42.524  31.360  0.00  0.00    +0.020 C 
ATOM     32  C   UNL     1     -15.288 -42.977  32.053  0.00  0.00    +0.020 C 
ATOM     33  C   UNL     1     -14.333 -43.674  31.103  0.00  0.00    +0.089 C 
ENDBRANCH  21  29
ENDBRANCH   1  26
BRANCH  10  34
ATOM     34  O   UNL     1     -17.021 -43.312  22.923  0.00  0.00    -0.506 OA
ATOM     35  H   UNL     1     -16.294 -43.676  22.457  0.00  0.00    +0.292 HD
ENDBRANCH  10  34
BRANCH  18  36
ATOM     36  O   UNL     1     -21.806 -42.166  23.192  0.00  0.00    -0.505 OA
ATOM     37  H   UNL     1     -21.073 -42.527  22.733  0.00  0.00    +0.292 HD
ENDBRANCH  18  36
BRANCH   7  38
ATOM     38  O   UNL     1     -16.161 -41.271  27.925  0.00  0.00    -0.506 OA
ATOM     39  H   UNL     1     -15.305 -41.287  28.305  0.00  0.00    +0.292 HD
ENDBRANCH   7  38
TORSDOF 5
