MODEL 1
REMARK VINA RESULT:    -7.855      0.000      0.000
REMARK INTER + INTRA:         -10.215
REMARK INTER:                 -10.840
REMARK INTRA:                   0.625
REMARK UNBOUND:                 0.625
REMARK  Name = =
REMARK  8 active torsions:
REMARK  status: ('A' for Active; 'I' for Inactive)
REMARK    1  A    between atoms: N_1  and  N_20
REMARK    2  A    between atoms: N_4  and  O_32
REMARK    3  A    between atoms: C_13  and  C_21
REMARK    4  A    between atoms: O_32  and  C_33
REMARK    5  A    between atoms: C_33  and  C_35
REMARK    6  A    between atoms: C_37  and  O_43
REMARK    7  A    between atoms: C_38  and  O_42
REMARK    8  A    between atoms: C_39  and  O_41
REMARK                            x       y       z     vdW  Elec       q    Type
REMARK                         _______ _______ _______ _____ _____    ______ ____
ROOT
ATOM      1  N   UNL     1      59.964 163.947  40.259  0.00  0.00    -0.171 N 
ATOM      2  C   UNL     1      58.988 163.627  41.122  0.00  0.00    +0.383 A 
ATOM      3  O   UNL     1      58.677 164.420  42.069  0.00  0.00    -0.241 OA
ATOM      4  N   UNL     1      58.297 162.476  41.041  0.00  0.00    -0.116 N 
ATOM      5  C   UNL     1      58.558 161.581  40.074  0.00  0.00    +0.108 A 
ATOM      6  C   UNL     1      59.573 161.895  39.164  0.00  0.00    +0.077 A 
ATOM      7  C   UNL     1      59.890 161.026  38.154  0.00  0.00    +0.006 C 
ATOM      8  C   UNL     1      59.188 159.843  38.061  0.00  0.00    +0.000 C 
ATOM      9  C   UNL     1      58.190 159.531  38.954  0.00  0.00    +0.002 C 
ATOM     10  C   UNL     1      57.853 160.393  39.980  0.00  0.00    +0.021 C 
ATOM     11  C   UNL     1      60.266 163.079  39.268  0.00  0.00    +0.282 A 
ATOM     12  O   UNL     1      61.184 163.402  38.472  0.00  0.00    -0.265 OA
ENDROOT
BRANCH   1  20
ATOM     13  C   UNL     1      60.189 166.892  38.705  0.00  0.00    +0.044 C 
ATOM     14  C   UNL     1      60.061 166.380  39.977  0.00  0.00    +0.147 C 
ATOM     15  N   UNL     1      59.336 167.061  40.890  0.00  0.00    -0.198 NA
ATOM     16  C   UNL     1      58.718 168.231  40.635  0.00  0.00    +0.215 C 
ATOM     17  N   UNL     1      58.851 168.720  39.382  0.00  0.00    -0.213 NA
ATOM     18  C   UNL     1      59.561 168.084  38.434  0.00  0.00    +0.101 C 
ATOM     19  N   UNL     1      57.963 168.926  41.610  0.00  0.00    -0.327 N 
ATOM     20  N   UNL     1      60.661 165.153  40.372  0.00  0.00    -0.230 N 
ATOM     21  H   UNL     1      57.875 168.557  42.519  0.00  0.00    +0.145 HD
ATOM     22  H   UNL     1      57.527 169.777  41.380  0.00  0.00    +0.145 HD
ATOM     23  H   UNL     1      61.579 165.153  40.729  0.00  0.00    +0.175 HD
BRANCH  13  24
ATOM     24  C   UNL     1      60.976 166.138  37.695  0.00  0.00    +0.169 C 
ATOM     25  C   UNL     1      60.291 166.135  36.349  0.00  0.00    +0.224 C 
ATOM     26  O   UNL     1      59.980 167.422  35.940  0.00  0.00    -0.448 OA
ATOM     27  C   UNL     1      60.441 168.145  34.888  0.00  0.00    +0.317 C 
ATOM     28  O   UNL     1      59.591 168.562  34.025  0.00  0.00    -0.250 OA
ATOM     29  C   UNL     1      61.864 168.481  34.672  0.00  0.00    +0.113 C 
ATOM     30  C   UNL     1      62.341 169.494  35.714  0.00  0.00    +0.059 C 
ATOM     31  C   UNL     1      62.086 168.937  37.123  0.00  0.00    +0.209 C 
ATOM     32  O   UNL     1      62.804 167.773  37.321  0.00  0.00    -0.448 OA
ATOM     33  C   UNL     1      62.399 166.518  37.641  0.00  0.00    +0.324 C 
ATOM     34  O   UNL     1      63.266 165.647  37.902  0.00  0.00    -0.250 OA
ENDBRANCH  13  24
ENDBRANCH   1  20
BRANCH   4  35
ATOM     35  O   UNL     1      57.286 162.151  41.938  0.00  0.00    -0.325 OA
BRANCH  35  36
ATOM     36  C   UNL     1      55.988 162.523  41.615  0.00  0.00    +0.366 C 
ATOM     37  O   UNL     1      55.795 163.635  41.088  0.00  0.00    -0.243 OA
BRANCH  36  38
ATOM     38  C   UNL     1      54.875 161.617  41.892  0.00  0.00    +0.084 C 
ATOM     39  C   UNL     1      53.580 162.089  41.891  0.00  0.00    +0.046 C 
ATOM     40  C   UNL     1      52.527 161.236  42.153  0.00  0.00    +0.171 C 
ATOM     41  C   UNL     1      52.756 159.885  42.423  0.00  0.00    +0.202 C 
ATOM     42  C   UNL     1      54.024 159.400  42.432  0.00  0.00    +0.171 C 
ATOM     43  C   UNL     1      55.065 160.292  42.162  0.00  0.00    +0.046 C 
BRANCH  42  44
ATOM     44  O   UNL     1      54.298 158.070  42.695  0.00  0.00    -0.503 OA
ATOM     45  H   UNL     1      54.095 157.707  43.535  0.00  0.00    +0.292 HD
ENDBRANCH  42  44
BRANCH  41  46
ATOM     46  O   UNL     1      51.672 159.082  42.678  0.00  0.00    -0.501 OA
ATOM     47  H   UNL     1      51.038 158.923  42.006  0.00  0.00    +0.292 HD
ENDBRANCH  41  46
BRANCH  40  48
ATOM     48  O   UNL     1      51.211 161.665  42.160  0.00  0.00    -0.503 OA
ATOM     49  H   UNL     1      50.994 162.505  42.515  0.00  0.00    +0.292 HD
ENDBRANCH  40  48
ENDBRANCH  36  38
ENDBRANCH  35  36
ENDBRANCH   4  35
TORSDOF 8
ENDMDL
