REMARK  Name = =
REMARK  1 active torsions:
REMARK  status: ('A' for Active; 'I' for Inactive)
REMARK    1  A    between atoms: C_1  and  C_19
REMARK                            x       y       z     vdW  Elec       q    Type
REMARK                         _______ _______ _______ _____ _____    ______ ____
ROOT
ATOM      1  C   UNL     1      51.641 156.601  28.466  0.00  0.00    +0.057 C 
ATOM      2  C   UNL     1      50.625 155.971  29.391  0.00  0.00    +0.005 C 
ATOM      3  C   UNL     1      49.655 156.995  29.926  0.00  0.00    +0.004 C 
ATOM      4  C   UNL     1      50.437 158.024  30.677  0.00  0.00    +0.018 C 
ATOM      5  C   UNL     1      51.332 158.753  29.730  0.00  0.00    +0.004 C 
ATOM      6  C   UNL     1      50.610 159.699  28.828  0.00  0.00    +0.005 C 
ATOM      7  C   UNL     1      49.288 160.159  29.333  0.00  0.00    +0.021 C 
ATOM      8  C   UNL     1      49.061 159.990  30.775  0.00  0.00    -0.052 C 
ATOM      9  C   UNL     1      49.596 158.978  31.451  0.00  0.00    -0.052 C 
ATOM     10  C   UNL     1      49.425 158.728  32.888  0.00  0.00    +0.021 C 
ATOM     11  C   UNL     1      48.693 159.808  33.622  0.00  0.00    +0.005 C 
ATOM     12  C   UNL     1      48.904 161.099  32.905  0.00  0.00    +0.004 C 
ATOM     13  C   UNL     1      48.223 160.945  31.536  0.00  0.00    +0.018 C 
ATOM     14  C   UNL     1      48.324 162.365  31.038  0.00  0.00    +0.004 C 
ATOM     15  C   UNL     1      48.072 163.208  32.291  0.00  0.00    +0.000 C 
ATOM     16  C   UNL     1      48.163 162.261  33.469  0.00  0.00    +0.000 C 
ATOM     17  C   UNL     1      52.268 157.837  29.022  0.00  0.00    +0.005 C 
ENDROOT
BRANCH   1  19
ATOM     18  O   UNL     1      52.133 154.341  28.137  0.00  0.00    -0.330 OA
ATOM     19  C   UNL     1      52.741 155.564  28.201  0.00  0.00    +0.235 C 
ATOM     20  O   UNL     1      53.540 155.919  27.177  0.00  0.00    -0.330 OA
ATOM     21  C   UNL     1      53.414 155.320  25.984  0.00  0.00    +0.147 C 
ATOM     22  C   UNL     1      52.834 153.951  25.968  0.00  0.00    +0.064 C 
ATOM     23  C   UNL     1      51.625 153.993  26.915  0.00  0.00    +0.147 C 
ENDBRANCH   1  19
TORSDOF 1
