REMARK  Name = =
REMARK  6 active torsions:
REMARK  status: ('A' for Active; 'I' for Inactive)
REMARK    1  A    between atoms: N_1  and  N_11
REMARK    2  A    between atoms: C_7  and  C_20
REMARK    3  A    between atoms: C_21  and  C_23
REMARK    4  A    between atoms: C_25  and  C_29
REMARK    5  A    between atoms: C_26  and  O_32
REMARK    6  A    between atoms: O_32  and  C_33
REMARK                            x       y       z     vdW  Elec       q    Type
REMARK                         _______ _______ _______ _____ _____    ______ ____
ROOT
ATOM      1  N   UNL     1      -2.482  -5.178  30.812  0.00  0.00    -0.179 N 
ATOM      2  C   UNL     1      -1.955  -4.645  29.605  0.00  0.00    +0.066 C 
ATOM      3  C   UNL     1      -2.439  -3.367  29.389  0.00  0.00    +0.002 C 
ATOM      4  C   UNL     1      -2.090  -2.598  28.283  0.00  0.00    -0.003 C 
ATOM      5  C   UNL     1      -1.228  -3.149  27.386  0.00  0.00    -0.001 C 
ATOM      6  C   UNL     1      -0.700  -4.421  27.532  0.00  0.00    -0.003 C 
ATOM      7  C   UNL     1      -1.069  -5.165  28.646  0.00  0.00    -0.007 C 
ATOM      8  C   UNL     1      -3.362  -2.987  30.504  0.00  0.00    +0.115 C 
ATOM      9  C   UNL     1      -3.351  -4.155  31.367  0.00  0.00    +0.250 C 
ATOM     10  O   UNL     1      -3.984  -4.299  32.438  0.00  0.00    -0.273 OA
ENDROOT
BRANCH   1  11
ATOM     11  N   UNL     1      -2.249  -6.409  31.426  0.00  0.00    -0.172 N 
ATOM     12  C   UNL     1      -1.061  -6.717  32.020  0.00  0.00    +0.174 C 
ATOM     13  N   UNL     1       0.116  -6.088  32.177  0.00  0.00    -0.206 NA
ATOM     14  C   UNL     1       1.163  -6.616  32.825  0.00  0.00    +0.200 C 
ATOM     15  N   UNL     1       1.042  -7.855  33.355  0.00  0.00    -0.221 NA
ATOM     16  C   UNL     1      -0.097  -8.559  33.246  0.00  0.00    +0.123 C 
ATOM     17  C   UNL     1      -1.155  -7.995  32.578  0.00  0.00    +0.135 C 
ATOM     18  N   UNL     1      -2.415  -8.399  32.286  0.00  0.00    -0.222 NA
ATOM     19  C   UNL     1      -3.066  -7.443  31.594  0.00  0.00    +0.187 C 
ENDBRANCH   1  11
BRANCH   7  20
ATOM     20  C   UNL     1      -0.505  -6.510  28.830  0.00  0.00    +0.028 C 
ATOM     21  C   UNL     1      -0.134  -7.274  27.621  0.00  0.00    +0.027 C 
ATOM     22  C   UNL     1      -1.213  -7.758  28.552  0.00  0.00    +0.009 C 
BRANCH  21  23
ATOM     23  C   UNL     1       1.047  -8.133  27.523  0.00  0.00    -0.022 C 
ATOM     24  C   UNL     1       0.885  -9.458  27.110  0.00  0.00    -0.001 C 
ATOM     25  C   UNL     1       1.928 -10.337  26.946  0.00  0.00    +0.035 C 
ATOM     26  C   UNL     1       3.213  -9.845  27.215  0.00  0.00    +0.149 C 
ATOM     27  C   UNL     1       3.389  -8.556  27.620  0.00  0.00    +0.037 C 
ATOM     28  C   UNL     1       2.313  -7.693  27.776  0.00  0.00    -0.001 C 
BRANCH  25  29
ATOM     29  C   UNL     1       1.788 -11.700  26.548  0.00  0.00    +0.009 C 
ATOM     30  C   UNL     1       1.520 -12.241  25.413  0.00  0.00    +0.036 C 
ATOM     31  I   UNL     1       1.148 -11.369  23.562  0.00  0.00    -0.042 I 
ENDBRANCH  25  29
BRANCH  26  32
ATOM     32  O   UNL     1       4.303 -10.710  27.058  0.00  0.00    -0.417 OA
BRANCH  32  33
ATOM     33  C   UNL     1       5.202 -10.512  26.030  0.00  0.00    +0.423 C 
ATOM     34  O   UNL     1       4.845 -10.468  24.829  0.00  0.00    -0.237 OA
ENDBRANCH  32  33
ENDBRANCH  26  32
ENDBRANCH  21  23
ENDBRANCH   7  20
TORSDOF 6
