MODEL 1
REMARK VINA RESULT:    -9.194      0.000      0.000
REMARK INTER + INTRA:         -13.099
REMARK INTER:                 -11.344
REMARK INTRA:                  -1.755
REMARK UNBOUND:                -1.755
REMARK  Name = =
REMARK  4 active torsions:
REMARK  status: ('A' for Active; 'I' for Inactive)
REMARK    1  A    between atoms: N_1  and  C_28
REMARK    2  A    between atoms: C_25  and  C_30
REMARK    3  A    between atoms: C_30  and  C_36
REMARK    4  A    between atoms: C_36  and  C_38
REMARK                            x       y       z     vdW  Elec       q    Type
REMARK                         _______ _______ _______ _____ _____    ______ ____
ROOT
ATOM      1  N   UNL     1       3.672  -5.531  28.047  0.00  0.00    -0.258 N 
ATOM      2  C   UNL     1       3.574  -4.112  27.777  0.00  0.00    +0.180 C 
ATOM      3  C   UNL     1       2.295  -3.827  27.076  0.00  0.00    +0.246 C 
ATOM      4  O   UNL     1       1.653  -4.757  26.477  0.00  0.00    -0.273 OA
ATOM      5  N   UNL     1       1.704  -2.536  27.016  0.00  0.00    -0.272 N 
ATOM      6  C   UNL     1       2.515  -1.314  26.883  0.00  0.00    +0.152 C 
ATOM      7  C   UNL     1       1.896  -0.485  28.017  0.00  0.00    +0.031 C 
ATOM      8  C   UNL     1       0.459  -0.933  28.095  0.00  0.00    +0.024 C 
ATOM      9  C   UNL     1       0.337  -2.031  27.060  0.00  0.00    +0.094 C 
ATOM     10  C   UNL     1       2.114  -0.638  25.608  0.00  0.00    +0.241 C 
ATOM     11  O   UNL     1       1.308   0.325  25.573  0.00  0.00    -0.273 OA
ATOM     12  N   UNL     1       2.653  -1.076  24.352  0.00  0.00    -0.295 N 
ATOM     13  C   UNL     1       3.851  -1.884  24.269  0.00  0.00    +0.176 C 
ATOM     14  C   UNL     1       4.973  -1.018  23.813  0.00  0.00    +0.243 C 
ATOM     15  O   UNL     1       4.773   0.128  23.300  0.00  0.00    -0.273 OA
ATOM     16  N   UNL     1       6.315  -1.474  23.948  0.00  0.00    -0.294 N 
ATOM     17  C   UNL     1       6.667  -2.637  24.757  0.00  0.00    +0.201 C 
ATOM     18  C   UNL     1       6.825  -3.852  23.915  0.00  0.00    +0.337 C 
ATOM     19  O   UNL     1       7.332  -3.675  22.762  0.00  0.00    -0.248 OA
ATOM     20  O   UNL     1       6.463  -5.108  24.312  0.00  0.00    -0.447 OA
ATOM     21  C   UNL     1       5.277  -5.454  24.995  0.00  0.00    +0.218 C 
ATOM     22  C   UNL     1       5.638  -5.726  26.429  0.00  0.00    +0.133 C 
ATOM     23  C   UNL     1       4.517  -6.301  27.212  0.00  0.00    +0.231 C 
ATOM     24  O   UNL     1       4.315  -7.539  27.117  0.00  0.00    -0.275 OA
ATOM     25  H   UNL     1       2.193  -0.819  23.521  0.00  0.00    +0.150 HD
ATOM     26  H   UNL     1       7.030  -0.988  23.479  0.00  0.00    +0.150 HD
ENDROOT
BRANCH   1  30
ATOM     27  C   UNL     1       1.074  -7.075  29.946  0.00  0.00    +0.146 C 
ATOM     28  N   UNL     1       1.488  -6.048  30.884  0.00  0.00    -0.281 NA
ATOM     29  C   UNL     1       2.315  -5.122  30.085  0.00  0.00    +0.107 C 
ATOM     30  C   UNL     1       2.933  -6.110  29.128  0.00  0.00    +0.150 C 
ATOM     31  N   UNL     1       1.791  -6.887  28.716  0.00  0.00    -0.268 NA
ATOM     32  H   UNL     1       2.035  -6.455  31.644  0.00  0.00    +0.125 HD
ATOM     33  H   UNL     1       1.226  -6.379  28.035  0.00  0.00    +0.126 HD
BRANCH  27  34
ATOM     34  C   UNL     1      -0.432  -7.145  29.798  0.00  0.00    +0.177 C 
ATOM     35  O   UNL     1      -0.939  -6.775  31.053  0.00  0.00    -0.348 OA
ATOM     36  C   UNL     1      -1.255  -7.889  31.813  0.00  0.00    +0.143 C 
ATOM     37  C   UNL     1      -2.530  -8.478  31.211  0.00  0.00    +0.032 C 
ATOM     38  C   UNL     1      -2.232  -8.888  29.787  0.00  0.00    +0.006 C 
ATOM     39  C   UNL     1      -0.824  -8.518  29.378  0.00  0.00    +0.038 C 
BRANCH  34  40
ATOM     40  C   UNL     1      -0.848  -6.098  28.835  0.00  0.00    +0.242 C 
ATOM     41  O   UNL     1      -0.703  -6.270  27.605  0.00  0.00    -0.285 OA
BRANCH  40  42
ATOM     42  C   UNL     1      -1.429  -4.855  29.308  0.00  0.00    +0.274 C 
ATOM     43  O   UNL     1      -0.728  -3.922  29.770  0.00  0.00    -0.280 OA
ENDBRANCH  40  42
ENDBRANCH  34  40
ENDBRANCH  27  34
ENDBRANCH   1  30
TORSDOF 4
ENDMDL
