REMARK  Name = =
REMARK  4 active torsions:
REMARK  status: ('A' for Active; 'I' for Inactive)
REMARK    1  A    between atoms: N_1  and  C_28
REMARK    2  A    between atoms: C_25  and  C_30
REMARK    3  A    between atoms: C_30  and  C_36
REMARK    4  A    between atoms: C_36  and  C_38
REMARK                            x       y       z     vdW  Elec       q    Type
REMARK                         _______ _______ _______ _____ _____    ______ ____
ROOT
ATOM      1  N   UNL     1       2.014  -5.842  28.427  0.00  0.00    -0.258 N 
ATOM      2  C   UNL     1       2.191  -6.100  27.014  0.00  0.00    +0.180 C 
ATOM      3  C   UNL     1       3.132  -7.236  26.830  0.00  0.00    +0.246 C 
ATOM      4  O   UNL     1       3.926  -7.589  27.768  0.00  0.00    -0.273 OA
ATOM      5  N   UNL     1       3.221  -7.994  25.631  0.00  0.00    -0.272 N 
ATOM      6  C   UNL     1       3.080  -7.372  24.304  0.00  0.00    +0.152 C 
ATOM      7  C   UNL     1       2.050  -8.332  23.693  0.00  0.00    +0.031 C 
ATOM      8  C   UNL     1       2.323  -9.667  24.336  0.00  0.00    +0.024 C 
ATOM      9  C   UNL     1       3.440  -9.402  25.323  0.00  0.00    +0.094 C 
ATOM     10  C   UNL     1       4.356  -7.601  23.555  0.00  0.00    +0.241 C 
ATOM     11  O   UNL     1       4.494  -8.522  22.711  0.00  0.00    -0.273 OA
ATOM     12  N   UNL     1       5.493  -6.754  23.779  0.00  0.00    -0.295 N 
ATOM     13  C   UNL     1       5.372  -5.454  24.405  0.00  0.00    +0.176 C 
ATOM     14  C   UNL     1       5.503  -4.410  23.352  0.00  0.00    +0.243 C 
ATOM     15  O   UNL     1       5.959  -4.675  22.195  0.00  0.00    -0.273 OA
ATOM     16  N   UNL     1       5.112  -3.071  23.635  0.00  0.00    -0.294 N 
ATOM     17  C   UNL     1       4.337  -2.718  24.820  0.00  0.00    +0.201 C 
ATOM     18  C   UNL     1       5.213  -2.204  25.905  0.00  0.00    +0.337 C 
ATOM     19  O   UNL     1       6.210  -1.504  25.538  0.00  0.00    -0.248 OA
ATOM     20  O   UNL     1       5.002  -2.441  27.233  0.00  0.00    -0.447 OA
ATOM     21  C   UNL     1       4.625  -3.674  27.807  0.00  0.00    +0.218 C 
ATOM     22  C   UNL     1       3.171  -3.579  28.181  0.00  0.00    +0.133 C 
ATOM     23  C   UNL     1       2.700  -4.735  28.982  0.00  0.00    +0.231 C 
ATOM     24  O   UNL     1       2.931  -4.719  30.219  0.00  0.00    -0.275 OA
ATOM     25  H   UNL     1       6.383  -7.067  23.498  0.00  0.00    +0.150 HD
ATOM     26  H   UNL     1       5.374  -2.358  23.009  0.00  0.00    +0.150 HD
ENDROOT
BRANCH   1  30
ATOM     27  C   UNL     1      -0.805  -7.139  30.191  0.00  0.00    +0.146 C 
ATOM     28  N   UNL     1       0.241  -7.420  31.157  0.00  0.00    -0.281 NA
ATOM     29  C   UNL     1       1.396  -6.621  30.701  0.00  0.00    +0.107 C 
ATOM     30  C   UNL     1       1.169  -6.690  29.213  0.00  0.00    +0.150 C 
ATOM     31  N   UNL     1      -0.237  -6.389  29.106  0.00  0.00    -0.268 NA
ATOM     32  H   UNL     1       0.470  -8.414  31.160  0.00  0.00    +0.125 HD
ATOM     33  H   UNL     1      -0.409  -5.390  29.220  0.00  0.00    +0.126 HD
BRANCH  27  34
ATOM     34  C   UNL     1      -2.023  -6.505  30.831  0.00  0.00    +0.177 C 
ATOM     35  O   UNL     1      -1.649  -6.256  32.160  0.00  0.00    -0.348 OA
ATOM     36  C   UNL     1      -2.093  -7.263  33.001  0.00  0.00    +0.143 C 
ATOM     37  C   UNL     1      -3.602  -7.074  33.145  0.00  0.00    +0.032 C 
ATOM     38  C   UNL     1      -4.228  -7.227  31.778  0.00  0.00    +0.006 C 
ATOM     39  C   UNL     1      -3.185  -7.426  30.701  0.00  0.00    +0.038 C 
BRANCH  34  40
ATOM     40  C   UNL     1      -2.247  -5.189  30.188  0.00  0.00    +0.242 C 
ATOM     41  O   UNL     1      -3.055  -5.071  29.241  0.00  0.00    -0.285 OA
BRANCH  40  42
ATOM     42  C   UNL     1      -1.528  -4.015  30.649  0.00  0.00    +0.274 C 
ATOM     43  O   UNL     1      -0.545  -3.546  30.025  0.00  0.00    -0.280 OA
ENDBRANCH  40  42
ENDBRANCH  34  40
ENDBRANCH  27  34
ENDBRANCH   1  30
TORSDOF 4
