REMARK  Name = =
REMARK  0 active torsions:
REMARK  status: ('A' for Active; 'I' for Inactive)
REMARK                            x       y       z     vdW  Elec       q    Type
REMARK                         _______ _______ _______ _____ _____    ______ ____
ROOT
ATOM      1  C   UNL     1      53.440 151.313  25.401  0.00  0.00    +0.145 C 
ATOM      2  O   UNL     1      54.560 151.739  26.076  0.00  0.00    -0.351 OA
ATOM      3  C   UNL     1      54.535 153.100  26.359  0.00  0.00    +0.174 C 
ATOM      4  C   UNL     1      53.412 153.298  27.382  0.00  0.00    +0.174 C 
ATOM      5  O   UNL     1      53.472 154.566  27.893  0.00  0.00    -0.326 OA
ATOM      6  C   UNL     1      52.345 155.015  28.512  0.00  0.00    +0.264 C 
ATOM      7  O   UNL     1      52.359 154.937  29.881  0.00  0.00    -0.321 OA
ATOM      8  C   UNL     1      51.439 155.832  30.449  0.00  0.00    +0.209 C 
ATOM      9  C   UNL     1      50.272 156.055  29.574  0.00  0.00    +0.183 C 
ATOM     10  O   UNL     1      49.663 157.093  29.641  0.00  0.00    -0.293 OA
ATOM     11  C   UNL     1      49.870 154.996  28.626  0.00  0.00    +0.102 C 
ATOM     12  C   UNL     1      51.083 154.555  27.868  0.00  0.00    +0.179 C 
ATOM     13  O   UNL     1      51.079 153.229  27.508  0.00  0.00    -0.350 OA
ATOM     14  C   UNL     1      52.117 153.042  26.599  0.00  0.00    +0.147 C 
ATOM     15  C   UNL     1      52.147 151.652  26.046  0.00  0.00    +0.064 C 
ENDROOT
TORSDOF 0
