REMARK  Name = =
REMARK  2 active torsions:
REMARK  status: ('A' for Active; 'I' for Inactive)
REMARK    1  A    between atoms: C_1  and  O_16
REMARK    2  A    between atoms: O_16  and  C_17
REMARK                            x       y       z     vdW  Elec       q    Type
REMARK                         _______ _______ _______ _____ _____    ______ ____
ROOT
ATOM      1  C   UNL     1      53.723 151.909  26.189  0.00  0.00    +0.290 C 
ATOM      2  O   UNL     1      53.823 152.488  27.484  0.00  0.00    -0.318 OA
ATOM      3  C   UNL     1      54.638 153.638  27.402  0.00  0.00    +0.178 C 
ATOM      4  C   UNL     1      53.806 154.820  26.913  0.00  0.00    +0.175 C 
ATOM      5  O   UNL     1      53.209 155.503  27.967  0.00  0.00    -0.326 OA
ATOM      6  C   UNL     1      52.017 156.045  27.500  0.00  0.00    +0.264 C 
ATOM      7  O   UNL     1      51.577 157.134  28.185  0.00  0.00    -0.321 OA
ATOM      8  C   UNL     1      51.382 156.919  29.542  0.00  0.00    +0.209 C 
ATOM      9  C   UNL     1      51.261 155.451  29.747  0.00  0.00    +0.183 C 
ATOM     10  O   UNL     1      51.828 154.962  30.700  0.00  0.00    -0.293 OA
ATOM     11  C   UNL     1      50.451 154.676  28.769  0.00  0.00    +0.102 C 
ATOM     12  C   UNL     1      51.021 154.923  27.382  0.00  0.00    +0.179 C 
ATOM     13  O   UNL     1      51.716 153.778  26.946  0.00  0.00    -0.350 OA
ATOM     14  C   UNL     1      52.708 154.167  26.050  0.00  0.00    +0.151 C 
ATOM     15  C   UNL     1      53.284 153.044  25.271  0.00  0.00    +0.108 C 
ENDROOT
BRANCH   1  16
ATOM     16  O   UNL     1      52.770 150.913  26.158  0.00  0.00    -0.451 OA
BRANCH  16  17
ATOM     17  C   UNL     1      52.844 149.713  25.509  0.00  0.00    +0.160 C 
ATOM     18  C   UNL     1      51.783 148.797  25.635  0.00  0.00    +0.136 C 
ATOM     19  N   UNL     1      51.852 147.628  25.004  0.00  0.00    -0.239 NA
ATOM     20  C   UNL     1      52.868 147.231  24.237  0.00  0.00    +0.099 C 
ATOM     21  C   UNL     1      53.914 148.090  24.090  0.00  0.00    +0.024 C 
ATOM     22  C   UNL     1      53.901 149.327  24.725  0.00  0.00    +0.040 C 
ENDBRANCH  16  17
ENDBRANCH   1  16
TORSDOF 2
