REMARK  Name = =
REMARK  2 active torsions:
REMARK  status: ('A' for Active; 'I' for Inactive)
REMARK    1  A    between atoms: C_1  and  O_27
REMARK    2  A    between atoms: O_27  and  C_28
REMARK                            x       y       z     vdW  Elec       q    Type
REMARK                         _______ _______ _______ _____ _____    ______ ____
ROOT
ATOM      1  C   UNL     1      52.149 155.460  28.303  0.00  0.00    +0.242 C 
ATOM      2  O   UNL     1      52.807 156.616  28.762  0.00  0.00    -0.322 OA
ATOM      3  C   UNL     1      53.860 156.984  27.950  0.00  0.00    +0.180 C 
ATOM      4  C   UNL     1      53.541 157.111  26.495  0.00  0.00    +0.199 C 
ATOM      5  O   UNL     1      54.711 157.275  25.791  0.00  0.00    -0.324 OA
ATOM      6  C   UNL     1      54.767 156.454  24.663  0.00  0.00    +0.264 C 
ATOM      7  O   UNL     1      55.819 156.872  23.887  0.00  0.00    -0.321 OA
ATOM      8  C   UNL     1      55.425 157.558  22.751  0.00  0.00    +0.209 C 
ATOM      9  C   UNL     1      54.287 158.464  23.031  0.00  0.00    +0.183 C 
ATOM     10  O   UNL     1      54.359 159.641  22.784  0.00  0.00    -0.293 OA
ATOM     11  C   UNL     1      53.070 157.861  23.623  0.00  0.00    +0.102 C 
ATOM     12  C   UNL     1      53.449 156.421  23.963  0.00  0.00    +0.181 C 
ATOM     13  O   UNL     1      52.491 155.835  24.744  0.00  0.00    -0.329 OA
ATOM     14  C   UNL     1      52.901 155.811  26.050  0.00  0.00    +0.223 C 
ATOM     15  C   UNL     1      51.632 155.708  26.920  0.00  0.00    +0.129 C 
ATOM     16  C   UNL     1      53.073 154.280  28.314  0.00  0.00    +0.164 C 
ATOM     17  C   UNL     1      52.450 152.982  28.288  0.00  0.00    +0.220 C 
ATOM     18  O   UNL     1      51.698 152.201  29.049  0.00  0.00    -0.448 OA
ATOM     19  C   UNL     1      51.308 150.993  28.385  0.00  0.00    +0.317 C 
ATOM     20  O   UNL     1      50.819 150.093  29.158  0.00  0.00    -0.250 OA
ATOM     21  C   UNL     1      51.463 150.815  26.918  0.00  0.00    +0.112 C 
ATOM     22  C   UNL     1      52.831 150.862  26.330  0.00  0.00    +0.044 C 
ATOM     23  C   UNL     1      53.297 152.126  25.669  0.00  0.00    +0.145 C 
ATOM     24  O   UNL     1      54.062 153.042  26.333  0.00  0.00    -0.330 OA
ATOM     25  C   UNL     1      53.850 154.237  26.994  0.00  0.00    +0.246 C 
ATOM     26  O   UNL     1      54.298 155.291  26.510  0.00  0.00    -0.307 OA
ENDROOT
BRANCH   1  27
ATOM     27  O   UNL     1      51.068 155.273  29.182  0.00  0.00    -0.456 OA
BRANCH  27  28
ATOM     28  C   UNL     1      50.272 156.319  29.638  0.00  0.00    +0.160 C 
ATOM     29  C   UNL     1      50.820 157.434  30.254  0.00  0.00    +0.136 C 
ATOM     30  N   UNL     1      50.032 158.436  30.687  0.00  0.00    -0.239 NA
ATOM     31  C   UNL     1      48.685 158.397  30.539  0.00  0.00    +0.099 C 
ATOM     32  C   UNL     1      48.088 157.312  29.933  0.00  0.00    +0.024 C 
ATOM     33  C   UNL     1      48.901 156.292  29.493  0.00  0.00    +0.040 C 
ENDBRANCH  27  28
ENDBRANCH   1  27
TORSDOF 2
