MODEL 1
REMARK VINA RESULT:    -8.329      0.000      0.000
REMARK INTER + INTRA:         -10.280
REMARK INTER:                 -10.520
REMARK INTRA:                   0.240
REMARK UNBOUND:                 0.240
REMARK  Name = =
REMARK  5 active torsions:
REMARK  status: ('A' for Active; 'I' for Inactive)
REMARK    1  A    between atoms: C_1  and  C_15
REMARK    2  A    between atoms: C_1  and  C_26
REMARK    3  A    between atoms: C_3  and  N_6
REMARK    4  A    between atoms: C_23  and  O_25
REMARK    5  A    between atoms: C_26  and  N_32
REMARK                            x       y       z     vdW  Elec       q    Type
REMARK                         _______ _______ _______ _____ _____    ______ ____
ROOT
ATOM      1  C   UNL     1       0.061  -6.838  28.665  0.00  0.00    +0.110 C 
ATOM      2  S   UNL     1       0.896  -8.563  28.349  0.00  0.00    -0.098 S 
ATOM      3  C   UNL     1      -0.602  -9.230  27.574  0.00  0.00    +0.182 C 
ATOM      4  N   UNL     1      -1.452  -8.085  27.386  0.00  0.00    -0.273 NA
ATOM      5  C   UNL     1      -0.582  -6.912  27.364  0.00  0.00    +0.088 C 
ATOM      6  H   UNL     1      -1.957  -8.164  26.504  0.00  0.00    +0.126 HD
ENDROOT
BRANCH   3   7
ATOM      7  N   UNL     1      -0.328  -9.945  26.362  0.00  0.00    -0.269 N 
ATOM      8  C   UNL     1       0.018 -11.322  26.464  0.00  0.00    +0.309 C 
ATOM      9  O   UNL     1       0.070 -11.864  27.622  0.00  0.00    -0.252 OA
ATOM     10  N   UNL     1       0.310 -12.144  25.357  0.00  0.00    -0.235 N 
ATOM     11  C   UNL     1       0.645 -13.525  25.543  0.00  0.00    +0.147 C 
ATOM     12  C   UNL     1       0.724 -14.280  24.240  0.00  0.00    +0.227 C 
ATOM     13  O   UNL     1       1.496 -13.522  23.355  0.00  0.00    -0.469 OA
ATOM     14  C   UNL     1       0.839 -12.393  22.945  0.00  0.00    +0.188 C 
ATOM     15  C   UNL     1       0.263 -11.559  24.046  0.00  0.00    +0.109 C 
ATOM     16  H   UNL     1      -0.378  -9.498  25.487  0.00  0.00    +0.153 HD
ENDBRANCH   3   7
BRANCH   1  17
ATOM     17  C   UNL     1      -0.702  -7.186  29.875  0.00  0.00    -0.006 C 
ATOM     18  C   UNL     1      -1.738  -6.376  30.319  0.00  0.00    +0.018 C 
ATOM     19  C   UNL     1      -2.403  -6.610  31.534  0.00  0.00    +0.081 C 
ATOM     20  N   UNL     1      -2.032  -7.650  32.300  0.00  0.00    -0.244 NA
ATOM     21  C   UNL     1      -1.051  -8.457  31.924  0.00  0.00    +0.099 C 
ATOM     22  C   UNL     1      -0.391  -8.245  30.739  0.00  0.00    +0.017 C 
ATOM     23  C   UNL     1      -3.451  -5.791  31.913  0.00  0.00    +0.022 C 
ATOM     24  C   UNL     1      -3.837  -4.754  31.088  0.00  0.00    +0.038 C 
ATOM     25  C   UNL     1      -3.193  -4.522  29.892  0.00  0.00    +0.134 C 
ATOM     26  C   UNL     1      -2.146  -5.334  29.510  0.00  0.00    +0.038 C 
BRANCH  25  27
ATOM     27  O   UNL     1      -3.604  -3.490  29.103  0.00  0.00    -0.506 OA
ATOM     28  H   UNL     1      -3.253  -2.631  29.234  0.00  0.00    +0.292 HD
ENDBRANCH  25  27
ENDBRANCH   1  17
BRANCH   1  29
ATOM     29  C   UNL     1       1.309  -6.074  28.873  0.00  0.00    +0.177 C 
ATOM     30  N   UNL     1       1.005  -4.725  28.263  0.00  0.00    -0.254 N 
ATOM     31  C   UNL     1       1.538  -4.753  26.951  0.00  0.00    +0.403 C 
ATOM     32  O   UNL     1       1.295  -3.940  26.053  0.00  0.00    -0.226 OA
ATOM     33  O   UNL     1       2.387  -5.851  26.834  0.00  0.00    -0.431 OA
ATOM     34  C   UNL     1       2.569  -6.385  28.173  0.00  0.00    +0.248 C 
ATOM     35  H   UNL     1       0.531  -3.976  28.692  0.00  0.00    +0.154 HD
BRANCH  29  36
ATOM     36  N   UNL     1       1.654  -5.786  30.250  0.00  0.00    -0.256 N 
ATOM     37  C   UNL     1       2.281  -6.693  31.204  0.00  0.00    +0.122 C 
ATOM     38  C   UNL     1       2.450  -5.920  32.435  0.00  0.00    +0.000 C 
ATOM     39  C   UNL     1       1.993  -4.693  32.310  0.00  0.00    +0.055 C 
ATOM     40  C   UNL     1       1.480  -4.559  30.953  0.00  0.00    +0.250 C 
ATOM     41  O   UNL     1       0.968  -3.498  30.524  0.00  0.00    -0.270 OA
ENDBRANCH  29  36
ENDBRANCH   1  29
TORSDOF 5
ENDMDL
