MODEL 1
REMARK VINA RESULT:    -8.393      0.000      0.000
REMARK INTER + INTRA:         -11.913
REMARK INTER:                 -10.847
REMARK INTRA:                  -1.066
REMARK UNBOUND:                -1.066
REMARK  Name = =
REMARK  6 active torsions:
REMARK  status: ('A' for Active; 'I' for Inactive)
REMARK    1  A    between atoms: S_1  and  O_18
REMARK    2  A    between atoms: C_6  and  C_7
REMARK    3  A    between atoms: O_18  and  C_21
REMARK    4  A    between atoms: C_19  and  O_25
REMARK    5  A    between atoms: C_23  and  O_28
REMARK    6  A    between atoms: C_24  and  C_26
REMARK                            x       y       z     vdW  Elec       q    Type
REMARK                         _______ _______ _______ _____ _____    ______ ____
ROOT
ATOM      1  S   UNL     1      49.457 163.837  41.947  0.00  0.00    -0.078 S 
ATOM      2  C   UNL     1      48.276 164.950  41.381  0.00  0.00    +0.073 C 
ATOM      3  C   UNL     1      47.405 164.275  40.314  0.00  0.00    +0.013 C 
ATOM      4  C   UNL     1      46.664 163.164  40.984  0.00  0.00    +0.002 C 
ATOM      5  C   UNL     1      47.553 162.080  41.514  0.00  0.00    +0.020 C 
ATOM      6  C   UNL     1      49.028 162.335  41.190  0.00  0.00    +0.118 C 
ATOM      7  H   UNL     1      49.419 163.689  43.298  0.00  0.00    +0.123 HD
ENDROOT
BRANCH   6   8
ATOM      8  C   UNL     1      49.807 161.192  41.652  0.00  0.00    +0.130 A 
ATOM      9  N   UNL     1      49.372 159.920  41.675  0.00  0.00    -0.232 NA
ATOM     10  C   UNL     1      50.139 158.906  42.113  0.00  0.00    +0.087 A 
ATOM     11  C   UNL     1      51.423 159.135  42.565  0.00  0.00    +0.074 A 
ATOM     12  C   UNL     1      52.203 158.086  43.014  0.00  0.00    +0.006 C 
ATOM     13  C   UNL     1      51.746 156.775  43.034  0.00  0.00    +0.000 C 
ATOM     14  C   UNL     1      50.464 156.556  42.582  0.00  0.00    +0.002 C 
ATOM     15  C   UNL     1      49.677 157.592  42.133  0.00  0.00    +0.019 C 
ATOM     16  C   UNL     1      51.872 160.438  42.541  0.00  0.00    +0.260 A 
ATOM     17  O   UNL     1      53.047 160.651  42.955  0.00  0.00    -0.267 OA
ATOM     18  N   UNL     1      51.059 161.400  42.093  0.00  0.00    -0.309 N 
ATOM     19  H   UNL     1      51.402 162.323  42.086  0.00  0.00    +0.170 HD
ENDBRANCH   6   8
BRANCH   1  20
ATOM     20  O   UNL     1      51.077 164.344  42.006  0.00  0.00    -0.447 OA
BRANCH  20  23
ATOM     21  C   UNL     1      52.742 166.895  39.985  0.00  0.00    +0.143 C 
ATOM     22  C   UNL     1      52.305 165.679  40.471  0.00  0.00    +0.075 C 
ATOM     23  C   UNL     1      51.475 165.587  41.571  0.00  0.00    +0.159 C 
ATOM     24  C   UNL     1      51.082 166.750  42.185  0.00  0.00    +0.075 C 
ATOM     25  C   UNL     1      51.525 167.987  41.691  0.00  0.00    +0.143 C 
ATOM     26  C   UNL     1      52.354 168.094  40.593  0.00  0.00    +0.110 C 
BRANCH  21  27
ATOM     27  O   UNL     1      53.576 166.987  38.880  0.00  0.00    -0.505 OA
ATOM     28  H   UNL     1      53.653 167.798  38.417  0.00  0.00    +0.292 HD
ENDBRANCH  21  27
BRANCH  26  29
ATOM     29  C   UNL     1      52.834 169.355  40.053  0.00  0.00    +0.240 C 
ATOM     30  O   UNL     1      53.304 170.205  40.844  0.00  0.00    -0.283 OA
ENDBRANCH  26  29
BRANCH  25  31
ATOM     31  O   UNL     1      51.112 169.139  42.330  0.00  0.00    -0.505 OA
ATOM     32  H   UNL     1      51.013 169.934  41.844  0.00  0.00    +0.292 HD
ENDBRANCH  25  31
ENDBRANCH  20  23
ENDBRANCH   1  20
TORSDOF 6
ENDMDL
