REMARK  Name = =
REMARK  0 active torsions:
REMARK  status: ('A' for Active; 'I' for Inactive)
REMARK                            x       y       z     vdW  Elec       q    Type
REMARK                         _______ _______ _______ _____ _____    ______ ____
ROOT
ATOM      1  C   UNL     1      52.654 155.899  28.070  0.00  0.00    +0.306 C 
ATOM      2  O   UNL     1      51.576 155.397  28.608  0.00  0.00    -0.408 OA
ATOM      3  C   UNL     1      51.086 156.223  29.518  0.00  0.00    +0.306 C 
ATOM      4  N   UNL     1      51.891 157.309  29.564  0.00  0.00    -0.102 NA
ATOM      5  N   UNL     1      52.856 157.086  28.659  0.00  0.00    -0.102 NA
ENDROOT
TORSDOF 0
