REMARK  Name = =
REMARK  0 active torsions:
REMARK  status: ('A' for Active; 'I' for Inactive)
REMARK                            x       y       z     vdW  Elec       q    Type
REMARK                         _______ _______ _______ _____ _____    ______ ____
ROOT
ATOM      1  I   UNL     1      51.975 154.700  28.360  0.00  0.00    -0.107 I 
ATOM      2  H   UNL     1      53.536 154.700  28.360  0.00  0.00    +0.107 HD
ENDROOT
TORSDOF 0
