REMARK  Name = =
REMARK  1 active torsions:
REMARK  status: ('A' for Active; 'I' for Inactive)
REMARK    1  A    between atoms: C_1  and  O_3
REMARK                            x       y       z     vdW  Elec       q    Type
REMARK                         _______ _______ _______ _____ _____    ______ ____
ROOT
ATOM      1  C   UNL     1      51.684 156.172  28.035  0.00  0.00    +0.415 C 
ATOM      2  O   UNL     1      51.471 157.406  27.916  0.00  0.00    -0.238 OA
ENDROOT
BRANCH   1   3
ATOM      3  O   UNL     1      52.987 155.717  27.887  0.00  0.00    -0.473 OA
ATOM      4  H   UNL     1      53.176 154.803  27.970  0.00  0.00    +0.296 HD
ENDBRANCH   1   3
TORSDOF 1
