REMARK  Name = =
REMARK  2 active torsions:
REMARK  status: ('A' for Active; 'I' for Inactive)
REMARK    1  A    between atoms: C_1  and  C_15
REMARK    2  A    between atoms: C_15  and  O_17
REMARK                            x       y       z     vdW  Elec       q    Type
REMARK                         _______ _______ _______ _____ _____    ______ ____
ROOT
ATOM      1  C   UNL     1      52.078 155.903  28.911  0.00  0.00    +0.075 C 
ATOM      2  C   UNL     1      52.508 155.073  27.896  0.00  0.00    +0.006 C 
ATOM      3  C   UNL     1      52.185 153.708  27.901  0.00  0.00    -0.000 C 
ATOM      4  C   UNL     1      52.619 152.868  26.875  0.00  0.00    -0.002 C 
ATOM      5  C   UNL     1      53.372 153.364  25.839  0.00  0.00    +0.003 C 
ATOM      6  C   UNL     1      53.666 154.700  25.870  0.00  0.00    -0.021 C 
ATOM      7  C   UNL     1      53.262 155.581  26.861  0.00  0.00    -0.004 C 
ATOM      8  C   UNL     1      54.481 155.278  24.766  0.00  0.00    +0.058 C 
ATOM      9  C   UNL     1      54.635 154.358  23.600  0.00  0.00    +0.147 C 
ATOM     10  O   UNL     1      53.728 153.326  23.555  0.00  0.00    -0.349 OA
ATOM     11  C   UNL     1      53.870 152.528  24.712  0.00  0.00    +0.168 C 
ATOM     12  C   UNL     1      51.433 153.152  28.911  0.00  0.00    -0.000 C 
ATOM     13  C   UNL     1      50.998 153.957  29.925  0.00  0.00    +0.000 C 
ATOM     14  C   UNL     1      51.317 155.277  29.910  0.00  0.00    +0.006 C 
ENDROOT
BRANCH   1  15
ATOM     15  C   UNL     1      52.359 157.312  28.992  0.00  0.00    +0.338 C 
ATOM     16  O   UNL     1      51.520 158.024  29.650  0.00  0.00    -0.245 OA
BRANCH  15  17
ATOM     17  O   UNL     1      53.399 158.004  28.464  0.00  0.00    -0.477 OA
ATOM     18  H   UNL     1      54.056 157.556  27.969  0.00  0.00    +0.295 HD
ENDBRANCH  15  17
ENDBRANCH   1  15
TORSDOF 2
