REMARK  Name = =
REMARK  0 active torsions:
REMARK  status: ('A' for Active; 'I' for Inactive)
REMARK                            x       y       z     vdW  Elec       q    Type
REMARK                         _______ _______ _______ _____ _____    ______ ____
ROOT
ATOM      1  I   UNL     1      51.505 154.855  28.053  0.00  0.00    -0.006 I 
ATOM      2  C   UNL     1      51.812 156.103  29.738  0.00  0.00    +0.291 C 
ATOM      3  O   UNL     1      53.148 156.542  29.680  0.00  0.00    -0.320 OA
ATOM      4  C   UNL     1      53.137 157.354  28.523  0.00  0.00    +0.178 C 
ATOM      5  C   UNL     1      51.702 157.720  28.330  0.00  0.00    +0.178 C 
ATOM      6  O   UNL     1      51.146 157.336  29.573  0.00  0.00    -0.320 OA
ENDROOT
TORSDOF 0
