REMARK  Name = =
REMARK  1 active torsions:
REMARK  status: ('A' for Active; 'I' for Inactive)
REMARK    1  A    between atoms: C_4  and  O_7
REMARK                            x       y       z     vdW  Elec       q    Type
REMARK                         _______ _______ _______ _____ _____    ______ ____
ROOT
ATOM      1  C   UNL     1      52.382 156.466  27.493  0.00  0.00    +0.000 C 
ATOM      2  C   UNL     1      52.115 156.877  28.787  0.00  0.00    +0.003 C 
ATOM      3  C   UNL     1      51.693 155.931  29.692  0.00  0.00    +0.037 C 
ATOM      4  C   UNL     1      51.519 154.603  29.394  0.00  0.00    +0.134 C 
ATOM      5  C   UNL     1      51.793 154.213  28.091  0.00  0.00    +0.037 C 
ATOM      6  C   UNL     1      52.219 155.129  27.149  0.00  0.00    +0.003 C 
ENDROOT
BRANCH   4   7
ATOM      7  O   UNL     1      51.089 153.663  30.337  0.00  0.00    -0.506 OA
ATOM      8  H   UNL     1      50.905 153.931  31.216  0.00  0.00    +0.292 HD
ENDBRANCH   4   7
TORSDOF 1
REMARK  Name = =
REMARK  1 active torsions:
REMARK  status: ('A' for Active; 'I' for Inactive)
REMARK    1  A    between atoms: C_4  and  O_7
REMARK                            x       y       z     vdW  Elec       q    Type
REMARK                         _______ _______ _______ _____ _____    ______ ____
ROOT
ATOM      1  I   UNL     1      52.354 158.911  29.342  0.00  0.00    -0.107 I 
ATOM      2  H   UNL     1      53.915 158.911  29.342  0.00  0.00    +0.107 HD
ENDROOT
TORSDOF 0
REMARK  Name = =
REMARK  1 active torsions:
REMARK  status: ('A' for Active; 'I' for Inactive)
REMARK    1  A    between atoms: C_4  and  O_7
REMARK                            x       y       z     vdW  Elec       q    Type
REMARK                         _______ _______ _______ _____ _____    ______ ____
ROOT
ATOM      1  C   UNL     1      51.031 159.244  30.974  0.00  0.00    +0.294 C 
ATOM      2  O   UNL     1      51.352 160.447  31.551  0.00  0.00    -0.324 OA
ATOM      3  C   UNL     1      50.190 161.199  31.664  0.00  0.00    +0.177 C 
ATOM      4  C   UNL     1      49.133 160.092  31.564  0.00  0.00    +0.177 C 
ATOM      5  O   UNL     1      49.704 159.295  30.570  0.00  0.00    -0.324 OA
ENDROOT
TORSDOF 0
