REMARK  Name = =
REMARK  6 active torsions:
REMARK  status: ('A' for Active; 'I' for Inactive)
REMARK    1  A    between atoms: C_1  and  C_15
REMARK    2  A    between atoms: C_12  and  N_18
REMARK    3  A    between atoms: C_15  and  O_17
REMARK    4  A    between atoms: N_18  and  P_19
REMARK    5  A    between atoms: P_19  and  N_21
REMARK    6  A    between atoms: P_19  and  N_22
REMARK                            x       y       z     vdW  Elec       q    Type
REMARK                         _______ _______ _______ _____ _____    ______ ____
ROOT
ATOM      1  C   UNL     1      53.970 156.124  25.622  0.00  0.00    +0.076 C 
ATOM      2  C   UNL     1      53.525 154.912  26.095  0.00  0.00    +0.007 C 
ATOM      3  C   UNL     1      52.960 154.797  27.375  0.00  0.00    +0.013 C 
ATOM      4  C   UNL     1      52.509 153.586  27.863  0.00  0.00    -0.001 C 
ATOM      5  C   UNL     1      52.626 152.466  27.051  0.00  0.00    +0.003 C 
ATOM      6  C   UNL     1      53.173 152.543  25.798  0.00  0.00    -0.021 C 
ATOM      7  C   UNL     1      53.625 153.782  25.319  0.00  0.00    -0.004 C 
ATOM      8  C   UNL     1      53.314 151.365  24.902  0.00  0.00    +0.058 C 
ATOM      9  C   UNL     1      53.188 150.130  25.797  0.00  0.00    +0.147 C 
ATOM     10  O   UNL     1      52.020 150.226  26.534  0.00  0.00    -0.349 OA
ATOM     11  C   UNL     1      52.140 151.165  27.578  0.00  0.00    +0.168 C 
ATOM     12  C   UNL     1      52.824 155.888  28.216  0.00  0.00    +0.051 C 
ATOM     13  C   UNL     1      53.270 157.098  27.739  0.00  0.00    +0.015 C 
ATOM     14  C   UNL     1      53.824 157.219  26.487  0.00  0.00    +0.008 C 
ENDROOT
BRANCH   1  15
ATOM     15  C   UNL     1      54.562 156.308  24.310  0.00  0.00    +0.338 C 
ATOM     16  O   UNL     1      54.921 155.479  23.485  0.00  0.00    -0.245 OA
BRANCH  15  17
ATOM     17  O   UNL     1      54.766 157.657  23.895  0.00  0.00    -0.477 OA
ATOM     18  H   UNL     1      54.522 158.363  24.460  0.00  0.00    +0.295 HD
ENDBRANCH  15  17
ENDBRANCH   1  15
BRANCH  12  19
ATOM     19  N   UNL     1      52.246 155.748  29.513  0.00  0.00    -0.271 N 
ATOM     20  H   UNL     1      52.794 155.365  30.236  0.00  0.00    +0.156 HD
BRANCH  19  21
ATOM     21  P   UNL     1      50.609 156.229  29.868  0.00  0.00    +0.293 P 
ATOM     22  O   UNL     1      49.686 155.721  28.785  0.00  0.00    -0.265 OA
BRANCH  21  23
ATOM     23  N   UNL     1      50.580 157.985  29.958  0.00  0.00    -0.254 NA
ATOM     24  H   UNL     1      51.211 158.298  30.696  0.00  0.00    +0.128 HD
ATOM     25  H   UNL     1      49.632 158.299  30.165  0.00  0.00    +0.128 HD
ENDBRANCH  21  23
BRANCH  21  26
ATOM     26  N   UNL     1      50.181 155.567  31.430  0.00  0.00    -0.254 NA
ATOM     27  H   UNL     1      50.820 155.927  32.139  0.00  0.00    +0.128 HD
ATOM     28  H   UNL     1      50.247 154.550  31.398  0.00  0.00    +0.128 HD
ENDBRANCH  21  26
ENDBRANCH  19  21
ENDBRANCH  12  19
TORSDOF 6
