REMARK  Name = =
REMARK  8 active torsions:
REMARK  status: ('A' for Active; 'I' for Inactive)
REMARK    1  A    between atoms: C_1  and  N_3
REMARK    2  A    between atoms: C_1  and  S_15
REMARK    3  A    between atoms: N_3  and  O_4
REMARK    4  A    between atoms: O_4  and  C_5
REMARK    5  A    between atoms: C_6  and  C_11
REMARK    6  A    between atoms: S_15  and  N_21
REMARK    7  A    between atoms: N_21  and  S_22
REMARK    8  A    between atoms: S_22  and  N_25
REMARK                            x       y       z     vdW  Elec       q    Type
REMARK                         _______ _______ _______ _____ _____    ______ ____
ROOT
ATOM      1  C   UNL     1      51.168 156.646  29.559  0.00  0.00    +0.160 C 
ATOM      2  S   UNL     1      50.058 155.743  28.776  0.00  0.00    -0.024 S 
ENDROOT
BRANCH   1   3
ATOM      3  N   UNL     1      50.893 157.600  30.550  0.00  0.00    -0.166 N 
ATOM      4  H   UNL     1      51.664 158.087  30.921  0.00  0.00    +0.194 HD
BRANCH   3   5
ATOM      5  O   UNL     1      49.684 157.918  31.045  0.00  0.00    -0.385 OA
BRANCH   5   6
ATOM      6  C   UNL     1      48.934 158.974  30.621  0.00  0.00    +0.173 C 
ATOM      7  C   UNL     1      49.063 160.173  31.329  0.00  0.00    +0.061 C 
ATOM      8  C   UNL     1      48.312 161.252  30.918  0.00  0.00    +0.102 C 
ATOM      9  N   UNL     1      47.478 161.144  29.863  0.00  0.00    -0.242 NA
ATOM     10  C   UNL     1      47.355 159.991  29.184  0.00  0.00    +0.102 C 
ATOM     11  C   UNL     1      48.083 158.866  29.546  0.00  0.00    +0.061 C 
BRANCH   7  12
ATOM     12  C   UNL     1      49.983 160.265  32.451  0.00  0.00    +0.065 C 
ATOM     13  C   UNL     1      49.544 160.870  33.566  0.00  0.00    +0.279 C 
ATOM     14  F   UNL     1      50.343 161.000  34.669  0.00  0.00    -0.172 F 
ATOM     15  F   UNL     1      48.294 161.379  33.665  0.00  0.00    -0.172 F 
ENDBRANCH   7  12
ENDBRANCH   5   6
ENDBRANCH   3   5
ENDBRANCH   1   3
BRANCH   1  16
ATOM     16  S   UNL     1      52.899 156.359  29.096  0.00  0.00    +0.033 S 
BRANCH  16  22
ATOM     17  C   UNL     1      52.472 153.984  27.739  0.00  0.00    +0.343 C 
ATOM     18  O   UNL     1      52.439 153.089  26.786  0.00  0.00    -0.399 OA
ATOM     19  C   UNL     1      51.907 151.978  27.217  0.00  0.00    +0.307 C 
ATOM     20  N   UNL     1      51.581 152.159  28.505  0.00  0.00    -0.101 NA
ATOM     21  N   UNL     1      51.926 153.391  28.832  0.00  0.00    -0.090 NA
ATOM     22  N   UNL     1      52.961 155.312  27.703  0.00  0.00    -0.074 N 
BRANCH  22  23
ATOM     23  S   UNL     1      53.633 155.969  26.256  0.00  0.00    +0.142 S 
ATOM     24  O   UNL     1      54.356 157.257  26.606  0.00  0.00    -0.134 OA
ATOM     25  O   UNL     1      54.630 155.001  25.710  0.00  0.00    -0.134 OA
BRANCH  23  26
ATOM     26  N   UNL     1      52.430 156.328  25.090  0.00  0.00    -0.164 N 
ATOM     27  C   UNL     1      52.842 157.035  23.924  0.00  0.00    +0.320 C 
ATOM     28  O   UNL     1      54.047 157.374  23.771  0.00  0.00    -0.263 OA
ATOM     29  H   UNL     1      51.493 156.057  25.220  0.00  0.00    +0.178 HD
ENDBRANCH  23  26
ENDBRANCH  22  23
ENDBRANCH  16  22
ENDBRANCH   1  16
TORSDOF 8
