REMARK  Name = =
REMARK  4 active torsions:
REMARK  status: ('A' for Active; 'I' for Inactive)
REMARK    1  A    between atoms: C_1  and  N_9
REMARK    2  A    between atoms: C_1  and  O_10
REMARK    3  A    between atoms: C_1  and  C_11
REMARK    4  A    between atoms: C_11  and  N_12
REMARK                            x       y       z     vdW  Elec       q    Type
REMARK                         _______ _______ _______ _____ _____    ______ ____
ROOT
ATOM      1  C   UNL     1      -1.278  -4.515  30.013  0.00  0.00    +0.205 C 
ENDROOT
BRANCH   1   9
ATOM      2  N   UNL     1      -4.320  -2.816  31.568  0.00  0.00    -0.214 N 
ATOM      3  C   UNL     1      -5.343  -1.810  31.637  0.00  0.00    +0.112 C 
ATOM      4  C   UNL     1      -6.186  -2.899  32.314  0.00  0.00    +0.108 C 
ATOM      5  C   UNL     1      -4.843  -3.391  32.744  0.00  0.00    +0.234 C 
ATOM      6  O   UNL     1      -4.332  -4.028  33.696  0.00  0.00    -0.274 OA
ATOM      7  C   UNL     1      -3.246  -3.124  30.714  0.00  0.00    +0.311 C 
ATOM      8  O   UNL     1      -2.984  -2.414  29.683  0.00  0.00    -0.252 OA
ATOM      9  N   UNL     1      -2.367  -4.227  30.905  0.00  0.00    -0.266 N 
ATOM     10  H   UNL     1      -2.511  -4.817  31.680  0.00  0.00    +0.153 HD
ENDBRANCH   1   9
BRANCH   1  11
ATOM     11  O   UNL     1      -1.769  -5.346  29.014  0.00  0.00    -0.366 OA
ATOM     12  H   UNL     1      -1.056  -5.560  28.392  0.00  0.00    +0.212 HD
ENDBRANCH   1  11
BRANCH   1  13
ATOM     13  C   UNL     1      -0.060  -5.044  30.683  0.00  0.00    +0.123 C 
BRANCH  13  14
ATOM     14  N   UNL     1       0.033  -6.454  30.828  0.00  0.00    -0.269 NA
ATOM     15  C   UNL     1      -0.631  -6.824  32.060  0.00  0.00    +0.072 C 
ATOM     16  C   UNL     1       0.255  -7.473  33.068  0.00  0.00    +0.017 C 
ATOM     17  C   UNL     1       1.489  -6.612  33.270  0.00  0.00    +0.003 C 
ATOM     18  C   UNL     1       2.224  -6.591  31.954  0.00  0.00    +0.017 C 
ATOM     19  C   UNL     1       1.337  -7.021  30.825  0.00  0.00    +0.072 C 
ENDBRANCH  13  14
ENDBRANCH   1  13
TORSDOF 4
