REMARK  Name = =
REMARK  9 active torsions:
REMARK  status: ('A' for Active; 'I' for Inactive)
REMARK    1  A    between atoms: N_1  and  C_19
REMARK    2  A    between atoms: C_2  and  N_7
REMARK    3  A    between atoms: C_9  and  C_16
REMARK    4  A    between atoms: C_11  and  C_13
REMARK    5  A    between atoms: C_13  and  O_15
REMARK    6  A    between atoms: C_16  and  O_18
REMARK    7  A    between atoms: C_19  and  C_20
REMARK    8  A    between atoms: C_20  and  N_28
REMARK    9  A    between atoms: C_20  and  O_29
REMARK                            x       y       z     vdW  Elec       q    Type
REMARK                         _______ _______ _______ _____ _____    ______ ____
ROOT
ATOM      1  N   UNL     1      -1.497  -3.596  28.803  0.00  0.00    -0.255 NA
ATOM      2  C   UNL     1      -0.571  -3.593  29.855  0.00  0.00    +0.135 C 
ATOM      3  C   UNL     1       0.659  -2.814  29.518  0.00  0.00    +0.037 C 
ATOM      4  C   UNL     1       1.293  -3.546  28.324  0.00  0.00    +0.005 C 
ATOM      5  C   UNL     1       0.346  -3.233  27.172  0.00  0.00    +0.017 C 
ATOM      6  C   UNL     1      -1.068  -3.587  27.462  0.00  0.00    +0.074 C 
ENDROOT
BRANCH   2   7
ATOM      7  N   UNL     1      -0.145  -4.937  30.203  0.00  0.00    -0.291 N 
ATOM      8  C   UNL     1      -0.616  -6.032  29.432  0.00  0.00    +0.125 C 
ATOM      9  C   UNL     1      -0.287  -7.292  29.661  0.00  0.00    +0.073 C 
ATOM     10  C   UNL     1       0.607  -7.634  30.755  0.00  0.00    +0.012 C 
ATOM     11  C   UNL     1       1.078  -6.494  31.533  0.00  0.00    +0.090 C 
ATOM     12  C   UNL     1       0.728  -5.258  31.272  0.00  0.00    +0.069 C 
BRANCH  11  13
ATOM     13  C   UNL     1       1.996  -6.666  32.683  0.00  0.00    +0.339 C 
ATOM     14  O   UNL     1       1.592  -7.347  33.650  0.00  0.00    -0.245 OA
BRANCH  13  15
ATOM     15  O   UNL     1       3.257  -6.111  32.724  0.00  0.00    -0.477 OA
ATOM     16  H   UNL     1       3.567  -5.599  32.003  0.00  0.00    +0.295 HD
ENDBRANCH  13  15
ENDBRANCH  11  13
BRANCH   9  17
ATOM     17  C   UNL     1      -0.829  -8.367  28.799  0.00  0.00    +0.336 C 
ATOM     18  O   UNL     1      -0.036  -9.247  28.412  0.00  0.00    -0.245 OA
BRANCH  17  19
ATOM     19  O   UNL     1      -2.145  -8.417  28.425  0.00  0.00    -0.477 OA
ATOM     20  H   UNL     1      -2.740  -7.755  28.717  0.00  0.00    +0.295 HD
ENDBRANCH  17  19
ENDBRANCH   9  17
ENDBRANCH   2   7
BRANCH   1  21
ATOM     21  C   UNL     1      -2.681  -2.846  28.973  0.00  0.00    +0.124 C 
BRANCH  21  22
ATOM     22  C   UNL     1      -3.540  -3.229  30.140  0.00  0.00    +0.205 C 
BRANCH  22  30
ATOM     23  N   UNL     1      -5.835  -0.767  31.998  0.00  0.00    -0.214 N 
ATOM     24  C   UNL     1      -6.776  -0.328  32.990  0.00  0.00    +0.112 C 
ATOM     25  C   UNL     1      -7.198   0.733  32.017  0.00  0.00    +0.108 C 
ATOM     26  C   UNL     1      -5.836   0.550  31.464  0.00  0.00    +0.234 C 
ATOM     27  O   UNL     1      -4.990   1.234  30.795  0.00  0.00    -0.274 OA
ATOM     28  C   UNL     1      -5.154  -1.973  31.635  0.00  0.00    +0.311 C 
ATOM     29  O   UNL     1      -5.336  -3.047  32.288  0.00  0.00    -0.252 OA
ATOM     30  N   UNL     1      -4.255  -2.007  30.538  0.00  0.00    -0.266 N 
ATOM     31  H   UNL     1      -4.104  -1.181  30.024  0.00  0.00    +0.153 HD
ENDBRANCH  22  30
BRANCH  22  32
ATOM     32  O   UNL     1      -4.503  -4.172  29.853  0.00  0.00    -0.366 OA
ATOM     33  H   UNL     1      -4.075  -5.000  29.584  0.00  0.00    +0.212 HD
ENDBRANCH  22  32
ENDBRANCH  21  22
ENDBRANCH   1  21
TORSDOF 9
