REMARK  Name = =
REMARK  8 active torsions:
REMARK  status: ('A' for Active; 'I' for Inactive)
REMARK    1  A    between atoms: C_3  and  C_14
REMARK    2  A    between atoms: C_10  and  C_32
REMARK    3  A    between atoms: C_17  and  O_24
REMARK    4  A    between atoms: C_19  and  O_25
REMARK    5  A    between atoms: O_25  and  N_26
REMARK    6  A    between atoms: C_33  and  S_38
REMARK    7  A    between atoms: S_38  and  C_39
REMARK    8  A    between atoms: C_42  and  O_46
REMARK                            x       y       z     vdW  Elec       q    Type
REMARK                         _______ _______ _______ _____ _____    ______ ____
ROOT
ATOM      1  N   UNL     1      -7.556  -0.415  16.670  0.00  0.00    -0.219 NA
ATOM      2  C   UNL     1      -8.638  -1.393  16.743  0.00  0.00    +0.093 C 
ATOM      3  C   UNL     1      -8.655  -1.846  18.219  0.00  0.00    +0.050 C 
ATOM      4  C   UNL     1      -8.604  -0.862  19.224  0.00  0.00    +0.029 C 
ATOM      5  C   UNL     1      -9.055   0.451  18.412  0.00  0.00    +0.022 C 
ATOM      6  C   UNL     1      -7.917   0.689  17.506  0.00  0.00    +0.077 C 
ATOM      7  C   UNL     1      -6.702   1.109  18.242  0.00  0.00    +0.043 C 
ATOM      8  C   UNL     1      -6.761   0.663  19.648  0.00  0.00    -0.025 C 
ATOM      9  C   UNL     1      -7.693  -0.295  20.131  0.00  0.00    -0.026 C 
ATOM     10  C   UNL     1      -7.656  -0.521  21.455  0.00  0.00    -0.004 C 
ATOM     11  C   UNL     1      -6.754   0.137  22.321  0.00  0.00    -0.000 C 
ATOM     12  C   UNL     1      -5.882   1.041  21.806  0.00  0.00    -0.000 C 
ATOM     13  C   UNL     1      -5.875   1.311  20.481  0.00  0.00    -0.005 C 
ENDROOT
BRANCH   3  14
ATOM     14  C   UNL     1      -8.471  -3.289  18.313  0.00  0.00    +0.050 C 
ATOM     15  C   UNL     1      -7.323  -3.965  18.212  0.00  0.00    +0.136 C 
ATOM     16  C   UNL     1      -7.200  -5.317  18.480  0.00  0.00    +0.045 C 
ATOM     17  C   UNL     1      -8.309  -6.045  18.874  0.00  0.00    +0.136 C 
ATOM     18  C   UNL     1      -9.522  -5.393  18.990  0.00  0.00    +0.076 C 
ATOM     19  C   UNL     1      -9.628  -4.070  18.726  0.00  0.00    +0.172 C 
ATOM     20  C   UNL     1      -5.896  -6.024  18.372  0.00  0.00    +0.036 C 
ATOM     21  C   UNL     1      -4.955  -5.432  17.386  0.00  0.00    +0.052 C 
ATOM     22  C   UNL     1      -5.227  -4.030  16.972  0.00  0.00    +0.206 C 
ATOM     23  O   UNL     1      -6.160  -3.350  17.806  0.00  0.00    -0.476 OA
BRANCH  17  24
ATOM     24  O   UNL     1      -8.143  -7.405  19.135  0.00  0.00    -0.506 OA
ATOM     25  H   UNL     1      -7.299  -7.800  19.042  0.00  0.00    +0.292 HD
ENDBRANCH  17  24
BRANCH  19  26
ATOM     26  O   UNL     1     -10.794  -3.403  18.835  0.00  0.00    -0.381 OA
BRANCH  26  27
ATOM     27  N   UNL     1     -12.049  -3.771  19.063  0.00  0.00    -0.123 N 
ATOM     28  C   UNL     1     -12.775  -4.890  18.486  0.00  0.00    +0.137 C 
ATOM     29  C   UNL     1     -14.240  -4.450  18.499  0.00  0.00    +0.035 C 
ATOM     30  C   UNL     1     -14.280  -3.099  19.188  0.00  0.00    +0.090 C 
ATOM     31  C   UNL     1     -13.009  -3.114  19.950  0.00  0.00    +0.257 C 
ATOM     32  O   UNL     1     -12.737  -2.681  21.105  0.00  0.00    -0.272 OA
ENDBRANCH  26  27
ENDBRANCH  19  26
ENDBRANCH   3  14
BRANCH  10  33
ATOM     33  C   UNL     1      -8.515  -1.441  22.148  0.00  0.00    +0.006 C 
ATOM     34  C   UNL     1      -9.635  -1.117  22.847  0.00  0.00    +0.029 C 
ATOM     35  C   UNL     1     -10.362  -2.101  23.547  0.00  0.00    +0.006 C 
ATOM     36  C   UNL     1      -9.953  -3.408  23.540  0.00  0.00    +0.001 C 
ATOM     37  C   UNL     1      -8.820  -3.723  22.832  0.00  0.00    +0.000 C 
ATOM     38  C   UNL     1      -8.124  -2.763  22.157  0.00  0.00    +0.000 C 
BRANCH  34  39
ATOM     39  S   UNL     1     -10.222   0.548  22.917  0.00  0.00    -0.087 S 
BRANCH  39  40
ATOM     40  C   UNL     1     -11.795   0.595  23.780  0.00  0.00    +0.030 C 
ATOM     41  C   UNL     1     -12.976   0.394  23.116  0.00  0.00    +0.016 C 
ATOM     42  C   UNL     1     -14.164   0.427  23.807  0.00  0.00    +0.069 C 
ATOM     43  C   UNL     1     -14.245   0.656  25.156  0.00  0.00    +0.140 C 
ATOM     44  C   UNL     1     -13.043   0.861  25.825  0.00  0.00    +0.038 C 
ATOM     45  C   UNL     1     -11.840   0.828  25.141  0.00  0.00    +0.010 C 
ATOM     46 BR   UNL     1     -15.821   0.126  22.872  0.00  0.00    -0.046 Br
BRANCH  43  47
ATOM     47  O   UNL     1     -15.461   0.683  25.815  0.00  0.00    -0.505 OA
ATOM     48  H   UNL     1     -16.255   0.542  25.339  0.00  0.00    +0.292 HD
ENDBRANCH  43  47
ENDBRANCH  39  40
ENDBRANCH  34  39
ENDBRANCH  10  33
TORSDOF 8
