REMARK  Name = =
REMARK  9 active torsions:
REMARK  status: ('A' for Active; 'I' for Inactive)
REMARK    1  A    between atoms: N_1  and  C_2
REMARK    2  A    between atoms: N_1  and  O_13
REMARK    3  A    between atoms: C_2  and  S_14
REMARK    4  A    between atoms: S_14  and  P_15
REMARK    5  A    between atoms: S_14  and  O_21
REMARK    6  A    between atoms: P_15  and  O_17
REMARK    7  A    between atoms: P_15  and  O_18
REMARK    8  A    between atoms: O_18  and  C_19
REMARK    9  A    between atoms: O_21  and  C_22
REMARK                            x       y       z     vdW  Elec       q    Type
REMARK                         _______ _______ _______ _____ _____    ______ ____
ROOT
ATOM      1  S   UNL     1      50.140 159.058  29.827  0.00  0.00    +0.062 S 
ATOM      2  H   UNL     1      49.997 159.548  28.567  0.00  0.00    +0.141 HD
ENDROOT
BRANCH   1   3
ATOM      3  C   UNL     1      49.623 157.418  29.987  0.00  0.00    +0.338 C 
ATOM      4  O   UNL     1      48.462 157.205  30.412  0.00  0.00    -0.257 OA
BRANCH   3   5
ATOM      5  N   UNL     1      50.460 156.344  29.658  0.00  0.00    -0.054 NA
BRANCH   5   6
ATOM      6  O   UNL     1      50.027 155.082  29.789  0.00  0.00    -0.272 OA
ATOM      7  H   UNL     1      50.729 154.470  29.519  0.00  0.00    +0.244 HD
ENDBRANCH   5   6
ENDBRANCH   3   5
ENDBRANCH   1   3
BRANCH   1   8
ATOM      8  P   UNL     1      49.159 159.959  31.153  0.00  0.00    +0.297 P 
ATOM      9  S   UNL     1      47.457 159.758  30.921  0.00  0.00    +0.018 S 
BRANCH   8  10
ATOM     10  O   UNL     1      49.556 159.346  32.697  0.00  0.00    -0.330 OA
ATOM     11  H   UNL     1      49.335 158.402  32.737  0.00  0.00    +0.219 HD
ENDBRANCH   8  10
BRANCH   8  12
ATOM     12  O   UNL     1      49.543 161.605  31.077  0.00  0.00    -0.433 OA
BRANCH  12  13
ATOM     13  C   UNL     1      49.084 162.489  32.027  0.00  0.00    +0.179 C 
ATOM     14  C   UNL     1      47.816 162.869  32.043  0.00  0.00    +0.044 C 
ENDBRANCH  12  13
ENDBRANCH   8  12
ENDBRANCH   1   8
BRANCH   1  15
ATOM     15  O   UNL     1      51.763 159.120  30.371  0.00  0.00    -0.421 OA
BRANCH  15  16
ATOM     16  C   UNL     1      52.462 160.307  30.284  0.00  0.00    +0.231 C 
ATOM     17  S   UNL     1      52.547 161.253  31.600  0.00  0.00    -0.006 S 
ENDBRANCH  15  16
ENDBRANCH   1  15
TORSDOF 9
REMARK  Name = =
REMARK  9 active torsions:
REMARK  status: ('A' for Active; 'I' for Inactive)
REMARK    1  A    between atoms: N_1  and  C_2
REMARK    2  A    between atoms: N_1  and  O_13
REMARK    3  A    between atoms: C_2  and  S_14
REMARK    4  A    between atoms: S_14  and  P_15
REMARK    5  A    between atoms: S_14  and  O_21
REMARK    6  A    between atoms: P_15  and  O_17
REMARK    7  A    between atoms: P_15  and  O_18
REMARK    8  A    between atoms: O_18  and  C_19
REMARK    9  A    between atoms: O_21  and  C_22
REMARK                            x       y       z     vdW  Elec       q    Type
REMARK                         _______ _______ _______ _____ _____    ______ ____
ROOT
ATOM      1  I   UNL     1      52.375 156.705  28.964  0.00  0.00    -0.107 I 
ATOM      2  H   UNL     1      53.936 156.705  28.964  0.00  0.00    +0.107 HD
ENDROOT
TORSDOF 0
REMARK  Name = =
REMARK  9 active torsions:
REMARK  status: ('A' for Active; 'I' for Inactive)
REMARK    1  A    between atoms: N_1  and  C_2
REMARK    2  A    between atoms: N_1  and  O_13
REMARK    3  A    between atoms: C_2  and  S_14
REMARK    4  A    between atoms: S_14  and  P_15
REMARK    5  A    between atoms: S_14  and  O_21
REMARK    6  A    between atoms: P_15  and  O_17
REMARK    7  A    between atoms: P_15  and  O_18
REMARK    8  A    between atoms: O_18  and  C_19
REMARK    9  A    between atoms: O_21  and  C_22
REMARK                            x       y       z     vdW  Elec       q    Type
REMARK                         _______ _______ _______ _____ _____    ______ ____
ROOT
ATOM      1  C   UNL     1      52.571 155.523  27.208  0.00  0.00    +0.120 C 
ATOM      2  C   UNL     1      51.486 154.466  27.223  0.00  0.00    +0.035 C 
ATOM      3  C   UNL     1      52.056 153.406  26.326  0.00  0.00    +0.064 C 
ATOM      4  C   UNL     1      53.477 153.883  26.125  0.00  0.00    +0.235 C 
ATOM      5  O   UNL     1      53.723 154.769  27.200  0.00  0.00    -0.333 OA
ATOM      6  O   UNL     1      53.555 154.538  24.906  0.00  0.00    -0.330 OA
ATOM      7  C   UNL     1      53.673 155.898  25.063  0.00  0.00    +0.147 C 
ATOM      8  C   UNL     1      52.550 156.378  25.979  0.00  0.00    +0.062 C 
ENDROOT
TORSDOF 0
