REMARK  Name = =
REMARK  3 active torsions:
REMARK  status: ('A' for Active; 'I' for Inactive)
REMARK    1  A    between atoms: C_1  and  N_2
REMARK    2  A    between atoms: C_1  and  C_7
REMARK    3  A    between atoms: C_7  and  O_9
REMARK                            x       y       z     vdW  Elec       q    Type
REMARK                         _______ _______ _______ _____ _____    ______ ____
ROOT
ATOM      1  C   UNL     1      -4.237  -4.312  30.905  0.00  0.00    +0.207 C 
ENDROOT
BRANCH   1   2
ATOM      2  N   UNL     1      -4.995  -3.632  31.941  0.00  0.00    -0.257 N 
ATOM      3  C   UNL     1      -6.127  -2.893  31.837  0.00  0.00    +0.088 C 
ATOM      4  C   UNL     1      -6.500  -2.422  33.070  0.00  0.00    +0.117 C 
ATOM      5  N   UNL     1      -5.563  -2.899  33.940  0.00  0.00    -0.225 NA
ATOM      6  C   UNL     1      -4.668  -3.620  33.249  0.00  0.00    +0.168 C 
ENDBRANCH   1   2
BRANCH   1   7
ATOM      7  C   UNL     1      -3.056  -3.472  30.561  0.00  0.00    +0.335 C 
ATOM      8  O   UNL     1      -1.930  -4.056  30.398  0.00  0.00    -0.248 OA
BRANCH   7   9
ATOM      9  O   UNL     1      -3.147  -2.117  30.427  0.00  0.00    -0.479 OA
ATOM     10  H   UNL     1      -3.972  -1.689  30.546  0.00  0.00    +0.295 HD
ENDBRANCH   7   9
ENDBRANCH   1   7
TORSDOF 3
