REMARK  Name = =
REMARK  2 active torsions:
REMARK  status: ('A' for Active; 'I' for Inactive)
REMARK    1  A    between atoms: C_9  and  C_11
REMARK    2  A    between atoms: C_11  and  N_12
REMARK                            x       y       z     vdW  Elec       q    Type
REMARK                         _______ _______ _______ _____ _____    ______ ____
ROOT
ATOM      1  N   UNL     1      -9.736   1.621  18.556  0.00  0.00    -0.257 N 
ATOM      2  C   UNL     1      -9.472   0.447  19.145  0.00  0.00    +0.088 C 
ATOM      3  C   UNL     1      -8.890   0.681  20.362  0.00  0.00    +0.117 C 
ATOM      4  N   UNL     1      -8.812   2.019  20.489  0.00  0.00    -0.225 NA
ATOM      5  C   UNL     1      -9.325   2.604  19.393  0.00  0.00    +0.168 C 
ENDROOT
BRANCH   1   6
ATOM      6  C   UNL     1     -10.347   1.822  17.267  0.00  0.00    +0.212 C 
BRANCH   6   8
ATOM      7  O   UNL     1     -12.747   1.740  17.874  0.00  0.00    -0.244 OA
ATOM      8  C   UNL     1     -11.693   1.183  17.195  0.00  0.00    +0.385 C 
ATOM      9  O   UNL     1     -11.902   0.138  16.525  0.00  0.00    -0.244 OA
ENDBRANCH   6   8
ENDBRANCH   1   6
TORSDOF 2
REMARK  Name = =
REMARK  2 active torsions:
REMARK  status: ('A' for Active; 'I' for Inactive)
REMARK    1  A    between atoms: C_9  and  C_11
REMARK    2  A    between atoms: C_11  and  N_12
REMARK                            x       y       z     vdW  Elec       q    Type
REMARK                         _______ _______ _______ _____ _____    ______ ____
ROOT
ATOM      1  I   UNL     1     -13.572   3.547  17.469  0.00  0.00    -0.107 I 
ATOM      2  H   UNL     1     -12.011   3.547  17.469  0.00  0.00    +0.107 HD
ENDROOT
TORSDOF 0
REMARK  Name = =
REMARK  2 active torsions:
REMARK  status: ('A' for Active; 'I' for Inactive)
REMARK    1  A    between atoms: C_9  and  C_11
REMARK    2  A    between atoms: C_11  and  N_12
REMARK                            x       y       z     vdW  Elec       q    Type
REMARK                         _______ _______ _______ _____ _____    ______ ____
ROOT
ATOM      1  C   UNL     1     -12.287   5.035  18.159  0.00  0.00    +0.120 C 
ATOM      2  C   UNL     1     -12.510   5.792  19.273  0.00  0.00    +0.120 C 
ATOM      3  N   UNL     1     -11.607   6.728  19.624  0.00  0.00    -0.239 NA
ATOM      4  C   UNL     1     -10.479   6.962  18.928  0.00  0.00    +0.120 C 
ATOM      5  C   UNL     1     -10.268   6.190  17.808  0.00  0.00    +0.120 C 
ATOM      6  N   UNL     1     -11.146   5.264  17.445  0.00  0.00    -0.239 NA
ENDROOT
TORSDOF 0
