REMARK  Name = =
REMARK  5 active torsions:
REMARK  status: ('A' for Active; 'I' for Inactive)
REMARK    1  A    between atoms: N_1  and  C_6
REMARK    2  A    between atoms: C_2  and  O_17
REMARK    3  A    between atoms: C_6  and  C_7
REMARK    4  A    between atoms: O_17  and  C_18
REMARK    5  A    between atoms: C_18  and  C_19
REMARK                            x       y       z     vdW  Elec       q    Type
REMARK                         _______ _______ _______ _____ _____    ______ ____
ROOT
ATOM      1  N   UNL     1      -8.560   0.179  20.641  0.00  0.00    -0.229 N 
ATOM      2  C   UNL     1      -8.764  -1.144  20.704  0.00  0.00    +0.219 C 
ATOM      3  C   UNL     1      -8.177  -1.645  21.855  0.00  0.00    +0.154 C 
ATOM      4  N   UNL     1      -7.614  -0.601  22.484  0.00  0.00    -0.221 NA
ATOM      5  C   UNL     1      -7.858   0.516  21.723  0.00  0.00    +0.170 C 
ENDROOT
BRANCH   1   6
ATOM      6  C   UNL     1      -9.048   1.054  19.599  0.00  0.00    +0.214 C 
BRANCH   6   7
ATOM      7  C   UNL     1     -10.324   1.699  20.094  0.00  0.00    +0.385 C 
ATOM      8  O   UNL     1     -11.412   1.135  20.132  0.00  0.00    -0.244 OA
ATOM      9  O   UNL     1     -10.170   3.006  20.517  0.00  0.00    -0.244 OA
ENDBRANCH   6   7
ENDBRANCH   1   6
BRANCH   2  10
ATOM     10  O   UNL     1      -9.469  -1.840  19.733  0.00  0.00    -0.455 OA
BRANCH  10  11
ATOM     11  C   UNL     1      -8.888  -2.683  18.784  0.00  0.00    +0.249 C 
BRANCH  11  12
ATOM     12  C   UNL     1      -8.553  -3.995  19.385  0.00  0.00    +0.088 C 
ATOM     13  C   UNL     1      -7.386  -4.685  19.501  0.00  0.00    +0.038 C 
ATOM     14  C   UNL     1      -7.651  -5.860  20.168  0.00  0.00    +0.119 C 
ATOM     15  N   UNL     1      -8.983  -5.849  20.440  0.00  0.00    -0.180 NA
ATOM     16  N   UNL     1      -9.527  -4.746  19.977  0.00  0.00    -0.236 N 
ATOM     17  H   UNL     1     -10.478  -4.502  20.046  0.00  0.00    +0.174 HD
ENDBRANCH  11  12
ENDBRANCH  10  11
ENDBRANCH   2  10
TORSDOF 5
REMARK  Name = =
REMARK  5 active torsions:
REMARK  status: ('A' for Active; 'I' for Inactive)
REMARK    1  A    between atoms: N_1  and  C_6
REMARK    2  A    between atoms: C_2  and  O_17
REMARK    3  A    between atoms: C_6  and  C_7
REMARK    4  A    between atoms: O_17  and  C_18
REMARK    5  A    between atoms: C_18  and  C_19
REMARK                            x       y       z     vdW  Elec       q    Type
REMARK                         _______ _______ _______ _____ _____    ______ ____
ROOT
ATOM      1  I   UNL     1     -11.621   4.422  20.461  0.00  0.00    -0.107 I 
ATOM      2  H   UNL     1     -10.060   4.422  20.461  0.00  0.00    +0.107 HD
ENDROOT
TORSDOF 0
REMARK  Name = =
REMARK  5 active torsions:
REMARK  status: ('A' for Active; 'I' for Inactive)
REMARK    1  A    between atoms: N_1  and  C_6
REMARK    2  A    between atoms: C_2  and  O_17
REMARK    3  A    between atoms: C_6  and  C_7
REMARK    4  A    between atoms: O_17  and  C_18
REMARK    5  A    between atoms: C_18  and  C_19
REMARK                            x       y       z     vdW  Elec       q    Type
REMARK                         _______ _______ _______ _____ _____    ______ ____
ROOT
ATOM      1  C   UNL     1     -10.544   6.201  20.135  0.00  0.00    +0.120 C 
ATOM      2  C   UNL     1     -10.868   7.338  20.857  0.00  0.00    +0.120 C 
ATOM      3  N   UNL     1     -10.200   8.489  20.679  0.00  0.00    -0.239 NA
ATOM      4  C   UNL     1      -9.192   8.604  19.804  0.00  0.00    +0.120 C 
ATOM      5  C   UNL     1      -8.875   7.453  19.081  0.00  0.00    +0.120 C 
ATOM      6  N   UNL     1      -9.537   6.294  19.250  0.00  0.00    -0.239 NA
ENDROOT
TORSDOF 0
