REMARK  Name = =
REMARK  0 active torsions:
REMARK  status: ('A' for Active; 'I' for Inactive)
REMARK                            x       y       z     vdW  Elec       q    Type
REMARK                         _______ _______ _______ _____ _____    ______ ____
ROOT
ATOM      1  C   UNL     1      -3.931  -4.632  30.681  0.00  0.00    +0.025 C 
ATOM      2  C   UNL     1      -3.644  -3.597  29.632  0.00  0.00    +0.005 C 
ATOM      3  C   UNL     1      -2.182  -3.490  29.394  0.00  0.00    +0.004 C 
ATOM      4  C   UNL     1      -1.732  -4.041  28.068  0.00  0.00    +0.000 C 
ATOM      5  C   UNL     1      -0.531  -4.890  28.121  0.00  0.00    +0.005 C 
ATOM      6  C   UNL     1       0.731  -4.173  27.976  0.00  0.00    +0.057 C 
ATOM      7  C   UNL     1       1.862  -4.867  27.331  0.00  0.00    +0.120 C 
ATOM      8  O   UNL     1       1.532  -4.303  26.123  0.00  0.00    -0.356 OA
ATOM      9  C   UNL     1       0.967  -3.236  26.847  0.00  0.00    +0.142 C 
ATOM     10  C   UNL     1       1.879  -6.354  27.404  0.00  0.00    +0.030 C 
ATOM     11  C   UNL     1       0.532  -6.992  27.235  0.00  0.00    +0.003 C 
ATOM     12  C   UNL     1      -0.568  -6.309  27.975  0.00  0.00    +0.001 C 
ATOM     13  C   UNL     1      -1.212  -7.195  28.935  0.00  0.00    +0.004 C 
ATOM     14  C   UNL     1      -0.934  -6.711  30.372  0.00  0.00    +0.022 C 
ATOM     15  C   UNL     1      -1.660  -5.474  30.528  0.00  0.00    -0.048 C 
ATOM     16  C   UNL     1      -2.937  -5.777  30.668  0.00  0.00    -0.035 C 
ATOM     17  C   UNL     1      -1.346  -4.028  30.541  0.00  0.00    +0.022 C 
ENDROOT
TORSDOF 0
