REMARK  Name = =
REMARK  4 active torsions:
REMARK  status: ('A' for Active; 'I' for Inactive)
REMARK    1  A    between atoms: C_1  and  C_18
REMARK    2  A    between atoms: C_4  and  O_28
REMARK    3  A    between atoms: O_28  and  C_29
REMARK    4  A    between atoms: C_29  and  O_31
REMARK                            x       y       z     vdW  Elec       q    Type
REMARK                         _______ _______ _______ _____ _____    ______ ____
ROOT
ATOM      1  C   UNL     1     -12.734  -6.982  22.036  0.00  0.00    +0.041 C 
ATOM      2  C   UNL     1     -13.533  -8.164  22.641  0.00  0.00    +0.009 C 
ATOM      3  C   UNL     1     -14.452  -8.633  21.534  0.00  0.00    +0.041 C 
ATOM      4  C   UNL     1     -15.567  -9.425  22.173  0.00  0.00    +0.172 C 
ATOM      5  C   UNL     1     -16.513  -8.611  22.978  0.00  0.00    +0.045 C 
ATOM      6  C   UNL     1     -17.249  -9.322  24.030  0.00  0.00    +0.060 C 
ATOM      7  C   UNL     1     -18.624  -8.801  24.323  0.00  0.00    +0.120 C 
ATOM      8  O   UNL     1     -18.964 -10.116  24.704  0.00  0.00    -0.356 OA
ATOM      9  C   UNL     1     -18.052 -10.534  23.703  0.00  0.00    +0.142 C 
ATOM     10  C   UNL     1     -19.410  -8.399  23.136  0.00  0.00    +0.030 C 
ATOM     11  C   UNL     1     -18.646  -7.831  21.998  0.00  0.00    +0.003 C 
ATOM     12  C   UNL     1     -17.213  -7.505  22.304  0.00  0.00    +0.004 C 
ATOM     13  C   UNL     1     -17.048  -6.142  22.930  0.00  0.00    +0.000 C 
ATOM     14  C   UNL     1     -15.930  -5.343  22.234  0.00  0.00    +0.000 C 
ATOM     15  C   UNL     1     -14.950  -6.262  21.622  0.00  0.00    +0.000 C 
ATOM     16  C   UNL     1     -13.744  -5.887  22.022  0.00  0.00    +0.006 C 
ATOM     17  C   UNL     1     -14.959  -7.473  20.721  0.00  0.00    +0.004 C 
ENDROOT
BRANCH   1  18
ATOM     18  C   UNL     1     -11.586  -6.741  22.900  0.00  0.00    +0.063 C 
ATOM     19  N   UNL     1     -11.620  -5.799  23.856  0.00  0.00    -0.228 NA
ATOM     20  C   UNL     1     -10.587  -5.549  24.657  0.00  0.00    +0.199 C 
ATOM     21  N   UNL     1      -9.431  -6.248  24.541  0.00  0.00    -0.224 NA
ATOM     22  C   UNL     1      -9.343  -7.195  23.607  0.00  0.00    +0.087 C 
ATOM     23  C   UNL     1     -10.397  -7.456  22.784  0.00  0.00    +0.050 C 
ATOM     24  C   UNL     1     -10.290  -8.437  21.841  0.00  0.00    +0.102 C 
ATOM     25  N   UNL     1      -9.146  -9.162  21.710  0.00  0.00    -0.242 NA
ATOM     26  C   UNL     1      -8.088  -8.932  22.504  0.00  0.00    +0.100 C 
ATOM     27  C   UNL     1      -8.181  -7.943  23.461  0.00  0.00    +0.040 C 
ENDBRANCH   1  18
BRANCH   4  28
ATOM     28  O   UNL     1     -16.133 -10.242  21.194  0.00  0.00    -0.422 OA
BRANCH  28  29
ATOM     29  C   UNL     1     -15.715 -11.553  21.057  0.00  0.00    +0.508 C 
ATOM     30  O   UNL     1     -15.115 -12.154  22.013  0.00  0.00    -0.203 OA
BRANCH  29  31
ATOM     31  O   UNL     1     -15.897 -12.319  19.912  0.00  0.00    -0.450 OA
ATOM     32  H   UNL     1     -15.588 -13.203  19.886  0.00  0.00    +0.299 HD
ENDBRANCH  29  31
ENDBRANCH  28  29
ENDBRANCH   4  28
TORSDOF 4
