REMARK  Name = =
REMARK  5 active torsions:
REMARK  status: ('A' for Active; 'I' for Inactive)
REMARK    1  A    between atoms: C_1  and  C_18
REMARK    2  A    between atoms: C_4  and  O_35
REMARK    3  A    between atoms: C_14  and  N_28
REMARK    4  A    between atoms: O_35  and  C_36
REMARK    5  A    between atoms: C_36  and  O_38
REMARK                            x       y       z     vdW  Elec       q    Type
REMARK                         _______ _______ _______ _____ _____    ______ ____
ROOT
ATOM      1  C   UNL     1     -12.607  -6.116  20.142  0.00  0.00    +0.041 C 
ATOM      2  C   UNL     1     -12.540  -5.319  21.376  0.00  0.00    +0.009 C 
ATOM      3  C   UNL     1     -11.866  -5.718  22.611  0.00  0.00    +0.041 C 
ATOM      4  C   UNL     1     -11.240  -4.464  23.269  0.00  0.00    +0.172 C 
ATOM      5  C   UNL     1     -10.706  -3.560  22.178  0.00  0.00    +0.045 C 
ATOM      6  C   UNL     1     -10.668  -2.148  22.693  0.00  0.00    +0.060 C 
ATOM      7  C   UNL     1      -9.845  -1.427  21.597  0.00  0.00    +0.120 C 
ATOM      8  O   UNL     1     -10.565  -0.305  21.938  0.00  0.00    -0.356 OA
ATOM      9  C   UNL     1     -11.661  -1.187  22.096  0.00  0.00    +0.142 C 
ATOM     10  C   UNL     1      -8.414  -1.560  22.040  0.00  0.00    +0.030 C 
ATOM     11  C   UNL     1      -8.293  -3.023  22.489  0.00  0.00    +0.003 C 
ATOM     12  C   UNL     1      -9.292  -3.884  21.830  0.00  0.00    +0.005 C 
ATOM     13  C   UNL     1      -9.030  -4.345  20.462  0.00  0.00    +0.020 C 
ATOM     14  C   UNL     1      -9.014  -5.869  20.476  0.00  0.00    +0.082 C 
ATOM     15  C   UNL     1     -10.282  -6.412  20.985  0.00  0.00    +0.019 C 
ATOM     16  C   UNL     1     -11.111  -6.617  20.022  0.00  0.00    +0.008 C 
ATOM     17  C   UNL     1     -10.753  -6.723  22.402  0.00  0.00    +0.005 C 
ENDROOT
BRANCH   1  18
ATOM     18  C   UNL     1     -13.398  -7.340  20.150  0.00  0.00    +0.063 C 
ATOM     19  N   UNL     1     -12.888  -8.519  20.484  0.00  0.00    -0.228 NA
ATOM     20  C   UNL     1     -13.502  -9.714  20.377  0.00  0.00    +0.199 C 
ATOM     21  N   UNL     1     -14.772  -9.715  19.883  0.00  0.00    -0.224 NA
ATOM     22  C   UNL     1     -15.350  -8.529  19.527  0.00  0.00    +0.087 C 
ATOM     23  C   UNL     1     -14.718  -7.317  19.634  0.00  0.00    +0.050 C 
ATOM     24  C   UNL     1     -15.371  -6.143  19.347  0.00  0.00    +0.102 C 
ATOM     25  N   UNL     1     -16.682  -6.192  18.953  0.00  0.00    -0.242 NA
ATOM     26  C   UNL     1     -17.330  -7.359  18.842  0.00  0.00    +0.100 C 
ATOM     27  C   UNL     1     -16.696  -8.547  19.119  0.00  0.00    +0.040 C 
ENDBRANCH   1  18
BRANCH  14  28
ATOM     28  N   UNL     1      -8.400  -6.506  19.371  0.00  0.00    -0.232 N 
ATOM     29  C   UNL     1      -8.156  -6.021  18.044  0.00  0.00    +0.232 C 
ATOM     30  O   UNL     1      -7.813  -4.873  17.724  0.00  0.00    -0.274 OA
ATOM     31  C   UNL     1      -8.418  -7.199  17.153  0.00  0.00    +0.095 C 
ATOM     32  C   UNL     1      -7.790  -8.318  17.959  0.00  0.00    +0.095 C 
ATOM     33  C   UNL     1      -7.867  -7.872  19.359  0.00  0.00    +0.232 C 
ATOM     34  O   UNL     1      -7.527  -8.558  20.344  0.00  0.00    -0.274 OA
ENDBRANCH  14  28
BRANCH   4  35
ATOM     35  O   UNL     1     -12.164  -3.842  24.127  0.00  0.00    -0.422 OA
BRANCH  35  36
ATOM     36  C   UNL     1     -12.097  -3.999  25.503  0.00  0.00    +0.508 C 
ATOM     37  O   UNL     1     -11.218  -4.720  25.974  0.00  0.00    -0.203 OA
BRANCH  36  38
ATOM     38  O   UNL     1     -13.011  -3.346  26.311  0.00  0.00    -0.450 OA
ATOM     39  H   UNL     1     -12.971  -3.448  27.242  0.00  0.00    +0.299 HD
ENDBRANCH  36  38
ENDBRANCH  35  36
ENDBRANCH   4  35
TORSDOF 5
