REMARK  Name = =
REMARK  5 active torsions:
REMARK  status: ('A' for Active; 'I' for Inactive)
REMARK    1  A    between atoms: C_1  and  C_18
REMARK    2  A    between atoms: C_4  and  O_42
REMARK    3  A    between atoms: C_14  and  N_35
REMARK    4  A    between atoms: O_42  and  C_43
REMARK    5  A    between atoms: C_43  and  O_45
REMARK                            x       y       z     vdW  Elec       q    Type
REMARK                         _______ _______ _______ _____ _____    ______ ____
ROOT
ATOM      1  C   UNL     1     -11.065  -4.928  21.702  0.00  0.00    +0.041 C 
ATOM      2  C   UNL     1     -11.141  -3.594  20.964  0.00  0.00    +0.009 C 
ATOM      3  C   UNL     1     -12.567  -3.174  20.780  0.00  0.00    +0.041 C 
ATOM      4  C   UNL     1     -12.817  -2.267  19.607  0.00  0.00    +0.172 C 
ATOM      5  C   UNL     1     -11.831  -2.268  18.531  0.00  0.00    +0.045 C 
ATOM      6  C   UNL     1     -10.788  -1.216  18.538  0.00  0.00    +0.060 C 
ATOM      7  C   UNL     1     -10.414  -0.738  17.154  0.00  0.00    +0.118 C 
ATOM      8  O   UNL     1     -11.017   0.483  17.311  0.00  0.00    -0.356 OA
ATOM      9  C   UNL     1     -11.239   0.206  18.641  0.00  0.00    +0.145 C 
ATOM     10  C   UNL     1     -11.162  -1.572  16.140  0.00  0.00    +0.030 C 
ATOM     11  C   UNL     1     -10.847  -3.021  16.465  0.00  0.00    +0.003 C 
ATOM     12  C   UNL     1     -11.512  -3.450  17.762  0.00  0.00    +0.005 C 
ATOM     13  C   UNL     1     -12.521  -4.473  17.466  0.00  0.00    +0.020 C 
ATOM     14  C   UNL     1     -12.472  -5.694  18.397  0.00  0.00    +0.082 C 
ATOM     15  C   UNL     1     -12.502  -5.294  19.793  0.00  0.00    +0.019 C 
ATOM     16  C   UNL     1     -11.503  -5.799  20.421  0.00  0.00    +0.008 C 
ATOM     17  C   UNL     1     -13.463  -4.396  20.558  0.00  0.00    +0.005 C 
ENDROOT
BRANCH   1  18
ATOM     18  C   UNL     1      -9.721  -5.454  21.840  0.00  0.00    +0.064 C 
ATOM     19  N   UNL     1      -8.757  -5.013  20.952  0.00  0.00    -0.228 NA
ATOM     20  C   UNL     1      -7.546  -5.552  20.851  0.00  0.00    +0.199 C 
ATOM     21  N   UNL     1      -7.184  -6.577  21.619  0.00  0.00    -0.224 NA
ATOM     22  C   UNL     1      -8.057  -7.062  22.511  0.00  0.00    +0.088 C 
ATOM     23  C   UNL     1      -9.356  -6.497  22.639  0.00  0.00    +0.064 C 
ATOM     24  C   UNL     1     -10.198  -6.975  23.596  0.00  0.00    +0.146 C 
ATOM     25  N   UNL     1     -11.433  -6.424  23.936  0.00  0.00    -0.185 N 
ATOM     26  C   UNL     1     -12.688  -7.026  23.855  0.00  0.00    +0.260 C 
ATOM     27  O   UNL     1     -12.983  -8.227  23.526  0.00  0.00    -0.269 OA
ATOM     28  C   UNL     1     -13.792  -6.084  24.215  0.00  0.00    +0.063 C 
ATOM     29  C   UNL     1     -13.055  -4.877  24.719  0.00  0.00    +0.063 C 
ATOM     30  C   UNL     1     -11.605  -5.163  24.537  0.00  0.00    +0.260 C 
ATOM     31  O   UNL     1     -10.684  -4.380  24.881  0.00  0.00    -0.269 OA
ATOM     32  N   UNL     1      -9.745  -8.010  24.395  0.00  0.00    -0.228 NA
ATOM     33  C   UNL     1      -8.541  -8.548  24.278  0.00  0.00    +0.102 C 
ATOM     34  C   UNL     1      -7.665  -8.088  23.335  0.00  0.00    +0.040 C 
ENDBRANCH   1  18
BRANCH  14  35
ATOM     35  N   UNL     1     -11.557  -6.671  17.969  0.00  0.00    -0.232 N 
ATOM     36  C   UNL     1     -10.135  -6.681  17.906  0.00  0.00    +0.232 C 
ATOM     37  O   UNL     1      -9.408  -5.688  17.794  0.00  0.00    -0.274 OA
ATOM     38  C   UNL     1      -9.652  -8.084  17.994  0.00  0.00    +0.095 C 
ATOM     39  C   UNL     1     -10.717  -8.801  17.169  0.00  0.00    +0.095 C 
ATOM     40  C   UNL     1     -11.919  -7.971  17.448  0.00  0.00    +0.232 C 
ATOM     41  O   UNL     1     -13.104  -8.408  17.230  0.00  0.00    -0.274 OA
ENDBRANCH  14  35
BRANCH   4  42
ATOM     42  O   UNL     1     -14.088  -2.522  19.058  0.00  0.00    -0.422 OA
BRANCH  42  43
ATOM     43  C   UNL     1     -15.145  -1.683  18.957  0.00  0.00    +0.508 C 
ATOM     44  O   UNL     1     -15.049  -0.519  19.405  0.00  0.00    -0.203 OA
BRANCH  43  45
ATOM     45  O   UNL     1     -16.361  -2.041  18.373  0.00  0.00    -0.450 OA
ATOM     46  H   UNL     1     -17.061  -1.419  18.329  0.00  0.00    +0.299 HD
ENDBRANCH  43  45
ENDBRANCH  42  43
ENDBRANCH   4  42
TORSDOF 5
