MODEL 1
REMARK VINA RESULT:    -8.762      0.000      0.000
REMARK INTER + INTRA:         -12.125
REMARK INTER:                 -11.579
REMARK INTRA:                  -0.545
REMARK UNBOUND:                -0.545
REMARK  Name = =
REMARK  7 active torsions:
REMARK  status: ('A' for Active; 'I' for Inactive)
REMARK    1  A    between atoms: C_1  and  C_4
REMARK    2  A    between atoms: N_3  and  N_13
REMARK    3  A    between atoms: C_5  and  O_12
REMARK    4  A    between atoms: C_7  and  N_11
REMARK    5  A    between atoms: N_16  and  N_17
REMARK    6  A    between atoms: N_17  and  C_18
REMARK    7  A    between atoms: C_18  and  N_20
REMARK                            x       y       z     vdW  Elec       q    Type
REMARK                         _______ _______ _______ _____ _____    ______ ____
ROOT
ATOM      1  C   UNL     1      52.337 156.794  28.876  0.00  0.00    +0.264 C 
ATOM      2  O   UNL     1      53.162 157.215  28.027  0.00  0.00    -0.269 OA
ATOM      3  N   UNL     1      52.288 155.390  29.152  0.00  0.00    -0.229 N 
ATOM      4  H   UNL     1      51.660 155.012  29.809  0.00  0.00    +0.173 HD
ENDROOT
BRANCH   1   5
ATOM      5  C   UNL     1      51.456 157.711  29.559  0.00  0.00    +0.089 C 
ATOM      6  C   UNL     1      50.143 157.352  29.887  0.00  0.00    +0.139 C 
ATOM      7  C   UNL     1      49.312 158.264  30.558  0.00  0.00    +0.052 C 
ATOM      8  C   UNL     1      49.738 159.516  30.913  0.00  0.00    +0.055 C 
ATOM      9  C   UNL     1      51.026 159.858  30.586  0.00  0.00    +0.071 C 
ATOM     10  C   UNL     1      51.867 158.985  29.928  0.00  0.00    +0.020 C 
ATOM     11 CL   UNL     1      51.575 161.470  31.040  0.00  0.00    -0.081 Cl
BRANCH   8  12
ATOM     12  N   UNL     1      48.851 160.418  31.594  0.00  0.00    -0.356 N 
ATOM     13  H   UNL     1      48.878 161.381  31.391  0.00  0.00    +0.142 HD
ATOM     14  H   UNL     1      48.218 160.074  32.265  0.00  0.00    +0.142 HD
ENDBRANCH   8  12
BRANCH   6  15
ATOM     15  O   UNL     1      49.609 156.146  29.590  0.00  0.00    -0.505 OA
ATOM     16  H   UNL     1      48.695 156.073  29.400  0.00  0.00    +0.292 HD
ENDBRANCH   6  15
ENDBRANCH   1   5
BRANCH   3  17
ATOM     17  N   UNL     1      53.194 154.575  28.428  0.00  0.00    -0.217 N 
ATOM     18  C   UNL     1      52.718 153.504  27.627  0.00  0.00    +0.332 C 
ATOM     19  O   UNL     1      51.477 153.307  27.581  0.00  0.00    -0.250 OA
ATOM     20  N   UNL     1      53.621 152.669  26.893  0.00  0.00    -0.218 N 
ATOM     21  H   UNL     1      54.161 154.753  28.480  0.00  0.00    +0.174 HD
ATOM     22  H   UNL     1      54.588 152.848  26.949  0.00  0.00    +0.174 HD
BRANCH  20  23
ATOM     23  N   UNL     1      53.176 151.612  26.101  0.00  0.00    -0.245 N 
ATOM     24  H   UNL     1      52.361 151.121  26.355  0.00  0.00    +0.172 HD
BRANCH  23  25
ATOM     25  C   UNL     1      53.899 151.233  24.915  0.00  0.00    +0.144 C 
ATOM     26  S   UNL     1      54.201 149.643  24.673  0.00  0.00    -0.018 S 
BRANCH  25  27
ATOM     27  N   UNL     1      54.304 152.251  24.020  0.00  0.00    -0.340 N 
ATOM     28  H   UNL     1      54.905 152.967  24.328  0.00  0.00    +0.144 HD
ATOM     29  H   UNL     1      53.986 152.244  23.088  0.00  0.00    +0.144 HD
ENDBRANCH  25  27
ENDBRANCH  23  25
ENDBRANCH  20  23
ENDBRANCH   3  17
TORSDOF 7
ENDMDL
