REMARK  Name = =
REMARK  3 active torsions:
REMARK  status: ('A' for Active; 'I' for Inactive)
REMARK    1  A    between atoms: N_1  and  N_2
REMARK    2  A    between atoms: N_1  and  N_15
REMARK    3  A    between atoms: N_14  and  C_16
REMARK                            x       y       z     vdW  Elec       q    Type
REMARK                         _______ _______ _______ _____ _____    ______ ____
ROOT
ATOM      1  N   UNL     1      51.443 157.958  30.036  0.00  0.00    -0.149 N 
ATOM      2  H   UNL     1      50.998 157.356  30.675  0.00  0.00    +0.198 HD
ENDROOT
BRANCH   1   3
ATOM      3  N   UNL     1      51.671 159.236  30.473  0.00  0.00    -0.157 N 
ATOM      4  C   UNL     1      52.877 159.801  30.296  0.00  0.00    +0.348 A 
ATOM      5  O   UNL     1      53.764 159.140  29.734  0.00  0.00    -0.245 OA
ATOM      6  N   UNL     1      53.167 161.050  30.701  0.00  0.00    -0.305 N 
ATOM      7  C   UNL     1      52.248 161.812  31.316  0.00  0.00    +0.065 A 
ATOM      8  C   UNL     1      50.993 161.275  31.519  0.00  0.00    +0.074 A 
ATOM      9  C   UNL     1      49.996 161.979  32.136  0.00  0.00    +0.006 C 
ATOM     10  C   UNL     1      50.250 163.278  32.573  0.00  0.00    +0.000 C 
ATOM     11  C   UNL     1      51.511 163.795  32.359  0.00  0.00    +0.001 C 
ATOM     12  C   UNL     1      52.512 163.104  31.746  0.00  0.00    +0.017 C 
ATOM     13  C   UNL     1      50.726 159.973  31.084  0.00  0.00    +0.283 A 
ATOM     14  O   UNL     1      49.586 159.494  31.273  0.00  0.00    -0.265 OA
ATOM     15  H   UNL     1      54.069 161.412  30.544  0.00  0.00    +0.170 HD
ENDBRANCH   1   3
BRANCH   1  17
ATOM     16  N   UNL     1      52.694 156.662  28.500  0.00  0.00    -0.110 NA
ATOM     17  N   UNL     1      51.760 157.413  28.814  0.00  0.00    -0.059 NA
BRANCH  16  18
ATOM     18  C   UNL     1      52.960 156.134  27.207  0.00  0.00    +0.207 C 
ATOM     19  N   UNL     1      53.319 156.947  26.197  0.00  0.00    -0.127 NA
ATOM     20  N   UNL     1      53.578 156.510  24.975  0.00  0.00    -0.145 NA
ATOM     21  C   UNL     1      53.501 155.216  24.655  0.00  0.00    +0.122 C 
ATOM     22  C   UNL     1      53.134 154.315  25.654  0.00  0.00    +0.027 C 
ATOM     23  C   UNL     1      52.864 154.790  26.934  0.00  0.00    +0.060 C 
ATOM     24  C   UNL     1      52.496 153.942  27.967  0.00  0.00    +0.102 C 
ATOM     25  N   UNL     1      52.405 152.627  27.690  0.00  0.00    -0.242 NA
ATOM     26  C   UNL     1      52.661 152.134  26.455  0.00  0.00    +0.099 C 
ATOM     27  C   UNL     1      53.028 152.973  25.424  0.00  0.00    +0.022 C 
ENDBRANCH  16  18
ENDBRANCH   1  17
TORSDOF 3
