REMARK  Name = =
REMARK  4 active torsions:
REMARK  status: ('A' for Active; 'I' for Inactive)
REMARK    1  A    between atoms: N_1  and  N_20
REMARK    2  A    between atoms: N_4  and  C_13
REMARK    3  A    between atoms: N_20  and  N_22
REMARK    4  A    between atoms: N_21  and  C_23
REMARK                            x       y       z     vdW  Elec       q    Type
REMARK                         _______ _______ _______ _____ _____    ______ ____
ROOT
ATOM      1  N   UNL     1      52.446 156.317  27.878  0.00  0.00    -0.157 N 
ATOM      2  C   UNL     1      52.987 155.631  26.841  0.00  0.00    +0.353 A 
ATOM      3  O   UNL     1      53.534 156.299  25.953  0.00  0.00    -0.244 OA
ATOM      4  N   UNL     1      52.954 154.298  26.744  0.00  0.00    -0.257 N 
ATOM      5  C   UNL     1      52.344 153.624  27.748  0.00  0.00    +0.070 A 
ATOM      6  C   UNL     1      51.773 154.271  28.834  0.00  0.00    +0.074 A 
ATOM      7  C   UNL     1      51.153 153.577  29.850  0.00  0.00    +0.006 C 
ATOM      8  C   UNL     1      51.073 152.208  29.827  0.00  0.00    +0.000 C 
ATOM      9  C   UNL     1      51.640 151.564  28.746  0.00  0.00    +0.001 C 
ATOM     10  C   UNL     1      52.260 152.264  27.732  0.00  0.00    +0.018 C 
ATOM     11  C   UNL     1      51.838 155.661  28.878  0.00  0.00    +0.283 A 
ATOM     12  O   UNL     1      51.332 156.292  29.846  0.00  0.00    -0.265 OA
ENDROOT
BRANCH   4  13
ATOM     13  C   UNL     1      53.516 153.627  25.616  0.00  0.00    +0.245 C 
ATOM     14  N   UNL     1      54.848 153.138  25.761  0.00  0.00    -0.265 N 
ATOM     15  C   UNL     1      55.720 153.832  24.881  0.00  0.00    +0.308 C 
ATOM     16  O   UNL     1      56.969 153.726  24.832  0.00  0.00    -0.252 OA
ATOM     17  N   UNL     1      54.966 154.702  24.021  0.00  0.00    -0.237 N 
ATOM     18  C   UNL     1      53.621 154.515  24.407  0.00  0.00    +0.270 C 
ATOM     19  O   UNL     1      52.620 155.012  23.831  0.00  0.00    -0.271 OA
ATOM     20  H   UNL     1      55.123 152.424  26.381  0.00  0.00    +0.153 HD
ATOM     21  H   UNL     1      55.311 155.298  23.317  0.00  0.00    +0.159 HD
ENDBRANCH   4  13
BRANCH   1  22
ATOM     22  N   UNL     1      52.475 157.701  27.917  0.00  0.00    -0.149 N 
ATOM     23  H   UNL     1      52.548 158.187  27.064  0.00  0.00    +0.198 HD
BRANCH  22  25
ATOM     24  N   UNL     1      51.700 159.509  29.129  0.00  0.00    -0.110 NA
ATOM     25  N   UNL     1      52.407 158.445  29.091  0.00  0.00    -0.059 NA
BRANCH  24  26
ATOM     26  C   UNL     1      51.562 160.344  30.276  0.00  0.00    +0.207 C 
ATOM     27  N   UNL     1      52.583 161.102  30.716  0.00  0.00    -0.127 NA
ATOM     28  N   UNL     1      52.393 161.856  31.777  0.00  0.00    -0.145 NA
ATOM     29  C   UNL     1      51.225 161.898  32.434  0.00  0.00    +0.122 C 
ATOM     30  C   UNL     1      50.163 161.139  32.015  0.00  0.00    +0.027 C 
ATOM     31  C   UNL     1      50.336 160.349  30.917  0.00  0.00    +0.060 C 
ATOM     32  C   UNL     1      49.269 159.592  30.503  0.00  0.00    +0.102 C 
ATOM     33  N   UNL     1      48.093 159.638  31.171  0.00  0.00    -0.242 NA
ATOM     34  C   UNL     1      47.904 160.415  32.260  0.00  0.00    +0.099 C 
ATOM     35  C   UNL     1      48.947 161.189  32.709  0.00  0.00    +0.022 C 
ENDBRANCH  24  26
ENDBRANCH  22  25
ENDBRANCH   1  22
TORSDOF 4
