REMARK  Name = =
REMARK  0 active torsions:
REMARK  status: ('A' for Active; 'I' for Inactive)
REMARK                            x       y       z     vdW  Elec       q    Type
REMARK                         _______ _______ _______ _____ _____    ______ ____
ROOT
ATOM      1  C   UNL     1      -4.706  -4.158  30.763  0.00  0.00    +0.037 C 
ATOM      2  C   UNL     1      -5.368  -3.163  31.452  0.00  0.00    +0.135 C 
ATOM      3  C   UNL     1      -4.886  -1.886  31.384  0.00  0.00    +0.016 C 
ATOM      4  C   UNL     1      -3.765  -1.615  30.641  0.00  0.00    -0.001 C 
ATOM      5  C   UNL     1      -3.145  -2.632  29.976  0.00  0.00    -0.000 C 
ATOM      6  C   UNL     1      -3.577  -3.944  30.001  0.00  0.00    +0.003 C 
ATOM      7  C   UNL     1      -5.790  -1.012  32.221  0.00  0.00    +0.077 C 
ATOM      8  C   UNL     1      -7.045  -1.851  32.182  0.00  0.00    +0.210 C 
ATOM      9  O   UNL     1      -6.523  -3.188  32.273  0.00  0.00    -0.475 OA
ENDROOT
TORSDOF 0
