REMARK  Name = =
REMARK  1 active torsions:
REMARK  status: ('A' for Active; 'I' for Inactive)
REMARK    1  A    between atoms: C_1  and  C_21
REMARK                            x       y       z     vdW  Elec       q    Type
REMARK                         _______ _______ _______ _____ _____    ______ ____
ROOT
ATOM      1  C   UNL     1      -8.094  -0.117  31.627  0.00  0.00    -0.014 C 
ATOM      2  C   UNL     1      -7.307   0.998  31.439  0.00  0.00    -0.004 C 
ATOM      3  C   UNL     1      -7.567   1.939  30.466  0.00  0.00    +0.001 C 
ATOM      4  C   UNL     1      -8.668   1.725  29.666  0.00  0.00    +0.014 C 
ATOM      5  C   UNL     1      -9.496   0.602  29.825  0.00  0.00    +0.045 C 
ATOM      6  C   UNL     1      -9.197  -0.308  30.807  0.00  0.00    +0.009 C 
ATOM      7  C   UNL     1     -10.016  -1.498  31.024  0.00  0.00    -0.001 C 
ATOM      8  C   UNL     1     -11.178  -1.602  30.120  0.00  0.00    -0.000 C 
ATOM      9  C   UNL     1     -11.463  -0.693  29.151  0.00  0.00    +0.115 C 
ATOM     10  N   UNL     1     -10.620   0.441  28.979  0.00  0.00    -0.327 N 
ATOM     11  C   UNL     1     -12.573  -0.871  28.343  0.00  0.00    -0.002 C 
ATOM     12  C   UNL     1     -13.415  -1.962  28.492  0.00  0.00    -0.003 C 
ATOM     13  C   UNL     1     -13.124  -2.883  29.476  0.00  0.00    -0.001 C 
ATOM     14  C   UNL     1     -12.016  -2.696  30.275  0.00  0.00    -0.002 C 
ATOM     15  H   UNL     1     -10.816   1.106  28.280  0.00  0.00    +0.147 HD
ENDROOT
BRANCH   1  22
ATOM     16  C   UNL     1      -4.835  -3.088  33.366  0.00  0.00    +0.037 C 
ATOM     17  C   UNL     1      -5.944  -2.237  33.374  0.00  0.00    +0.135 C 
ATOM     18  C   UNL     1      -6.760  -2.078  32.272  0.00  0.00    +0.019 C 
ATOM     19  C   UNL     1      -6.440  -2.802  31.131  0.00  0.00    -0.001 C 
ATOM     20  C   UNL     1      -5.357  -3.640  31.100  0.00  0.00    -0.000 C 
ATOM     21  C   UNL     1      -4.564  -3.781  32.206  0.00  0.00    +0.003 C 
ATOM     22  C   UNL     1      -7.808  -1.112  32.668  0.00  0.00    +0.091 C 
ATOM     23  C   UNL     1      -7.107  -0.352  33.801  0.00  0.00    +0.214 C 
ATOM     24  O   UNL     1      -6.412  -1.440  34.425  0.00  0.00    -0.475 OA
ENDBRANCH   1  22
TORSDOF 1
