REMARK  Name = =
REMARK  2 active torsions:
REMARK  status: ('A' for Active; 'I' for Inactive)
REMARK    1  A    between atoms: C_7  and  C_10
REMARK    2  A    between atoms: C_7  and  C_24
REMARK                            x       y       z     vdW  Elec       q    Type
REMARK                         _______ _______ _______ _____ _____    ______ ____
ROOT
ATOM      1  C   UNL     1     -11.349   0.390  29.605  0.00  0.00    +0.037 C 
ATOM      2  C   UNL     1     -12.444   0.915  28.958  0.00  0.00    +0.135 C 
ATOM      3  C   UNL     1     -12.530   0.926  27.555  0.00  0.00    +0.022 C 
ATOM      4  C   UNL     1     -11.454   0.388  26.857  0.00  0.00    -0.001 C 
ATOM      5  C   UNL     1     -10.379  -0.125  27.535  0.00  0.00    -0.000 C 
ATOM      6  C   UNL     1     -10.274  -0.152  28.899  0.00  0.00    +0.003 C 
ATOM      7  C   UNL     1     -13.826   1.518  27.266  0.00  0.00    +0.100 C 
ATOM      8  C   UNL     1     -13.847   2.521  28.449  0.00  0.00    +0.217 C 
ATOM      9  O   UNL     1     -13.625   1.523  29.481  0.00  0.00    -0.475 OA
ENDROOT
BRANCH   7  10
ATOM     10  C   UNL     1     -14.955   0.605  27.436  0.00  0.00    -0.010 C 
ATOM     11  C   UNL     1     -16.147   1.055  27.997  0.00  0.00    -0.003 C 
ATOM     12  C   UNL     1     -17.275   0.259  28.159  0.00  0.00    +0.001 C 
ATOM     13  C   UNL     1     -17.257  -1.041  27.761  0.00  0.00    +0.015 C 
ATOM     14  C   UNL     1     -16.097  -1.530  27.199  0.00  0.00    +0.048 C 
ATOM     15  C   UNL     1     -14.954  -0.740  27.033  0.00  0.00    +0.010 C 
ATOM     16  C   UNL     1     -13.708  -1.278  26.504  0.00  0.00    -0.002 C 
ATOM     17  C   UNL     1     -13.861  -2.640  25.897  0.00  0.00    -0.004 C 
ATOM     18  C   UNL     1     -14.958  -3.442  26.034  0.00  0.00    +0.045 C 
ATOM     19  N   UNL     1     -16.070  -2.872  26.692  0.00  0.00    -0.313 N 
ATOM     20  C   UNL     1     -15.001  -4.721  25.499  0.00  0.00    +0.014 C 
ATOM     21  C   UNL     1     -13.931  -5.247  24.797  0.00  0.00    -0.003 C 
ATOM     22  C   UNL     1     -12.818  -4.444  24.651  0.00  0.00    -0.021 C 
ATOM     23  C   UNL     1     -12.780  -3.181  25.183  0.00  0.00    +0.054 C 
ATOM     24  H   UNL     1     -16.874  -3.428  26.810  0.00  0.00    +0.152 HD
ENDBRANCH   7  10
BRANCH   7  25
ATOM     25  C   UNL     1     -13.915   2.401  26.104  0.00  0.00    -0.010 C 
ATOM     26  C   UNL     1     -13.467   3.686  26.108  0.00  0.00    +0.017 C 
ATOM     27  C   UNL     1     -13.576   4.511  25.012  0.00  0.00    +0.099 A 
ATOM     28  C   UNL     1     -14.166   4.034  23.834  0.00  0.00    +0.099 A 
ATOM     29  C   UNL     1     -14.629   2.722  23.812  0.00  0.00    +0.020 C 
ATOM     30  C   UNL     1     -14.500   1.915  24.949  0.00  0.00    -0.002 C 
ATOM     31  N   UNL     1     -14.250   4.867  22.800  0.00  0.00    -0.242 NA
ATOM     32  C   UNL     1     -13.779   6.145  22.873  0.00  0.00    +0.099 A 
ATOM     33  C   UNL     1     -13.878   6.993  21.782  0.00  0.00    +0.021 C 
ATOM     34  C   UNL     1     -13.407   8.291  21.833  0.00  0.00    +0.002 C 
ATOM     35  C   UNL     1     -12.821   8.763  23.006  0.00  0.00    +0.002 C 
ATOM     36  C   UNL     1     -12.739   7.892  24.074  0.00  0.00    +0.021 C 
ATOM     37  C   UNL     1     -13.200   6.601  24.039  0.00  0.00    +0.099 A 
ATOM     38  N   UNL     1     -13.105   5.764  25.109  0.00  0.00    -0.242 NA
ENDBRANCH   7  25
TORSDOF 2
