REMARK  Name = =
REMARK  4 active torsions:
REMARK  status: ('A' for Active; 'I' for Inactive)
REMARK    1  A    between atoms: C_1  and  N_25
REMARK    2  A    between atoms: C_3  and  C_18
REMARK    3  A    between atoms: C_6  and  C_8
REMARK    4  A    between atoms: N_25  and  O_28
REMARK                            x       y       z     vdW  Elec       q    Type
REMARK                         _______ _______ _______ _____ _____    ______ ____
ROOT
ATOM      1  C   UNL     1      -4.930  -3.207  31.975  0.00  0.00    +0.105 C 
ATOM      2  C   UNL     1      -4.476  -4.201  33.001  0.00  0.00    +0.030 C 
ATOM      3  C   UNL     1      -4.143  -5.493  32.242  0.00  0.00    +0.062 C 
ATOM      4  C   UNL     1      -3.488  -5.137  30.986  0.00  0.00    +0.154 C 
ATOM      5  O   UNL     1      -3.355  -5.968  30.069  0.00  0.00    -0.296 OA
ATOM      6  C   UNL     1      -2.971  -3.783  30.772  0.00  0.00    +0.082 C 
ATOM      7  C   UNL     1      -3.679  -2.744  31.264  0.00  0.00    +0.034 C 
ENDROOT
BRANCH   6   8
ATOM      8  C   UNL     1      -1.738  -3.515  30.050  0.00  0.00    -0.015 C 
ATOM      9  C   UNL     1      -0.827  -4.514  29.780  0.00  0.00    -0.002 C 
ATOM     10  C   UNL     1       0.348  -4.270  29.086  0.00  0.00    +0.019 C 
ATOM     11  C   UNL     1       0.668  -3.020  28.629  0.00  0.00    +0.081 C 
ATOM     12  C   UNL     1      -0.233  -2.016  28.894  0.00  0.00    +0.017 C 
ATOM     13  C   UNL     1      -1.411  -2.256  29.589  0.00  0.00    -0.002 C 
ATOM     14  C   UNL     1       0.067  -0.744  28.442  0.00  0.00    +0.003 C 
ATOM     15  C   UNL     1       1.238  -0.510  27.752  0.00  0.00    +0.021 C 
ATOM     16  C   UNL     1       2.122  -1.537  27.503  0.00  0.00    +0.099 C 
ATOM     17  N   UNL     1       1.809  -2.763  27.951  0.00  0.00    -0.244 NA
ENDBRANCH   6   8
BRANCH   3  18
ATOM     18  C   UNL     1      -3.424  -6.465  33.107  0.00  0.00    +0.037 C 
ATOM     19  C   UNL     1      -4.032  -7.821  32.983  0.00  0.00    +0.032 C 
ATOM     20  C   UNL     1      -2.945  -8.590  32.220  0.00  0.00    +0.115 C 
ATOM     21  O   UNL     1      -2.208  -7.565  31.578  0.00  0.00    -0.359 OA
ATOM     22  C   UNL     1      -1.984  -6.719  32.665  0.00  0.00    +0.116 C 
ATOM     23  C   UNL     1      -1.409  -7.661  33.734  0.00  0.00    +0.032 C 
ATOM     24  C   UNL     1      -1.934  -9.011  33.272  0.00  0.00    +0.032 C 
ENDBRANCH   3  18
BRANCH   1  25
ATOM     25  N   UNL     1      -5.573  -2.058  32.541  0.00  0.00    -0.166 N 
ATOM     26  C   UNL     1      -5.487  -0.789  31.924  0.00  0.00    +0.327 C 
ATOM     27  O   UNL     1      -4.840  -0.661  30.865  0.00  0.00    -0.263 OA
BRANCH  25  28
ATOM     28  O   UNL     1      -6.268  -2.221  33.688  0.00  0.00    -0.291 OA
ATOM     29  H   UNL     1      -6.220  -3.149  33.966  0.00  0.00    +0.242 HD
ENDBRANCH  25  28
ENDBRANCH   1  25
TORSDOF 4
