REMARK  Name = =
REMARK  7 active torsions:
REMARK  status: ('A' for Active; 'I' for Inactive)
REMARK    1  A    between atoms: S_1  and  N_4
REMARK    2  A    between atoms: S_1  and  S_12
REMARK    3  A    between atoms: N_4  and  S_9
REMARK    4  A    between atoms: N_7  and  O_8
REMARK    5  A    between atoms: S_9  and  O_11
REMARK    6  A    between atoms: S_12  and  N_15
REMARK    7  A    between atoms: N_18  and  C_19
REMARK                            x       y       z     vdW  Elec       q    Type
REMARK                         _______ _______ _______ _____ _____    ______ ____
ROOT
ATOM      1  S   UNL     1      -9.364 -10.718  17.718  0.00  0.00    +0.208 S 
ATOM      2  O   UNL     1      -8.372  -9.945  17.013  0.00  0.00    -0.129 OA
ATOM      3  O   UNL     1      -9.812 -11.751  16.769  0.00  0.00    -0.129 OA
ENDROOT
BRANCH   1   4
ATOM      4  N   UNL     1     -10.763  -9.782  17.851  0.00  0.00    -0.005 N 
ATOM      5  C   UNL     1     -10.607  -8.484  18.365  0.00  0.00    +0.365 C 
ATOM      6  O   UNL     1      -9.485  -8.048  18.735  0.00  0.00    -0.247 OA
ATOM      7  N   UNL     1     -11.735  -7.675  18.455  0.00  0.00    -0.179 N 
ATOM      8  H   UNL     1     -12.621  -8.000  18.173  0.00  0.00    +0.184 HD
BRANCH   7   9
ATOM      9  O   UNL     1     -11.570  -6.436  18.940  0.00  0.00    -0.294 OA
ATOM     10  H   UNL     1     -10.636  -6.297  19.162  0.00  0.00    +0.241 HD
ENDBRANCH   7   9
BRANCH   4  11
ATOM     11  S   UNL     1     -12.285 -10.450  17.322  0.00  0.00    +0.057 S 
ATOM     12  O   UNL     1     -13.425 -10.199  18.269  0.00  0.00    -0.059 OA
BRANCH  11  13
ATOM     13  O   UNL     1     -12.656  -9.970  15.731  0.00  0.00    -0.261 OA
ATOM     14  H   UNL     1     -11.897 -10.148  15.154  0.00  0.00    +0.244 HD
ENDBRANCH  11  13
ENDBRANCH   4  11
ENDBRANCH   1   4
BRANCH   1  15
ATOM     15  S   UNL     1      -8.807 -11.358  19.474  0.00  0.00    +0.189 S 
ATOM     16  O   UNL     1      -7.807 -10.482  20.107  0.00  0.00    -0.130 OA
ATOM     17  O   UNL     1      -9.896 -11.414  20.470  0.00  0.00    -0.130 OA
BRANCH  15  18
ATOM     18  N   UNL     1      -8.169 -12.871  19.462  0.00  0.00    -0.153 N 
ATOM     19  C   UNL     1      -7.012 -13.333  18.920  0.00  0.00    +0.322 C 
ATOM     20  O   UNL     1      -6.413 -12.341  18.287  0.00  0.00    -0.251 OA
ATOM     21  N   UNL     1      -6.211 -14.427  18.753  0.00  0.00    -0.260 N 
ATOM     22  H   UNL     1      -8.712 -13.552  19.921  0.00  0.00    +0.180 HD
ATOM     23  H   UNL     1      -5.603 -14.314  17.987  0.00  0.00    +0.153 HD
BRANCH  21  24
ATOM     24  C   UNL     1      -6.022 -15.672  19.382  0.00  0.00    +0.278 C 
ATOM     25  O   UNL     1      -6.931 -15.992  20.126  0.00  0.00    -0.196 OA
ENDBRANCH  21  24
ENDBRANCH  15  18
ENDBRANCH   1  15
TORSDOF 7
