REMARK  Name = =
REMARK  6 active torsions:
REMARK  status: ('A' for Active; 'I' for Inactive)
REMARK    1  A    between atoms: N_1  and  S_16
REMARK    2  A    between atoms: S_16  and  S_19
REMARK    3  A    between atoms: S_19  and  N_22
REMARK    4  A    between atoms: N_22  and  S_27
REMARK    5  A    between atoms: N_25  and  O_26
REMARK    6  A    between atoms: S_27  and  O_29
REMARK                            x       y       z     vdW  Elec       q    Type
REMARK                         _______ _______ _______ _____ _____    ______ ____
ROOT
ATOM      1  N   UNL     1     -10.980  -8.763  17.818  0.00  0.00    -0.152 N 
ATOM      2  C   UNL     1      -9.679  -8.676  18.671  0.00  0.00    +0.327 C 
ATOM      3  O   UNL     1      -9.343  -9.776  19.104  0.00  0.00    -0.251 OA
ATOM      4  N   UNL     1      -9.298  -7.343  18.719  0.00  0.00    -0.222 N 
ATOM      5  C   UNL     1      -7.891  -7.501  19.597  0.00  0.00    +0.321 C 
ATOM      6  N   UNL     1      -6.932  -6.694  20.060  0.00  0.00    -0.186 N 
ATOM      7  C   UNL     1      -6.224  -5.734  19.565  0.00  0.00    +0.166 C 
ATOM      8  N   UNL     1      -6.158  -4.866  18.467  0.00  0.00    -0.207 NA
ATOM      9  C   UNL     1      -5.207  -4.057  18.163  0.00  0.00    +0.201 C 
ATOM     10  N   UNL     1      -4.088  -3.923  18.965  0.00  0.00    -0.208 NA
ATOM     11  C   UNL     1      -4.035  -4.649  20.048  0.00  0.00    +0.148 C 
ATOM     12  C   UNL     1      -5.054  -5.549  20.373  0.00  0.00    +0.146 C 
ATOM     13  N   UNL     1      -5.109  -6.445  21.346  0.00  0.00    -0.221 NA
ATOM     14  C   UNL     1      -6.273  -7.133  21.112  0.00  0.00    +0.176 C 
ATOM     15  O   UNL     1      -7.797  -8.841  19.909  0.00  0.00    -0.251 OA
ATOM     16  N   UNL     1      -2.947  -4.600  20.952  0.00  0.00    -0.341 N 
ATOM     17  H   UNL     1     -11.351  -7.954  17.397  0.00  0.00    +0.180 HD
ATOM     18  H   UNL     1      -9.731  -6.542  18.345  0.00  0.00    +0.161 HD
ATOM     19  H   UNL     1      -2.195  -3.988  20.784  0.00  0.00    +0.144 HD
ATOM     20  H   UNL     1      -2.943  -5.178  21.749  0.00  0.00    +0.144 HD
ENDROOT
BRANCH   1  21
ATOM     21  S   UNL     1     -11.707 -10.173  17.632  0.00  0.00    +0.189 S 
ATOM     22  O   UNL     1     -10.781 -11.099  16.966  0.00  0.00    -0.130 OA
ATOM     23  O   UNL     1     -12.726  -9.779  16.585  0.00  0.00    -0.130 OA
BRANCH  21  24
ATOM     24  S   UNL     1     -12.556 -10.862  19.283  0.00  0.00    +0.208 S 
ATOM     25  O   UNL     1     -11.946 -12.135  19.722  0.00  0.00    -0.129 OA
ATOM     26  O   UNL     1     -12.416  -9.971  20.354  0.00  0.00    -0.129 OA
BRANCH  24  27
ATOM     27  N   UNL     1     -14.199 -11.110  19.122  0.00  0.00    -0.005 N 
ATOM     28  C   UNL     1     -15.108 -10.095  19.384  0.00  0.00    +0.365 C 
ATOM     29  O   UNL     1     -14.499  -8.799  19.293  0.00  0.00    -0.247 OA
ATOM     30  N   UNL     1     -16.420  -9.977  19.744  0.00  0.00    -0.179 N 
ATOM     31  H   UNL     1     -16.931 -10.805  19.894  0.00  0.00    +0.184 HD
BRANCH  30  32
ATOM     32  O   UNL     1     -17.071  -8.791  19.910  0.00  0.00    -0.294 OA
ATOM     33  H   UNL     1     -16.460  -8.059  19.733  0.00  0.00    +0.241 HD
ENDBRANCH  30  32
BRANCH  27  34
ATOM     34  S   UNL     1     -14.804 -12.565  18.448  0.00  0.00    +0.057 S 
ATOM     35  O   UNL     1     -16.271 -12.374  17.914  0.00  0.00    -0.059 OA
BRANCH  34  36
ATOM     36  O   UNL     1     -13.832 -12.834  16.982  0.00  0.00    -0.261 OA
ATOM     37  H   UNL     1     -14.124 -13.650  16.546  0.00  0.00    +0.244 HD
ENDBRANCH  34  36
ENDBRANCH  27  34
ENDBRANCH  24  27
ENDBRANCH  21  24
ENDBRANCH   1  21
TORSDOF 6
