REMARK  Name = =
REMARK  10 active torsions:
REMARK  status: ('A' for Active; 'I' for Inactive)
REMARK    1  A    between atoms: N_1  and  S_16
REMARK    2  A    between atoms: N_4  and  O_31
REMARK    3  A    between atoms: C_11  and  N_30
REMARK    4  A    between atoms: S_16  and  S_19
REMARK    5  A    between atoms: S_19  and  N_22
REMARK    6  A    between atoms: N_22  and  S_27
REMARK    7  A    between atoms: N_25  and  O_26
REMARK    8  A    between atoms: S_27  and  O_29
REMARK    9  A    between atoms: O_31  and  C_32
REMARK   10  A    between atoms: C_36  and  O_40
REMARK                            x       y       z     vdW  Elec       q    Type
REMARK                         _______ _______ _______ _____ _____    ______ ____
ROOT
ATOM      1  N   UNL     1     -10.228  -9.699  18.675  0.00  0.00    -0.150 N 
ATOM      2  C   UNL     1      -9.386  -9.342  19.754  0.00  0.00    +0.363 C 
ATOM      3  O   UNL     1      -9.773  -9.739  20.946  0.00  0.00    -0.247 OA
ATOM      4  N   UNL     1      -8.194  -8.611  19.685  0.00  0.00    -0.031 N 
ATOM      5  C   UNL     1      -7.626  -8.116  18.533  0.00  0.00    +0.357 C 
ATOM      6  N   UNL     1      -6.420  -7.399  18.370  0.00  0.00    -0.184 N 
ATOM      7  C   UNL     1      -5.515  -7.053  19.294  0.00  0.00    +0.166 C 
ATOM      8  N   UNL     1      -5.383  -7.215  20.622  0.00  0.00    -0.207 NA
ATOM      9  C   UNL     1      -4.356  -6.772  21.344  0.00  0.00    +0.201 C 
ATOM     10  N   UNL     1      -3.340  -6.099  20.731  0.00  0.00    -0.208 NA
ATOM     11  C   UNL     1      -3.370  -5.880  19.408  0.00  0.00    +0.148 C 
ATOM     12  C   UNL     1      -4.462  -6.361  18.698  0.00  0.00    +0.146 C 
ATOM     13  N   UNL     1      -4.742  -6.296  17.404  0.00  0.00    -0.221 NA
ATOM     14  C   UNL     1      -5.910  -6.911  17.195  0.00  0.00    +0.176 C 
ATOM     15  O   UNL     1      -8.259  -8.319  17.435  0.00  0.00    -0.248 OA
ATOM     16  H   UNL     1      -9.998  -9.433  17.756  0.00  0.00    +0.180 HD
ENDROOT
BRANCH   1  17
ATOM     17  S   UNL     1     -11.631 -10.586  18.980  0.00  0.00    +0.189 S 
ATOM     18  O   UNL     1     -11.207 -11.745  19.772  0.00  0.00    -0.130 OA
ATOM     19  O   UNL     1     -12.026 -11.176  17.700  0.00  0.00    -0.130 OA
BRANCH  17  20
ATOM     20  S   UNL     1     -13.038  -9.529  19.840  0.00  0.00    +0.208 S 
ATOM     21  O   UNL     1     -12.811  -9.301  21.273  0.00  0.00    -0.129 OA
ATOM     22  O   UNL     1     -13.176  -8.174  19.299  0.00  0.00    -0.129 OA
BRANCH  20  23
ATOM     23  N   UNL     1     -14.564 -10.206  19.711  0.00  0.00    -0.005 N 
ATOM     24  C   UNL     1     -15.701  -9.447  19.371  0.00  0.00    +0.365 C 
ATOM     25  O   UNL     1     -15.579  -8.204  19.167  0.00  0.00    -0.247 OA
ATOM     26  N   UNL     1     -16.969 -10.067  19.260  0.00  0.00    -0.179 N 
ATOM     27  H   UNL     1     -17.048 -11.035  19.423  0.00  0.00    +0.184 HD
BRANCH  26  28
ATOM     28  O   UNL     1     -18.082  -9.353  18.932  0.00  0.00    -0.294 OA
ATOM     29  H   UNL     1     -17.843  -8.422  18.804  0.00  0.00    +0.241 HD
ENDBRANCH  26  28
BRANCH  23  30
ATOM     30  S   UNL     1     -14.761 -11.916  20.008  0.00  0.00    +0.057 S 
ATOM     31  O   UNL     1     -15.670 -12.168  21.199  0.00  0.00    -0.059 OA
BRANCH  30  32
ATOM     32  O   UNL     1     -15.380 -12.731  18.654  0.00  0.00    -0.261 OA
ATOM     33  H   UNL     1     -14.803 -12.573  17.890  0.00  0.00    +0.244 HD
ENDBRANCH  30  32
ENDBRANCH  23  30
ENDBRANCH  20  23
ENDBRANCH  17  20
ENDBRANCH   1  17
BRANCH  11  34
ATOM     34  N   UNL     1      -2.353  -5.192  18.715  0.00  0.00    -0.341 N 
ATOM     35  H   UNL     1      -1.572  -4.845  19.204  0.00  0.00    +0.144 HD
ATOM     36  H   UNL     1      -2.424  -5.059  17.742  0.00  0.00    +0.144 HD
ENDBRANCH  11  34
BRANCH   4  37
ATOM     37  O   UNL     1      -7.577  -8.404  20.937  0.00  0.00    -0.368 OA
BRANCH  37  38
ATOM     38  C   UNL     1      -8.251  -7.657  21.896  0.00  0.00    +0.213 C 
ATOM     39  C   UNL     1      -8.538  -8.143  23.081  0.00  0.00    +0.088 C 
ATOM     40  C   UNL     1      -9.249  -7.354  24.095  0.00  0.00    +0.232 C 
ATOM     41  O   UNL     1      -9.523  -7.815  25.224  0.00  0.00    -0.283 OA
ATOM     42  C   UNL     1      -9.660  -5.981  23.794  0.00  0.00    +0.176 C 
ATOM     43  C   UNL     1      -9.376  -5.492  22.615  0.00  0.00    +0.085 C 
ATOM     44  C   UNL     1      -8.662  -6.288  21.601  0.00  0.00    +0.235 C 
ATOM     45  O   UNL     1      -8.435  -5.733  20.502  0.00  0.00    -0.283 OA
BRANCH  42  46
ATOM     46  O   UNL     1     -10.341  -5.248  24.787  0.00  0.00    -0.503 OA
ATOM     47  H   UNL     1     -10.522  -5.641  25.618  0.00  0.00    +0.292 HD
ENDBRANCH  42  46
ENDBRANCH  37  38
ENDBRANCH   4  37
TORSDOF 10
