REMARK  Name = =
REMARK  4 active torsions:
REMARK  status: ('A' for Active; 'I' for Inactive)
REMARK    1  A    between atoms: C_1  and  O_9
REMARK    2  A    between atoms: C_3  and  O_8
REMARK    3  A    between atoms: C_4  and  O_7
REMARK    4  A    between atoms: O_9  and  C_12
REMARK                            x       y       z     vdW  Elec       q    Type
REMARK                         _______ _______ _______ _____ _____    ______ ____
ROOT
ATOM      1  C   UNL     1     -10.432 -43.608  31.475  0.00  0.00    +0.149 C 
ATOM      2  C   UNL     1     -10.822 -43.511  30.137  0.00  0.00    +0.077 C 
ATOM      3  C   UNL     1     -10.546 -44.512  29.254  0.00  0.00    +0.171 C 
ATOM      4  C   UNL     1      -9.877 -45.641  29.662  0.00  0.00    +0.168 C 
ATOM      5  C   UNL     1      -9.487 -45.747  30.982  0.00  0.00    +0.043 C 
ATOM      6  C   UNL     1      -9.769 -44.728  31.877  0.00  0.00    +0.041 C 
ENDROOT
BRANCH   4   7
ATOM      7  O   UNL     1      -9.592 -46.655  28.788  0.00  0.00    -0.503 OA
ATOM      8  H   UNL     1      -9.854 -46.588  27.891  0.00  0.00    +0.292 HD
ENDBRANCH   4   7
BRANCH   3   9
ATOM      9  O   UNL     1     -10.949 -44.388  27.912  0.00  0.00    -0.503 OA
ATOM     10  H   UNL     1     -10.762 -45.073  27.301  0.00  0.00    +0.292 HD
ENDBRANCH   3   9
BRANCH   1  11
ATOM     11  O   UNL     1     -10.757 -42.544  32.290  0.00  0.00    -0.453 OA
BRANCH  11  14
ATOM     12 CL   UNL     1     -11.003 -41.098  34.807  0.00  0.00    -0.079 Cl
ATOM     13  C   UNL     1     -12.362 -41.788  33.926  0.00  0.00    +0.092 C 
ATOM     14  C   UNL     1     -12.080 -42.446  32.742  0.00  0.00    +0.156 C 
ATOM     15  C   UNL     1     -13.138 -42.996  32.034  0.00  0.00    +0.038 C 
ATOM     16  C   UNL     1     -14.434 -42.896  32.486  0.00  0.00    +0.003 C 
ATOM     17  C   UNL     1     -14.690 -42.226  33.683  0.00  0.00    +0.001 C 
ATOM     18  C   UNL     1     -13.649 -41.664  34.415  0.00  0.00    +0.014 C 
ENDBRANCH  11  14
ENDBRANCH   1  11
TORSDOF 4
