MODEL 1
REMARK VINA RESULT:    -8.773      0.000      0.000
REMARK INTER + INTRA:         -15.687
REMARK INTER:                 -13.132
REMARK INTRA:                  -2.555
REMARK UNBOUND:                -2.555
REMARK  Name = =
REMARK  9 active torsions:
REMARK  status: ('A' for Active; 'I' for Inactive)
REMARK    1  A    between atoms: C_1  and  O_21
REMARK    2  A    between atoms: C_2  and  O_20
REMARK    3  A    between atoms: C_4  and  C_11
REMARK    4  A    between atoms: C_7  and  S_8
REMARK    5  A    between atoms: C_11  and  C_13
REMARK    6  A    between atoms: O_21  and  N_22
REMARK    7  A    between atoms: C_23  and  C_34
REMARK    8  A    between atoms: C_23  and  C_36
REMARK    9  A    between atoms: C_26  and  N_29
REMARK                            x       y       z     vdW  Elec       q    Type
REMARK                         _______ _______ _______ _____ _____    ______ ____
ROOT
ATOM      1  C   UNL     1      -0.657  -6.202  29.519  0.00  0.00    +0.217 C 
ATOM      2  C   UNL     1      -0.923  -7.257  28.662  0.00  0.00    +0.172 C 
ATOM      3  C   UNL     1      -0.070  -7.493  27.613  0.00  0.00    +0.044 C 
ATOM      4  C   UNL     1       1.049  -6.722  27.367  0.00  0.00    +0.056 C 
ATOM      5  C   UNL     1       1.276  -5.683  28.240  0.00  0.00    +0.112 C 
ATOM      6  N   UNL     1       2.426  -4.831  28.063  0.00  0.00    -0.127 NA
ATOM      7  C   UNL     1       0.464  -5.388  29.315  0.00  0.00    +0.158 C 
ENDROOT
BRANCH   7   8
ATOM      8  S   UNL     1       0.843  -4.027  30.370  0.00  0.00    -0.008 S 
ATOM      9  O   UNL     1       0.918  -2.760  29.517  0.00  0.00    -0.172 OA
ATOM     10  O   UNL     1       2.141  -4.151  31.051  0.00  0.00    -0.172 OA
ATOM     11  H   UNL     1      -0.134  -3.989  31.316  0.00  0.00    +0.215 HD
ENDBRANCH   7   8
BRANCH   4  12
ATOM     12  C   UNL     1       1.900  -7.048  26.244  0.00  0.00    +0.174 C 
ATOM     13  O   UNL     1       1.664  -6.499  25.129  0.00  0.00    -0.291 OA
BRANCH  12  14
ATOM     14  C   UNL     1       3.009  -7.970  26.336  0.00  0.00    +0.062 C 
ATOM     15  C   UNL     1       3.006  -8.788  27.618  0.00  0.00    +0.008 C 
ATOM     16  C   UNL     1       3.475 -10.179  27.266  0.00  0.00    +0.000 C 
ATOM     17  C   UNL     1       4.090  -9.941  25.871  0.00  0.00    +0.000 C 
ATOM     18  C   UNL     1       2.924  -9.107  25.300  0.00  0.00    +0.007 C 
ATOM     19  C   UNL     1       1.722  -9.937  25.698  0.00  0.00    +0.000 C 
ATOM     20  C   UNL     1       2.215 -10.924  26.767  0.00  0.00    +0.000 C 
ENDBRANCH  12  14
ENDBRANCH   4  12
BRANCH   2  21
ATOM     21  O   UNL     1      -2.052  -8.085  28.852  0.00  0.00    -0.503 OA
ATOM     22  H   UNL     1      -2.143  -8.579  29.643  0.00  0.00    +0.292 HD
ENDBRANCH   2  21
BRANCH   1  23
ATOM     23  O   UNL     1      -1.450  -5.923  30.571  0.00  0.00    -0.396 OA
BRANCH  23  24
ATOM     24  N   UNL     1      -2.728  -5.994  30.891  0.00  0.00    -0.113 NA
ATOM     25  C   UNL     1      -3.068  -6.693  32.061  0.00  0.00    +0.151 C 
ATOM     26  C   UNL     1      -3.524  -5.860  33.242  0.00  0.00    +0.031 C 
ATOM     27  C   UNL     1      -4.758  -5.040  32.964  0.00  0.00    +0.024 C 
ATOM     28  C   UNL     1      -4.246  -3.623  32.745  0.00  0.00    +0.100 C 
ATOM     29  C   UNL     1      -3.174  -3.675  31.675  0.00  0.00    +0.043 C 
ATOM     30  C   UNL     1      -3.386  -4.738  30.651  0.00  0.00    +0.116 C 
BRANCH  28  31
ATOM     31  N   UNL     1      -5.290  -2.675  32.471  0.00  0.00    -0.193 N 
ATOM     32  N   UNL     1      -6.478  -2.558  33.017  0.00  0.00    -0.154 NA
ATOM     33  C   UNL     1      -7.118  -1.532  32.450  0.00  0.00    +0.218 C 
ATOM     34  N   UNL     1      -6.297  -0.997  31.523  0.00  0.00    -0.203 NA
ATOM     35  C   UNL     1      -5.164  -1.700  31.532  0.00  0.00    +0.186 C 
ENDBRANCH  28  31
BRANCH  25  36
ATOM     36  C   UNL     1      -4.210  -7.649  31.822  0.00  0.00    +0.085 C 
ATOM     37  N   UNL     1      -4.415  -8.161  30.684  0.00  0.00    -0.300 NA
ATOM     38  H   UNL     1      -5.167  -8.782  30.551  0.00  0.00    +0.186 HD
ENDBRANCH  25  36
BRANCH  25  39
ATOM     39  C   UNL     1      -1.899  -7.454  32.591  0.00  0.00    +0.085 C 
ATOM     40  N   UNL     1      -1.503  -8.549  32.130  0.00  0.00    -0.300 NA
ATOM     41  H   UNL     1      -0.723  -8.997  32.530  0.00  0.00    +0.186 HD
ENDBRANCH  25  39
ENDBRANCH  23  24
ENDBRANCH   1  23
TORSDOF 9
ENDMDL
