REMARK  Name = =
REMARK  3 active torsions:
REMARK  status: ('A' for Active; 'I' for Inactive)
REMARK    1  A    between atoms: P_1  and  S_3
REMARK    2  A    between atoms: P_1  and  O_4
REMARK    3  A    between atoms: P_1  and  O_5
REMARK                            x       y       z     vdW  Elec       q    Type
REMARK                         _______ _______ _______ _____ _____    ______ ____
ROOT
ATOM      1  P   UNL     1      -5.528  -2.330  31.786  0.00  0.00    +0.221 P 
ATOM      2  S   UNL     1      -5.796  -2.801  33.431  0.00  0.00    +0.003 S 
ENDROOT
BRANCH   1   3
ATOM      3  S   UNL     1      -4.376  -3.749  30.745  0.00  0.00    -0.092 S 
ATOM      4  H   UNL     1      -3.134  -3.815  31.294  0.00  0.00    +0.111 HD
ENDBRANCH   1   3
BRANCH   1   5
ATOM      5  O   UNL     1      -4.844  -0.810  31.785  0.00  0.00    -0.340 OA
ATOM      6  H   UNL     1      -3.977  -0.845  32.218  0.00  0.00    +0.218 HD
ENDBRANCH   1   5
BRANCH   1   7
ATOM      7  O   UNL     1      -7.064  -2.315  31.030  0.00  0.00    -0.340 OA
ATOM      8  H   UNL     1      -7.440  -3.209  31.044  0.00  0.00    +0.218 HD
ENDBRANCH   1   7
TORSDOF 3
