REMARK  Name = =
REMARK  0 active torsions:
REMARK  status: ('A' for Active; 'I' for Inactive)
REMARK                            x       y       z     vdW  Elec       q    Type
REMARK                         _______ _______ _______ _____ _____    ______ ____
ROOT
ATOM      1  N   UNL     1      -3.779  -4.543  32.668  0.00  0.00    -0.297 NA
ATOM      2  C   UNL     1      -4.423  -3.851  31.591  0.00  0.00    +0.069 C 
ATOM      3  C   UNL     1      -3.803  -4.083  30.255  0.00  0.00    +0.017 C 
ATOM      4  C   UNL     1      -2.503  -4.808  30.283  0.00  0.00    +0.001 C 
ATOM      5  C   UNL     1      -2.602  -6.273  30.543  0.00  0.00    +0.001 C 
ATOM      6  C   UNL     1      -2.852  -6.624  31.985  0.00  0.00    +0.017 C 
ATOM      7  C   UNL     1      -4.086  -5.954  32.534  0.00  0.00    +0.069 C 
ATOM      8  H   UNL     1      -4.127  -4.195  33.561  0.00  0.00    +0.123 HD
ENDROOT
TORSDOF 0
