REMARK  Name = =
REMARK  1 active torsions:
REMARK  status: ('A' for Active; 'I' for Inactive)
REMARK    1  A    between atoms: C_2  and  C_8
REMARK                            x       y       z     vdW  Elec       q    Type
REMARK                         _______ _______ _______ _____ _____    ______ ____
ROOT
ATOM      1  N   UNL     1      -3.679  -4.060  33.152  0.00  0.00    -0.294 NA
ATOM      2  C   UNL     1      -4.194  -3.161  32.162  0.00  0.00    +0.095 C 
ATOM      3  C   UNL     1      -3.748  -3.397  30.773  0.00  0.00    +0.022 C 
ATOM      4  C   UNL     1      -3.622  -4.835  30.365  0.00  0.00    +0.002 C 
ATOM      5  C   UNL     1      -2.447  -5.484  31.060  0.00  0.00    +0.001 C 
ATOM      6  C   UNL     1      -2.978  -6.234  32.252  0.00  0.00    +0.017 C 
ATOM      7  C   UNL     1      -4.046  -5.425  32.993  0.00  0.00    +0.069 C 
ATOM      8  H   UNL     1      -4.015  -3.749  34.063  0.00  0.00    +0.124 HD
ENDROOT
BRANCH   2   9
ATOM      9  C   UNL     1      -5.673  -3.069  32.237  0.00  0.00    +0.078 C 
ATOM     10  N   UNL     1      -6.379  -2.407  31.411  0.00  0.00    -0.300 NA
ATOM     11  H   UNL     1      -7.358  -2.382  31.510  0.00  0.00    +0.186 HD
ENDBRANCH   2   9
TORSDOF 1
