REMARK  Name = =
REMARK  5 active torsions:
REMARK  status: ('A' for Active; 'I' for Inactive)
REMARK    1  A    between atoms: N_1  and  S_11
REMARK    2  A    between atoms: C_2  and  C_4
REMARK    3  A    between atoms: S_11  and  P_12
REMARK    4  A    between atoms: P_12  and  O_14
REMARK    5  A    between atoms: P_12  and  O_15
REMARK                            x       y       z     vdW  Elec       q    Type
REMARK                         _______ _______ _______ _____ _____    ______ ____
ROOT
ATOM      1  N   UNL     1      -4.227  -1.578  31.254  0.00  0.00    -0.247 N 
ATOM      2  C   UNL     1      -4.097  -0.395  30.498  0.00  0.00    +0.273 C 
ATOM      3  O   UNL     1      -3.008  -0.251  29.857  0.00  0.00    -0.268 OA
ATOM      4  H   UNL     1      -5.050  -1.741  31.770  0.00  0.00    +0.163 HD
ENDROOT
BRANCH   2   5
ATOM      5  C   UNL     1      -5.120   0.624  30.428  0.00  0.00    +0.140 C 
ATOM      6  N   UNL     1      -5.107   1.509  29.402  0.00  0.00    -0.219 NA
ATOM      7  C   UNL     1      -6.014   2.476  29.263  0.00  0.00    +0.200 C 
ATOM      8  N   UNL     1      -6.985   2.581  30.178  0.00  0.00    -0.209 NA
ATOM      9  C   UNL     1      -7.073   1.741  31.233  0.00  0.00    +0.129 C 
ATOM     10  C   UNL     1      -6.120   0.755  31.346  0.00  0.00    +0.058 C 
ATOM     11  N   UNL     1      -8.130   1.917  32.162  0.00  0.00    -0.343 N 
ATOM     12  H   UNL     1      -8.785   2.641  32.031  0.00  0.00    +0.144 HD
ATOM     13  H   UNL     1      -8.209   1.316  32.937  0.00  0.00    +0.144 HD
ENDBRANCH   2   5
BRANCH   1  14
ATOM     14  S   UNL     1      -2.931  -2.761  31.281  0.00  0.00    +0.030 S 
BRANCH  14  15
ATOM     15  P   UNL     1      -3.559  -4.696  30.809  0.00  0.00    +0.242 P 
ATOM     16  S   UNL     1      -2.123  -5.663  30.578  0.00  0.00    +0.004 S 
BRANCH  15  17
ATOM     17  O   UNL     1      -4.457  -5.420  32.019  0.00  0.00    -0.339 OA
ATOM     18  H   UNL     1      -3.959  -5.395  32.851  0.00  0.00    +0.218 HD
ENDBRANCH  15  17
BRANCH  15  19
ATOM     19  O   UNL     1      -4.442  -4.748  29.365  0.00  0.00    -0.339 OA
ATOM     20  H   UNL     1      -5.249  -4.219  29.460  0.00  0.00    +0.218 HD
ENDBRANCH  15  19
ENDBRANCH  14  15
ENDBRANCH   1  14
TORSDOF 5
