REMARK  Name = =
REMARK  7 active torsions:
REMARK  status: ('A' for Active; 'I' for Inactive)
REMARK    1  A    between atoms: N_1  and  N_17
REMARK    2  A    between atoms: N_1  and  S_26
REMARK    3  A    between atoms: C_2  and  C_4
REMARK    4  A    between atoms: C_14  and  N_16
REMARK    5  A    between atoms: S_26  and  P_27
REMARK    6  A    between atoms: P_27  and  O_29
REMARK    7  A    between atoms: P_27  and  O_30
REMARK                            x       y       z     vdW  Elec       q    Type
REMARK                         _______ _______ _______ _____ _____    ______ ____
ROOT
ATOM      1  N   UNL     1     -15.554  -3.657  22.840  0.00  0.00    -0.145 N 
ATOM      2  C   UNL     1     -15.167  -4.681  23.713  0.00  0.00    +0.292 C 
ATOM      3  O   UNL     1     -14.828  -4.286  24.891  0.00  0.00    -0.266 OA
ENDROOT
BRANCH   2   4
ATOM      4  C   UNL     1     -15.114  -6.092  23.429  0.00  0.00    +0.143 C 
ATOM      5  N   UNL     1     -16.044  -6.718  22.703  0.00  0.00    -0.209 NA
ATOM      6  C   UNL     1     -15.995  -8.030  22.424  0.00  0.00    +0.221 C 
ATOM      7  N   UNL     1     -16.999  -8.664  21.661  0.00  0.00    -0.278 N 
ATOM      8  C   UNL     1     -18.149  -7.880  21.399  0.00  0.00    +0.094 C 
ATOM      9  C   UNL     1     -19.002  -7.641  22.624  0.00  0.00    +0.022 C 
ATOM     10  C   UNL     1     -19.249  -8.947  23.311  0.00  0.00    +0.004 C 
ATOM     11  C   UNL     1     -18.702 -10.146  22.608  0.00  0.00    +0.022 C 
ATOM     12  C   UNL     1     -17.257  -9.965  22.188  0.00  0.00    +0.094 C 
ATOM     13  N   UNL     1     -14.943  -8.750  22.910  0.00  0.00    -0.199 NA
ATOM     14  C   UNL     1     -13.987  -8.173  23.641  0.00  0.00    +0.130 C 
ATOM     15  C   UNL     1     -14.043  -6.833  23.922  0.00  0.00    +0.058 C 
BRANCH  14  16
ATOM     16  N   UNL     1     -12.914  -8.955  24.124  0.00  0.00    -0.343 N 
ATOM     17  H   UNL     1     -12.876  -9.918  23.921  0.00  0.00    +0.144 HD
ATOM     18  H   UNL     1     -12.204  -8.537  24.664  0.00  0.00    +0.144 HD
ENDBRANCH  14  16
ENDBRANCH   2   4
BRANCH   1  19
ATOM     19  N   UNL     1     -15.567  -2.306  23.234  0.00  0.00    -0.205 N 
ATOM     20  C   UNL     1     -14.326  -1.636  23.529  0.00  0.00    +0.321 C 
ATOM     21  O   UNL     1     -13.289  -2.342  23.405  0.00  0.00    -0.251 OA
ATOM     22  N   UNL     1     -14.268  -0.294  23.926  0.00  0.00    -0.258 N 
ATOM     23  C   UNL     1     -15.445   0.511  24.069  0.00  0.00    +0.127 C 
ATOM     24  C   UNL     1     -15.244   1.832  24.681  0.00  0.00    +0.164 C 
ATOM     25  O   UNL     1     -13.988   2.358  24.639  0.00  0.00    -0.350 OA
ATOM     26  C   UNL     1     -13.118   1.762  23.753  0.00  0.00    +0.164 C 
ATOM     27  C   UNL     1     -12.984   0.302  24.201  0.00  0.00    +0.127 C 
ATOM     28  H   UNL     1     -16.420  -1.821  23.308  0.00  0.00    +0.176 HD
ENDBRANCH   1  19
BRANCH   1  29
ATOM     29  S   UNL     1     -16.041  -4.031  21.198  0.00  0.00    +0.053 S 
BRANCH  29  30
ATOM     30  P   UNL     1     -17.139  -2.430  20.348  0.00  0.00    +0.244 P 
ATOM     31  S   UNL     1     -18.777  -2.514  20.868  0.00  0.00    +0.004 S 
BRANCH  30  32
ATOM     32  O   UNL     1     -16.500  -0.951  20.856  0.00  0.00    -0.339 OA
ATOM     33  H   UNL     1     -16.548  -0.893  21.823  0.00  0.00    +0.218 HD
ENDBRANCH  30  32
BRANCH  30  34
ATOM     34  O   UNL     1     -17.089  -2.601  18.677  0.00  0.00    -0.339 OA
ATOM     35  H   UNL     1     -17.586  -1.878  18.263  0.00  0.00    +0.218 HD
ENDBRANCH  30  34
ENDBRANCH  29  30
ENDBRANCH   1  29
TORSDOF 7
