REMARK  Name = =
REMARK  8 active torsions:
REMARK  status: ('A' for Active; 'I' for Inactive)
REMARK    1  A    between atoms: N_1  and  N_17
REMARK    2  A    between atoms: N_1  and  S_33
REMARK    3  A    between atoms: C_2  and  C_4
REMARK    4  A    between atoms: C_14  and  N_16
REMARK    5  A    between atoms: C_22  and  C_26
REMARK    6  A    between atoms: S_33  and  P_34
REMARK    7  A    between atoms: P_34  and  O_36
REMARK    8  A    between atoms: P_34  and  O_37
REMARK                            x       y       z     vdW  Elec       q    Type
REMARK                         _______ _______ _______ _____ _____    ______ ____
ROOT
ATOM      1  N   UNL     1     -16.093  -3.665  22.096  0.00  0.00    -0.145 N 
ATOM      2  C   UNL     1     -16.124  -5.015  22.477  0.00  0.00    +0.292 C 
ATOM      3  O   UNL     1     -16.320  -5.250  23.724  0.00  0.00    -0.266 OA
ENDROOT
BRANCH   2   4
ATOM      4  C   UNL     1     -15.953  -6.153  21.574  0.00  0.00    +0.143 C 
ATOM      5  N   UNL     1     -14.742  -6.747  21.493  0.00  0.00    -0.209 NA
ATOM      6  C   UNL     1     -14.631  -7.769  20.654  0.00  0.00    +0.221 C 
ATOM      7  N   UNL     1     -13.426  -8.475  20.485  0.00  0.00    -0.278 N 
ATOM      8  C   UNL     1     -12.366  -8.163  21.360  0.00  0.00    +0.094 C 
ATOM      9  C   UNL     1     -11.411  -7.119  20.873  0.00  0.00    +0.022 C 
ATOM     10  C   UNL     1     -10.992  -7.335  19.436  0.00  0.00    +0.004 C 
ATOM     11  C   UNL     1     -12.271  -7.387  18.616  0.00  0.00    +0.022 C 
ATOM     12  C   UNL     1     -13.045  -8.597  19.096  0.00  0.00    +0.094 C 
ATOM     13  N   UNL     1     -15.693  -8.199  19.907  0.00  0.00    -0.199 NA
ATOM     14  C   UNL     1     -16.897  -7.620  19.976  0.00  0.00    +0.130 C 
ATOM     15  C   UNL     1     -17.042  -6.561  20.835  0.00  0.00    +0.058 C 
BRANCH  14  16
ATOM     16  N   UNL     1     -17.998  -8.092  19.178  0.00  0.00    -0.343 N 
ATOM     17  H   UNL     1     -17.872  -8.854  18.567  0.00  0.00    +0.144 HD
ATOM     18  H   UNL     1     -18.877  -7.653  19.243  0.00  0.00    +0.144 HD
ENDBRANCH  14  16
ENDBRANCH   2   4
BRANCH   1  19
ATOM     19  N   UNL     1     -16.263  -2.662  23.045  0.00  0.00    -0.205 N 
ATOM     20  C   UNL     1     -15.180  -2.240  23.836  0.00  0.00    +0.321 C 
ATOM     21  O   UNL     1     -14.061  -2.815  23.646  0.00  0.00    -0.251 OA
ATOM     22  N   UNL     1     -15.293  -1.244  24.794  0.00  0.00    -0.258 N 
ATOM     23  C   UNL     1     -14.162  -0.807  25.634  0.00  0.00    +0.124 C 
ATOM     24  C   UNL     1     -14.805  -0.035  26.758  0.00  0.00    +0.135 C 
ATOM     25  O   UNL     1     -15.287   1.137  26.233  0.00  0.00    -0.353 OA
ATOM     26  C   UNL     1     -16.382   0.885  25.427  0.00  0.00    +0.164 C 
ATOM     27  C   UNL     1     -16.535  -0.558  25.034  0.00  0.00    +0.127 C 
ATOM     28  H   UNL     1     -17.147  -2.245  23.163  0.00  0.00    +0.176 HD
BRANCH  24  29
ATOM     29  C   UNL     1     -13.867   0.192  27.923  0.00  0.00    +0.029 C 
ATOM     30  C   UNL     1     -14.613   1.045  28.912  0.00  0.00    +0.002 C 
ATOM     31  C   UNL     1     -13.800   1.492  30.081  0.00  0.00    +0.000 C 
ATOM     32  C   UNL     1     -13.003   2.711  29.684  0.00  0.00    +0.000 C 
ATOM     33  C   UNL     1     -11.626   2.370  29.197  0.00  0.00    +0.000 C 
ATOM     34  C   UNL     1     -11.584   1.018  28.513  0.00  0.00    +0.000 C 
ATOM     35  C   UNL     1     -12.609   0.873  27.433  0.00  0.00    +0.002 C 
ENDBRANCH  24  29
ENDBRANCH   1  19
BRANCH   1  36
ATOM     36  S   UNL     1     -15.838  -3.228  20.423  0.00  0.00    +0.053 S 
BRANCH  36  37
ATOM     37  P   UNL     1     -17.098  -1.619  19.853  0.00  0.00    +0.244 P 
ATOM     38  S   UNL     1     -18.735  -2.154  19.739  0.00  0.00    +0.004 S 
BRANCH  37  39
ATOM     39  O   UNL     1     -16.959  -0.427  21.043  0.00  0.00    -0.339 OA
ATOM     40  H   UNL     1     -17.269  -0.780  21.892  0.00  0.00    +0.218 HD
ENDBRANCH  37  39
BRANCH  37  41
ATOM     41  O   UNL     1     -16.550  -0.974  18.389  0.00  0.00    -0.339 OA
ATOM     42  H   UNL     1     -15.630  -0.684  18.488  0.00  0.00    +0.218 HD
ENDBRANCH  37  41
ENDBRANCH  36  37
ENDBRANCH   1  36
TORSDOF 8
