MODEL 1
REMARK VINA RESULT:    -8.065      0.000      0.000
REMARK INTER + INTRA:          -9.489
REMARK INTER:                  -9.479
REMARK INTRA:                  -0.010
REMARK UNBOUND:                -0.010
REMARK  Name = =
REMARK  4 active torsions:
REMARK  status: ('A' for Active; 'I' for Inactive)
REMARK    1  A    between atoms: C_1  and  N_42
REMARK    2  A    between atoms: N_29  and  C_45
REMARK    3  A    between atoms: C_38  and  C_43
REMARK    4  A    between atoms: C_45  and  O_46
REMARK                            x       y       z     vdW  Elec       q    Type
REMARK                         _______ _______ _______ _____ _____    ______ ____
ROOT
ATOM      1  C   UNL     1       6.240  -7.340  23.916  0.00  0.00    +0.053 C 
ATOM      2  C   UNL     1       7.075  -6.119  24.219  0.00  0.00    +0.016 C 
ATOM      3  C   UNL     1       6.162  -5.951  25.445  0.00  0.00    +0.005 C 
ATOM      4  C   UNL     1       5.137  -6.729  24.758  0.00  0.00    +0.040 C 
ATOM      5  C   UNL     1       4.088  -6.012  23.922  0.00  0.00    +0.046 C 
ATOM      6  C   UNL     1       2.990  -6.965  23.939  0.00  0.00    +0.173 C 
ATOM      7  O   UNL     1       3.386  -8.133  24.586  0.00  0.00    -0.346 OA
ATOM      8  C   UNL     1       4.305  -7.745  25.538  0.00  0.00    +0.096 C 
ATOM      9  C   UNL     1       5.206  -8.996  25.581  0.00  0.00    +0.027 C 
ATOM     10  C   UNL     1       4.371 -10.081  26.270  0.00  0.00    +0.002 C 
ATOM     11  C   UNL     1       4.306  -9.675  27.696  0.00  0.00    +0.000 C 
ATOM     12  C   UNL     1       4.294  -8.203  27.931  0.00  0.00    +0.003 C 
ATOM     13  C   UNL     1       3.796  -7.309  26.829  0.00  0.00    +0.035 C 
ATOM     14  N   UNL     1       1.789  -6.653  24.539  0.00  0.00    -0.275 NA
ATOM     15  C   UNL     1       1.600  -6.410  25.862  0.00  0.00    +0.079 C 
ATOM     16  C   UNL     1       2.410  -6.780  27.016  0.00  0.00    +0.089 C 
ATOM     17  C   UNL     1       1.641  -7.946  27.604  0.00  0.00    +0.079 C 
ATOM     18  C   UNL     1       1.080  -9.138  26.919  0.00  0.00    +0.051 C 
ATOM     19  N   UNL     1       1.438  -7.749  28.836  0.00  0.00    -0.092 NA
ATOM     20  O   UNL     1       1.949  -6.597  29.220  0.00  0.00    -0.384 OA
ATOM     21  C   UNL     1       2.339  -5.740  28.068  0.00  0.00    +0.182 C 
ATOM     22  C   UNL     1       3.496  -5.100  28.681  0.00  0.00    +0.071 C 
ATOM     23  C   UNL     1       2.812  -4.750  30.058  0.00  0.00    +0.008 C 
ATOM     24  C   UNL     1       1.390  -4.367  29.616  0.00  0.00    +0.019 C 
ATOM     25  C   UNL     1       0.362  -5.007  30.477  0.00  0.00    +0.002 C 
ATOM     26  C   UNL     1       1.333  -4.678  28.131  0.00  0.00    +0.100 C 
ATOM     27  C   UNL     1      -0.013  -5.349  27.956  0.00  0.00    +0.039 C 
ATOM     28  C   UNL     1      -0.801  -4.508  27.342  0.00  0.00    +0.093 C 
ATOM     29  N   UNL     1      -0.076  -3.275  27.067  0.00  0.00    -0.189 NA
ATOM     30  N   UNL     1       1.219  -3.543  27.392  0.00  0.00    -0.190 NA
ATOM     31  C   UNL     1       4.033  -3.818  28.203  0.00  0.00    +0.148 C 
ATOM     32  O   UNL     1       3.290  -2.816  28.007  0.00  0.00    -0.338 OA
ATOM     33  C   UNL     1       2.199  -2.513  27.238  0.00  0.00    +0.190 C 
ATOM     34  C   UNL     1       1.762  -1.278  27.996  0.00  0.00    +0.039 C 
ATOM     35  C   UNL     1       1.647  -0.079  27.526  0.00  0.00    +0.098 C 
ATOM     36  N   UNL     1       1.946   0.189  26.207  0.00  0.00    -0.246 NA
ATOM     37  C   UNL     1       2.347  -0.682  25.427  0.00  0.00    +0.090 C 
ATOM     38  C   UNL     1       2.571  -2.115  25.834  0.00  0.00    +0.156 C 
ATOM     39  C   UNL     1       3.900  -4.642  24.457  0.00  0.00    +0.004 C 
ATOM     40  C   UNL     1       2.920  -3.731  23.834  0.00  0.00    +0.002 C 
ATOM     41  C   UNL     1       2.058  -2.892  24.700  0.00  0.00    +0.024 C 
ATOM     42  H   UNL     1       1.169  -7.432  24.318  0.00  0.00    +0.125 HD
ENDROOT
BRANCH   1  43
ATOM     43  N   UNL     1       5.864  -7.391  22.509  0.00  0.00    -0.322 NA
ATOM     44  H   UNL     1       6.644  -7.755  21.962  0.00  0.00    +0.119 HD
ATOM     45  H   UNL     1       5.631  -6.452  22.186  0.00  0.00    +0.119 HD
ENDBRANCH   1  43
BRANCH  38  46
ATOM     46  C   UNL     1       4.113  -2.039  25.816  0.00  0.00    +0.081 C 
ATOM     47  N   UNL     1       5.283  -1.970  25.810  0.00  0.00    -0.195 NA
ENDBRANCH  38  46
BRANCH  29  48
ATOM     48  C   UNL     1      -0.876  -2.186  26.550  0.00  0.00    +0.231 C 
BRANCH  48  49
ATOM     49  O   UNL     1      -1.704  -1.623  27.531  0.00  0.00    -0.366 OA
ATOM     50  H   UNL     1      -1.202  -0.968  28.041  0.00  0.00    +0.212 HD
ENDBRANCH  48  49
ENDBRANCH  29  48
TORSDOF 4
ENDMDL
