MODEL 1
REMARK VINA RESULT:    -9.618      0.000      0.000
REMARK INTER + INTRA:         -10.339
REMARK INTER:                 -11.867
REMARK INTRA:                   1.528
REMARK UNBOUND:                 1.528
REMARK  Name = =
REMARK  4 active torsions:
REMARK  status: ('A' for Active; 'I' for Inactive)
REMARK    1  A    between atoms: N_1  and  C_27
REMARK    2  A    between atoms: C_5  and  C_8
REMARK    3  A    between atoms: C_26  and  O_33
REMARK    4  A    between atoms: O_33  and  C_34
REMARK                            x       y       z     vdW  Elec       q    Type
REMARK                         _______ _______ _______ _____ _____    ______ ____
ROOT
ATOM      1  N   UNL     1     -20.899 -40.544  22.564  0.00  0.00    -0.211 N 
ATOM      2  C   UNL     1     -22.064 -41.082  22.955  0.00  0.00    +0.171 C 
ATOM      3  N   UNL     1     -22.134 -41.824  24.093  0.00  0.00    -0.215 NA
ATOM      4  C   UNL     1     -21.073 -42.064  24.880  0.00  0.00    +0.135 C 
ATOM      5  C   UNL     1     -19.863 -41.505  24.476  0.00  0.00    +0.151 C 
ATOM      6  C   UNL     1     -19.804 -40.750  23.316  0.00  0.00    +0.245 C 
ATOM      7  O   UNL     1     -18.719 -40.233  22.927  0.00  0.00    -0.273 OA
ATOM      8  N   UNL     1     -21.171 -42.842  26.060  0.00  0.00    -0.175 N 
ATOM      9  C   UNL     1     -20.960 -44.166  26.060  0.00  0.00    +0.318 C 
ATOM     10  O   UNL     1     -20.664 -44.738  24.978  0.00  0.00    -0.251 OA
ATOM     11  N   UNL     1     -21.049 -44.917  27.168  0.00  0.00    -0.266 N 
ATOM     12  C   UNL     1     -21.361 -44.378  28.359  0.00  0.00    +0.070 C 
ATOM     13  C   UNL     1     -21.586 -43.014  28.402  0.00  0.00    +0.075 C 
ATOM     14  C   UNL     1     -21.485 -42.255  27.224  0.00  0.00    +0.262 C 
ATOM     15  O   UNL     1     -21.693 -41.015  27.282  0.00  0.00    -0.269 OA
ATOM     16  C   UNL     1     -23.236 -40.856  22.136  0.00  0.00    +0.146 C 
ATOM     17  N   UNL     1     -23.314 -40.186  21.045  0.00  0.00    -0.220 NA
ATOM     18  C   UNL     1     -24.670 -40.184  20.508  0.00  0.00    +0.135 C 
ATOM     19  C   UNL     1     -25.526 -40.720  21.644  0.00  0.00    +0.112 C 
ATOM     20  N   UNL     1     -24.519 -41.368  22.449  0.00  0.00    -0.317 N 
ATOM     21  H   UNL     1     -20.883 -45.886  27.107  0.00  0.00    +0.156 HD
ATOM     22  H   UNL     1     -24.699 -42.066  23.120  0.00  0.00    +0.148 HD
ENDROOT
BRANCH   5  23
ATOM     23  C   UNL     1     -18.697 -41.729  25.289  0.00  0.00    -0.024 C 
ATOM     24  C   UNL     1     -17.526 -42.265  24.825  0.00  0.00    +0.052 C 
ATOM     25  C   UNL     1     -16.421 -42.469  25.634  0.00  0.00    +0.017 C 
ATOM     26  C   UNL     1     -16.495 -42.124  26.956  0.00  0.00    +0.142 C 
ATOM     27  C   UNL     1     -17.679 -41.578  27.441  0.00  0.00    +0.037 C 
ATOM     28  C   UNL     1     -18.767 -41.379  26.634  0.00  0.00    -0.004 C 
ATOM     29  O   UNL     1     -15.407 -42.323  27.761  0.00  0.00    -0.451 OA
ATOM     30  C   UNL     1     -14.188 -42.874  27.367  0.00  0.00    +0.179 C 
ATOM     31  C   UNL     1     -14.131 -43.239  25.936  0.00  0.00    +0.040 C 
ATOM     32  C   UNL     1     -15.173 -43.046  25.144  0.00  0.00    +0.002 C 
ENDBRANCH   5  23
BRANCH   1  34
ATOM     33  C   UNL     1     -20.544 -40.347  20.168  0.00  0.00    +0.320 C 
ATOM     34  C   UNL     1     -20.862 -39.784  21.395  0.00  0.00    +0.171 C 
ATOM     35  C   UNL     1     -21.141 -38.431  21.400  0.00  0.00    +0.219 C 
ATOM     36  O   UNL     1     -21.429 -37.921  22.502  0.00  0.00    -0.285 OA
ATOM     37  C   UNL     1     -21.089 -37.735  20.214  0.00  0.00    +0.084 C 
ATOM     38  C   UNL     1     -20.764 -38.352  19.023  0.00  0.00    +0.186 C 
ATOM     39  O   UNL     1     -20.510 -39.633  19.076  0.00  0.00    -0.419 OA
BRANCH  33  40
ATOM     40  O   UNL     1     -20.258 -41.729  20.158  0.00  0.00    -0.412 OA
BRANCH  40  41
ATOM     41  C   UNL     1     -21.199 -42.526  19.495  0.00  0.00    +0.226 C 
ATOM     42  S   UNL     1     -22.036 -43.697  20.264  0.00  0.00    -0.007 S 
ENDBRANCH  40  41
ENDBRANCH  33  40
ENDBRANCH   1  34
TORSDOF 4
ENDMDL
