REMARK  Name = =
REMARK  4 active torsions:
REMARK  status: ('A' for Active; 'I' for Inactive)
REMARK    1  A    between atoms: N_1  and  C_27
REMARK    2  A    between atoms: C_5  and  C_8
REMARK    3  A    between atoms: C_26  and  O_33
REMARK    4  A    between atoms: O_33  and  C_34
REMARK                            x       y       z     vdW  Elec       q    Type
REMARK                         _______ _______ _______ _____ _____    ______ ____
ROOT
ATOM      1  N   UNL     1     -24.744 -41.327  23.975  0.00  0.00    -0.211 N 
ATOM      2  C   UNL     1     -24.580 -41.076  22.668  0.00  0.00    +0.171 C 
ATOM      3  N   UNL     1     -25.024 -41.960  21.734  0.00  0.00    -0.215 NA
ATOM      4  C   UNL     1     -25.639 -43.112  22.047  0.00  0.00    +0.135 C 
ATOM      5  C   UNL     1     -25.811 -43.374  23.405  0.00  0.00    +0.151 C 
ATOM      6  C   UNL     1     -25.355 -42.466  24.346  0.00  0.00    +0.245 C 
ATOM      7  O   UNL     1     -25.498 -42.679  25.583  0.00  0.00    -0.273 OA
ATOM      8  N   UNL     1     -26.091 -44.018  21.057  0.00  0.00    -0.175 N 
ATOM      9  C   UNL     1     -25.324 -45.020  20.604  0.00  0.00    +0.318 C 
ATOM     10  O   UNL     1     -24.165 -45.163  21.073  0.00  0.00    -0.251 OA
ATOM     11  N   UNL     1     -25.737 -45.886  19.665  0.00  0.00    -0.266 N 
ATOM     12  C   UNL     1     -26.961 -45.797  19.117  0.00  0.00    +0.070 C 
ATOM     13  C   UNL     1     -27.784 -44.776  19.558  0.00  0.00    +0.075 C 
ATOM     14  C   UNL     1     -27.322 -43.886  20.541  0.00  0.00    +0.262 C 
ATOM     15  O   UNL     1     -28.085 -42.963  20.930  0.00  0.00    -0.269 OA
ATOM     16  C   UNL     1     -23.918 -39.849  22.280  0.00  0.00    +0.146 C 
ATOM     17  N   UNL     1     -23.448 -38.934  23.047  0.00  0.00    -0.220 NA
ATOM     18  C   UNL     1     -22.851 -37.844  22.285  0.00  0.00    +0.135 C 
ATOM     19  C   UNL     1     -23.316 -38.083  20.858  0.00  0.00    +0.112 C 
ATOM     20  N   UNL     1     -23.693 -39.473  20.933  0.00  0.00    -0.317 N 
ATOM     21  H   UNL     1     -25.129 -46.603  19.371  0.00  0.00    +0.156 HD
ATOM     22  H   UNL     1     -23.781 -40.075  20.159  0.00  0.00    +0.148 HD
ENDROOT
BRANCH   5  23
ATOM     23  C   UNL     1     -26.468 -44.594  23.791  0.00  0.00    -0.024 C 
ATOM     24  C   UNL     1     -25.819 -45.773  24.041  0.00  0.00    +0.052 C 
ATOM     25  C   UNL     1     -26.481 -46.931  24.411  0.00  0.00    +0.017 C 
ATOM     26  C   UNL     1     -27.843 -46.905  24.533  0.00  0.00    +0.142 C 
ATOM     27  C   UNL     1     -28.516 -45.714  24.283  0.00  0.00    +0.037 C 
ATOM     28  C   UNL     1     -27.854 -44.572  23.918  0.00  0.00    -0.004 C 
ATOM     29  O   UNL     1     -28.504 -48.046  24.899  0.00  0.00    -0.451 OA
ATOM     30  C   UNL     1     -27.916 -49.284  25.156  0.00  0.00    +0.179 C 
ATOM     31  C   UNL     1     -26.445 -49.289  25.018  0.00  0.00    +0.040 C 
ATOM     32  C   UNL     1     -25.792 -48.191  24.672  0.00  0.00    +0.002 C 
ENDBRANCH   5  23
BRANCH   1  34
ATOM     33  C   UNL     1     -22.985 -40.440  25.398  0.00  0.00    +0.320 C 
ATOM     34  C   UNL     1     -24.281 -40.398  24.907  0.00  0.00    +0.171 C 
ATOM     35  C   UNL     1     -25.092 -39.388  25.388  0.00  0.00    +0.219 C 
ATOM     36  O   UNL     1     -26.259 -39.347  24.948  0.00  0.00    -0.285 OA
ATOM     37  C   UNL     1     -24.578 -38.501  26.306  0.00  0.00    +0.084 C 
ATOM     38  C   UNL     1     -23.277 -38.595  26.759  0.00  0.00    +0.186 C 
ATOM     39  O   UNL     1     -22.555 -39.569  26.270  0.00  0.00    -0.419 OA
BRANCH  33  40
ATOM     40  O   UNL     1     -22.153 -41.470  24.909  0.00  0.00    -0.412 OA
BRANCH  40  41
ATOM     41  C   UNL     1     -21.884 -42.499  25.819  0.00  0.00    +0.226 C 
ATOM     42  S   UNL     1     -20.605 -42.446  26.831  0.00  0.00    -0.007 S 
ENDBRANCH  40  41
ENDBRANCH  33  40
ENDBRANCH   1  34
TORSDOF 4
