MODEL 1
REMARK VINA RESULT:    -6.949      0.000      0.000
REMARK INTER + INTRA:         -10.176
REMARK INTER:                  -9.996
REMARK INTRA:                  -0.180
REMARK UNBOUND:                -0.180
REMARK  Name = =
REMARK  9 active torsions:
REMARK  status: ('A' for Active; 'I' for Inactive)
REMARK    1  A    between atoms: C_1  and  C_3
REMARK    2  A    between atoms: C_1  and  C_23
REMARK    3  A    between atoms: C_2  and  C_34
REMARK    4  A    between atoms: C_9  and  C_20
REMARK    5  A    between atoms: C_20  and  O_22
REMARK    6  A    between atoms: C_23  and  S_25
REMARK    7  A    between atoms: C_24  and  C_31
REMARK    8  A    between atoms: C_31  and  O_33
REMARK    9  A    between atoms: C_34  and  O_36
REMARK                            x       y       z     vdW  Elec       q    Type
REMARK                         _______ _______ _______ _____ _____    ______ ____
ROOT
ATOM      1  C   UNL     1      60.409 161.030  41.540  0.00  0.00    -0.010 C 
ATOM      2  C   UNL     1      60.318 159.941  42.348  0.00  0.00    +0.078 C 
ENDROOT
BRANCH   1   3
ATOM      3  C   UNL     1      59.389 161.150  40.460  0.00  0.00    +0.020 C 
ATOM      4  C   UNL     1      59.975 161.812  39.228  0.00  0.00    +0.004 C 
ATOM      5  C   UNL     1      59.122 161.718  37.994  0.00  0.00    +0.001 C 
ATOM      6  C   UNL     1      59.884 162.281  36.846  0.00  0.00    +0.004 C 
ATOM      7  C   UNL     1      59.115 162.820  35.709  0.00  0.00    +0.005 C 
ATOM      8  C   UNL     1      59.169 164.324  35.731  0.00  0.00    +0.033 C 
ATOM      9  C   UNL     1      60.567 164.785  35.614  0.00  0.00    +0.049 C 
ATOM     10  C   UNL     1      61.519 164.154  36.277  0.00  0.00    -0.024 C 
ATOM     11  C   UNL     1      61.136 162.992  37.121  0.00  0.00    +0.022 C 
ATOM     12  C   UNL     1      61.913 162.608  38.116  0.00  0.00    +0.004 C 
ATOM     13  C   UNL     1      61.395 161.423  38.899  0.00  0.00    +0.001 C 
ATOM     14  C   UNL     1      58.821 160.278  37.613  0.00  0.00    +0.000 C 
ATOM     15  C   UNL     1      58.941 159.336  38.752  0.00  0.00    +0.000 C 
ATOM     16  C   UNL     1      58.618 159.978  40.079  0.00  0.00    +0.004 C 
ATOM     17  C   UNL     1      57.136 160.413  40.025  0.00  0.00    +0.000 C 
ATOM     18  C   UNL     1      57.117 161.282  41.268  0.00  0.00    +0.000 C 
ATOM     19  C   UNL     1      58.354 162.150  41.003  0.00  0.00    +0.004 C 
BRANCH   9  20
ATOM     20  C   UNL     1      60.923 165.932  34.779  0.00  0.00    +0.334 C 
ATOM     21  O   UNL     1      60.536 167.076  35.142  0.00  0.00    -0.245 OA
BRANCH  20  22
ATOM     22  O   UNL     1      61.656 165.777  33.638  0.00  0.00    -0.477 OA
ATOM     23  H   UNL     1      61.929 164.922  33.369  0.00  0.00    +0.295 HD
ENDBRANCH  20  22
ENDBRANCH   9  20
ENDBRANCH   1   3
BRANCH   1  24
ATOM     24  C   UNL     1      61.433 161.972  41.944  0.00  0.00    +0.030 C 
ATOM     25  C   UNL     1      61.460 163.213  42.145  0.00  0.00    +0.088 C 
BRANCH  24  26
ATOM     26  S   UNL     1      62.963 161.023  42.572  0.00  0.00    -0.108 S 
ATOM     27  N   UNL     1      63.836 160.697  41.185  0.00  0.00    -0.236 NA
ATOM     28  C   UNL     1      65.161 161.250  41.123  0.00  0.00    +0.195 C 
ATOM     29  O   UNL     1      65.633 161.937  42.053  0.00  0.00    -0.291 OA
ATOM     30  C   UNL     1      66.023 161.019  39.926  0.00  0.00    +0.053 C 
ATOM     31  S   UNL     1      63.836 162.486  43.029  0.00  0.00    -0.038 S 
ATOM     32  H   UNL     1      62.762 159.970  43.408  0.00  0.00    +0.114 HD
ATOM     33  H   UNL     1      63.309 161.063  40.392  0.00  0.00    +0.137 HD
ATOM     34  H   UNL     1      63.981 162.618  44.374  0.00  0.00    +0.132 HD
ENDBRANCH  24  26
BRANCH  25  35
ATOM     35  C   UNL     1      60.829 164.466  42.001  0.00  0.00    +0.339 C 
ATOM     36  O   UNL     1      60.562 164.892  40.750  0.00  0.00    -0.245 OA
BRANCH  35  37
ATOM     37  O   UNL     1      60.416 165.349  42.934  0.00  0.00    -0.477 OA
ATOM     38  H   UNL     1      59.528 165.646  42.937  0.00  0.00    +0.295 HD
ENDBRANCH  35  37
ENDBRANCH  25  35
ENDBRANCH   1  24
BRANCH   2  39
ATOM     39  C   UNL     1      59.479 158.797  42.319  0.00  0.00    +0.338 C 
ATOM     40  O   UNL     1      58.400 158.533  42.874  0.00  0.00    -0.245 OA
BRANCH  39  41
ATOM     41  O   UNL     1      59.905 157.672  41.503  0.00  0.00    -0.477 OA
ATOM     42  H   UNL     1      60.721 157.708  41.045  0.00  0.00    +0.295 HD
ENDBRANCH  39  41
ENDBRANCH   2  39
TORSDOF 9
ENDMDL
