MODEL 1
REMARK VINA RESULT:   -11.098      0.000      0.000
REMARK INTER + INTRA:         -17.848
REMARK INTER:                 -16.289
REMARK INTRA:                  -1.559
REMARK UNBOUND:                -1.559
REMARK  Name = =
REMARK  9 active torsions:
REMARK  status: ('A' for Active; 'I' for Inactive)
REMARK    1  A    between atoms: C_4  and  O_38
REMARK    2  A    between atoms: C_6  and  O_39
REMARK    3  A    between atoms: C_7  and  C_12
REMARK    4  A    between atoms: C_10  and  C_29
REMARK    5  A    between atoms: C_11  and  C_22
REMARK    6  A    between atoms: C_25  and  O_28
REMARK    7  A    between atoms: C_32  and  O_35
REMARK    8  A    between atoms: O_35  and  C_36
REMARK    9  A    between atoms: O_39  and  C_40
REMARK                            x       y       z     vdW  Elec       q    Type
REMARK                         _______ _______ _______ _____ _____    ______ ____
ROOT
ATOM      1  O   UNL     1     -19.948 -40.518  23.397  0.00  0.00    -0.453 OA
ATOM      2  C   UNL     1     -18.668 -40.764  23.432  0.00  0.00    +0.150 A 
ATOM      3  C   UNL     1     -17.926 -40.277  22.379  0.00  0.00    +0.107 A 
ATOM      4  C   UNL     1     -16.579 -40.495  22.336  0.00  0.00    +0.143 C 
ATOM      5  C   UNL     1     -16.013 -41.218  23.385  0.00  0.00    +0.074 C 
ATOM      6  C   UNL     1     -16.749 -41.714  24.453  0.00  0.00    +0.145 C 
ATOM      7  C   UNL     1     -18.097 -41.497  24.495  0.00  0.00    +0.046 C 
ATOM      8  C   UNL     1     -18.502 -39.565  21.338  0.00  0.00    +0.204 A 
ATOM      9  O   UNL     1     -17.864 -39.114  20.381  0.00  0.00    -0.286 OA
ATOM     10  C   UNL     1     -19.871 -39.356  21.390  0.00  0.00    +0.074 A 
ATOM     11  C   UNL     1     -20.577 -39.867  22.476  0.00  0.00    +0.148 A 
ENDROOT
BRANCH   7  12
ATOM     12  C   UNL     1     -18.942 -41.834  25.600  0.00  0.00    +0.028 C 
ATOM     13  C   UNL     1     -19.877 -43.028  25.214  0.00  0.00    +0.004 C 
ATOM     14  C   UNL     1     -19.912 -43.816  26.549  0.00  0.00    +0.000 C 
ATOM     15  C   UNL     1     -19.882 -42.882  27.707  0.00  0.00    +0.000 C 
ATOM     16  C   UNL     1     -20.284 -41.464  27.532  0.00  0.00    +0.000 C 
ATOM     17  C   UNL     1     -19.927 -40.881  26.176  0.00  0.00    +0.005 C 
ATOM     18  C   UNL     1     -21.075 -44.764  26.561  0.00  0.00    +0.000 C 
ATOM     19  C   UNL     1     -21.445 -45.064  25.127  0.00  0.00    +0.000 C 
ATOM     20  C   UNL     1     -22.143 -43.820  24.596  0.00  0.00    +0.000 C 
ATOM     21  C   UNL     1     -21.308 -42.586  24.947  0.00  0.00    +0.000 C 
ENDBRANCH   7  12
BRANCH  11  22
ATOM     22  C   UNL     1     -22.021 -39.626  22.492  0.00  0.00    +0.035 C 
ATOM     23  C   UNL     1     -22.640 -38.483  22.874  0.00  0.00    +0.006 C 
ATOM     24  C   UNL     1     -24.014 -38.410  22.849  0.00  0.00    +0.037 C 
ATOM     25  C   UNL     1     -24.791 -39.471  22.445  0.00  0.00    +0.134 C 
ATOM     26  C   UNL     1     -24.186 -40.663  22.046  0.00  0.00    +0.037 C 
ATOM     27  C   UNL     1     -22.812 -40.701  22.083  0.00  0.00    +0.006 C 
BRANCH  25  28
ATOM     28  O   UNL     1     -26.167 -39.396  22.418  0.00  0.00    -0.506 OA
ATOM     29  H   UNL     1     -26.670 -39.759  23.120  0.00  0.00    +0.292 HD
ENDBRANCH  25  28
ENDBRANCH  11  22
BRANCH  10  30
ATOM     30  C   UNL     1     -20.628 -38.665  20.354  0.00  0.00    +0.006 C 
ATOM     31  C   UNL     1     -21.292 -39.406  19.370  0.00  0.00    +0.003 C 
ATOM     32  C   UNL     1     -22.033 -38.786  18.385  0.00  0.00    +0.038 C 
ATOM     33  C   UNL     1     -22.161 -37.422  18.313  0.00  0.00    +0.149 C 
ATOM     34  C   UNL     1     -21.499 -36.667  19.291  0.00  0.00    +0.038 C 
ATOM     35  C   UNL     1     -20.766 -37.300  20.264  0.00  0.00    +0.003 C 
BRANCH  33  36
ATOM     36  O   UNL     1     -22.902 -36.759  17.335  0.00  0.00    -0.417 OA
BRANCH  36  37
ATOM     37  C   UNL     1     -22.431 -36.499  16.051  0.00  0.00    +0.423 C 
ATOM     38  O   UNL     1     -22.486 -37.374  15.163  0.00  0.00    -0.237 OA
ENDBRANCH  36  37
ENDBRANCH  33  36
ENDBRANCH  10  30
BRANCH   4  39
ATOM     39  O   UNL     1     -15.841 -39.997  21.271  0.00  0.00    -0.505 OA
ATOM     40  H   UNL     1     -16.075 -39.178  20.882  0.00  0.00    +0.292 HD
ENDBRANCH   4  39
BRANCH   6  41
ATOM     41  O   UNL     1     -16.067 -42.401  25.443  0.00  0.00    -0.440 OA
BRANCH  41  42
ATOM     42  C   UNL     1     -14.700 -42.582  25.523  0.00  0.00    +0.368 C 
ATOM     43  O   UNL     1     -14.320 -43.957  25.650  0.00  0.00    -0.407 OA
ATOM     44  C   UNL     1     -13.545 -44.163  26.776  0.00  0.00    +0.344 C 
ATOM     45  O   UNL     1     -13.035 -45.233  27.181  0.00  0.00    -0.245 OA
ATOM     46  C   UNL     1     -13.412 -42.885  27.443  0.00  0.00    +0.085 C 
ATOM     47  C   UNL     1     -14.064 -41.994  26.741  0.00  0.00    +0.071 C 
ENDBRANCH  41  42
ENDBRANCH   6  41
TORSDOF 9
ENDMDL
