REMARK  Name = =
REMARK  14 active torsions:
REMARK  status: ('A' for Active; 'I' for Inactive)
REMARK    1  A    between atoms: C_1  and  S_19
REMARK    2  A    between atoms: C_1  and  O_31
REMARK    3  A    between atoms: S_19  and  N_20
REMARK    4  A    between atoms: N_22  and  C_23
REMARK    5  A    between atoms: N_22  and  O_33
REMARK    6  A    between atoms: C_23  and  P_24
REMARK    7  A    between atoms: C_23  and  C_29
REMARK    8  A    between atoms: P_24  and  O_25
REMARK    9  A    between atoms: P_24  and  O_27
REMARK   10  A    between atoms: P_24  and  O_28
REMARK   11  A    between atoms: O_25  and  O_26
REMARK   12  A    between atoms: O_31  and  C_32
REMARK   13  A    between atoms: C_32  and  O_33
REMARK   14  A    between atoms: C_32  and  C_34
REMARK                            x       y       z     vdW  Elec       q    Type
REMARK                         _______ _______ _______ _____ _____    ______ ____
ROOT
ATOM      1  C   UNL     1      51.707 158.647  29.559  0.00  0.00    +0.154 C 
ATOM      2  C   UNL     1      50.721 159.322  28.491  0.00  0.00    +0.042 C 
ATOM      3  C   UNL     1      49.459 159.641  29.177  0.00  0.00    +0.004 C 
ATOM      4  C   UNL     1      49.374 159.746  30.634  0.00  0.00    +0.004 C 
ATOM      5  C   UNL     1      50.605 159.875  31.411  0.00  0.00    +0.021 C 
ATOM      6  C   UNL     1      50.780 160.805  32.479  0.00  0.00    +0.009 C 
ATOM      7  C   UNL     1      51.546 162.082  32.164  0.00  0.00    +0.026 C 
ATOM      8  C   UNL     1      52.833 161.660  31.534  0.00  0.00    -0.024 C 
ATOM      9  C   UNL     1      54.025 162.122  31.830  0.00  0.00    +0.033 C 
ATOM     10  C   UNL     1      55.225 161.629  31.146  0.00  0.00    +0.173 C 
ATOM     11  O   UNL     1      56.298 162.229  31.280  0.00  0.00    -0.291 OA
ATOM     12  C   UNL     1      55.147 160.401  30.286  0.00  0.00    +0.074 C 
ATOM     13  C   UNL     1      53.831 160.574  29.527  0.00  0.00    +0.034 C 
ATOM     14  C   UNL     1      52.763 160.605  30.491  0.00  0.00    -0.031 C 
ATOM     15  C   UNL     1      51.819 159.750  30.495  0.00  0.00    -0.015 C 
ATOM     16  C   UNL     1      48.393 160.832  30.972  0.00  0.00    +0.000 C 
ATOM     17  C   UNL     1      47.731 161.237  29.666  0.00  0.00    +0.000 C 
ATOM     18  C   UNL     1      48.711 160.805  28.567  0.00  0.00    +0.000 C 
ENDROOT
BRANCH   1  19
ATOM     19  S   UNL     1      52.800 157.793  28.798  0.00  0.00    -0.069 S 
ATOM     20  H   UNL     1      52.870 156.546  29.335  0.00  0.00    +0.114 HD
BRANCH  19  21
ATOM     21  N   UNL     1      52.302 157.688  27.048  0.00  0.00    +0.001 NA
ATOM     22  O   UNL     1      53.193 157.865  26.279  0.00  0.00    -0.089 OA
ENDBRANCH  19  21
ENDBRANCH   1  19
BRANCH   1  23
ATOM     23  O   UNL     1      50.701 157.782  30.162  0.00  0.00    -0.314 OA
BRANCH  23  24
ATOM     24  C   UNL     1      50.857 156.427  30.284  0.00  0.00    +0.320 C 
BRANCH  24  25
ATOM     25  C   UNL     1      49.803 155.534  29.748  0.00  0.00    +0.270 C 
ATOM     26  O   UNL     1      48.964 155.971  28.927  0.00  0.00    -0.283 OA
ENDBRANCH  24  25
BRANCH  24  27
ATOM     27  O   UNL     1      51.876 155.958  30.839  0.00  0.00    -0.249 OA
BRANCH  27  28
ATOM     28  N   UNL     1      52.228 156.009  29.066  0.00  0.00    -0.174 NA
ATOM     29  H   UNL     1      52.564 156.964  28.940  0.00  0.00    +0.156 HD
BRANCH  28  30
ATOM     30  C   UNL     1      53.045 155.271  28.127  0.00  0.00    +0.180 C 
BRANCH  30  31
ATOM     31  P   UNL     1      52.290 153.647  28.002  0.00  0.00    +0.200 P 
ATOM     32  H   UNL     1      53.581 153.221  27.764  0.00  0.00    +0.136 HD
BRANCH  31  33
ATOM     33  O   UNL     1      51.214 153.863  26.705  0.00  0.00    -0.341 OA
ATOM     34  H   UNL     1      50.356 154.163  27.043  0.00  0.00    +0.218 HD
ENDBRANCH  31  33
BRANCH  31  35
ATOM     35  O   UNL     1      53.577 152.745  27.459  0.00  0.00    -0.341 OA
ATOM     36  H   UNL     1      53.249 151.980  26.961  0.00  0.00    +0.218 HD
ENDBRANCH  31  35
BRANCH  31  37
ATOM     37  O   UNL     1      52.309 152.230  28.388  0.00  0.00    -0.176 OA
BRANCH  37  38
ATOM     38  O   UNL     1      51.877 153.168  29.573  0.00  0.00    -0.244 OA
ATOM     39  H   UNL     1      51.697 152.632  30.361  0.00  0.00    +0.254 HD
ENDBRANCH  37  38
ENDBRANCH  31  37
ENDBRANCH  30  31
BRANCH  30  40
ATOM     40  C   UNL     1      53.059 155.839  26.770  0.00  0.00    +0.002 C 
ATOM     41  C   UNL     1      54.036 155.599  25.921  0.00  0.00    -0.003 C 
ENDBRANCH  30  40
ENDBRANCH  28  30
ENDBRANCH  27  28
ENDBRANCH  24  27
ENDBRANCH  23  24
ENDBRANCH   1  23
TORSDOF 14
