MODEL 1
REMARK VINA RESULT:   -10.394      0.000      0.000
REMARK INTER + INTRA:         -14.696
REMARK INTER:                 -14.039
REMARK INTRA:                  -0.657
REMARK UNBOUND:                -0.657
REMARK  Name = =
REMARK  6 active torsions:
REMARK  status: ('A' for Active; 'I' for Inactive)
REMARK    1  A    between atoms: C_1  and  C_34
REMARK    2  A    between atoms: S_33  and  C_34
REMARK    3  A    between atoms: S_33  and  O_35
REMARK    4  A    between atoms: O_35  and  C_36
REMARK    5  A    between atoms: C_36  and  C_38
REMARK    6  A    between atoms: C_38  and  C_41
REMARK                            x       y       z     vdW  Elec       q    Type
REMARK                         _______ _______ _______ _____ _____    ______ ____
ROOT
ATOM      1  C   UNL     1     -21.687 -41.150  25.536  0.00  0.00    +0.012 C 
ATOM      2  C   UNL     1     -22.362 -41.848  24.400  0.00  0.00    +0.001 C 
ATOM      3  C   UNL     1     -21.860 -43.206  24.398  0.00  0.00    +0.000 C 
ATOM      4  C   UNL     1     -22.551 -44.056  25.444  0.00  0.00    +0.000 C 
ATOM      5  C   UNL     1     -23.124 -43.063  26.434  0.00  0.00    +0.000 C 
ATOM      6  C   UNL     1     -22.152 -41.970  26.761  0.00  0.00    +0.001 C 
ATOM      7  C   UNL     1     -21.419 -44.836  26.083  0.00  0.00    +0.000 C 
ATOM      8  C   UNL     1     -20.178 -43.926  26.017  0.00  0.00    +0.000 C 
ATOM      9  C   UNL     1     -20.426 -42.991  24.940  0.00  0.00    +0.000 C 
ATOM     10  C   UNL     1     -20.303 -41.489  25.111  0.00  0.00    +0.001 C 
ATOM     11  C   UNL     1     -19.343 -41.098  26.202  0.00  0.00    +0.000 C 
ATOM     12  C   UNL     1     -18.002 -41.737  26.133  0.00  0.00    +0.000 C 
ATOM     13  C   UNL     1     -17.460 -41.946  27.540  0.00  0.00    +0.000 C 
ATOM     14  C   UNL     1     -15.947 -41.797  27.543  0.00  0.00    +0.000 C 
ATOM     15  C   UNL     1     -15.278 -43.026  27.010  0.00  0.00    +0.000 C 
ATOM     16  C   UNL     1     -14.982 -43.011  25.549  0.00  0.00    +0.003 C 
ATOM     17  C   UNL     1     -14.233 -41.828  25.038  0.00  0.00    +0.032 C 
ATOM     18  C   UNL     1     -14.923 -41.113  23.891  0.00  0.00    +0.142 C 
ATOM     19  O   UNL     1     -15.718 -41.920  23.110  0.00  0.00    -0.354 OA
ATOM     20  C   UNL     1     -16.896 -41.281  22.702  0.00  0.00    +0.142 C 
ATOM     21  C   UNL     1     -17.994 -42.285  22.713  0.00  0.00    +0.032 C 
ATOM     22  C   UNL     1     -19.378 -41.800  22.743  0.00  0.00    +0.003 C 
ATOM     23  C   UNL     1     -19.842 -40.870  23.825  0.00  0.00    +0.004 C 
ATOM     24  C   UNL     1     -23.432 -41.322  23.670  0.00  0.00    +0.004 C 
ATOM     25  C   UNL     1     -22.943 -41.049  22.245  0.00  0.00    +0.022 C 
ATOM     26  C   UNL     1     -21.699 -40.247  22.213  0.00  0.00    -0.042 C 
ATOM     27  C   UNL     1     -21.651 -39.873  20.938  0.00  0.00    +0.029 C 
ATOM     28  C   UNL     1     -20.597 -39.040  20.351  0.00  0.00    +0.173 C 
ATOM     29  O   UNL     1     -20.562 -38.682  19.161  0.00  0.00    -0.291 OA
ATOM     30  C   UNL     1     -19.503 -38.602  21.256  0.00  0.00    +0.069 C 
ATOM     31  C   UNL     1     -19.877 -38.645  22.679  0.00  0.00    +0.012 C 
ATOM     32  C   UNL     1     -20.684 -39.837  23.152  0.00  0.00    +0.019 C 
ENDROOT
BRANCH   1  33
ATOM     33  C   UNL     1     -22.144 -39.825  25.849  0.00  0.00    +0.084 C 
BRANCH  33  34
ATOM     34  S   UNL     1     -23.040 -39.221  26.941  0.00  0.00    -0.028 S 
ATOM     35  H   UNL     1     -23.872 -40.199  27.392  0.00  0.00    +0.134 HD
BRANCH  34  36
ATOM     36  O   UNL     1     -24.011 -37.883  26.438  0.00  0.00    -0.402 OA
BRANCH  36  37
ATOM     37  C   UNL     1     -24.174 -36.785  27.285  0.00  0.00    +0.361 C 
ATOM     38  O   UNL     1     -23.558 -35.752  27.054  0.00  0.00    -0.243 OA
BRANCH  37  39
ATOM     39  C   UNL     1     -25.101 -36.909  28.470  0.00  0.00    +0.145 C 
ATOM     40  C   UNL     1     -26.218 -37.379  28.336  0.00  0.00    +0.018 C 
BRANCH  39  42
ATOM     41  N   UNL     1     -23.970 -36.089  30.695  0.00  0.00    -0.191 NA
ATOM     42  C   UNL     1     -24.477 -36.469  29.697  0.00  0.00    +0.107 C 
ENDBRANCH  39  42
ENDBRANCH  37  39
ENDBRANCH  36  37
ENDBRANCH  34  36
ENDBRANCH  33  34
ENDBRANCH   1  33
TORSDOF 6
ENDMDL
