REMARK  Name = =
REMARK  6 active torsions:
REMARK  status: ('A' for Active; 'I' for Inactive)
REMARK    1  A    between atoms: C_1  and  C_34
REMARK    2  A    between atoms: S_33  and  C_34
REMARK    3  A    between atoms: S_33  and  O_35
REMARK    4  A    between atoms: O_35  and  C_36
REMARK    5  A    between atoms: C_36  and  C_38
REMARK    6  A    between atoms: C_38  and  C_41
REMARK                            x       y       z     vdW  Elec       q    Type
REMARK                         _______ _______ _______ _____ _____    ______ ____
ROOT
ATOM      1  C   UNL     1     -21.569 -41.692  25.657  0.00  0.00    +0.012 C 
ATOM      2  C   UNL     1     -20.850 -43.002  25.671  0.00  0.00    +0.001 C 
ATOM      3  C   UNL     1     -19.668 -42.829  24.853  0.00  0.00    +0.000 C 
ATOM      4  C   UNL     1     -18.566 -42.118  25.611  0.00  0.00    +0.000 C 
ATOM      5  C   UNL     1     -19.274 -41.402  26.743  0.00  0.00    +0.000 C 
ATOM      6  C   UNL     1     -20.533 -40.731  26.285  0.00  0.00    +0.001 C 
ATOM      7  C   UNL     1     -18.029 -41.112  24.612  0.00  0.00    +0.000 C 
ATOM      8  C   UNL     1     -19.221 -40.709  23.724  0.00  0.00    +0.000 C 
ATOM      9  C   UNL     1     -20.174 -41.795  23.819  0.00  0.00    +0.000 C 
ATOM     10  C   UNL     1     -21.632 -41.579  24.176  0.00  0.00    +0.001 C 
ATOM     11  C   UNL     1     -22.131 -40.208  23.808  0.00  0.00    +0.000 C 
ATOM     12  C   UNL     1     -21.858 -39.782  22.410  0.00  0.00    +0.000 C 
ATOM     13  C   UNL     1     -21.641 -38.276  22.365  0.00  0.00    +0.000 C 
ATOM     14  C   UNL     1     -22.161 -37.713  21.051  0.00  0.00    +0.000 C 
ATOM     15  C   UNL     1     -21.202 -37.971  19.931  0.00  0.00    +0.000 C 
ATOM     16  C   UNL     1     -21.446 -39.220  19.154  0.00  0.00    +0.003 C 
ATOM     17  C   UNL     1     -22.826 -39.410  18.623  0.00  0.00    +0.032 C 
ATOM     18  C   UNL     1     -23.465 -40.725  19.029  0.00  0.00    +0.142 C 
ATOM     19  O   UNL     1     -22.573 -41.750  19.247  0.00  0.00    -0.354 OA
ATOM     20  C   UNL     1     -22.938 -42.559  20.331  0.00  0.00    +0.142 C 
ATOM     21  C   UNL     1     -21.697 -42.962  21.046  0.00  0.00    +0.032 C 
ATOM     22  C   UNL     1     -21.816 -43.441  22.427  0.00  0.00    +0.003 C 
ATOM     23  C   UNL     1     -22.480 -42.599  23.477  0.00  0.00    +0.004 C 
ATOM     24  C   UNL     1     -21.168 -44.071  26.514  0.00  0.00    +0.004 C 
ATOM     25  C   UNL     1     -21.704 -45.213  25.647  0.00  0.00    +0.022 C 
ATOM     26  C   UNL     1     -22.790 -44.778  24.739  0.00  0.00    -0.042 C 
ATOM     27  C   UNL     1     -23.298 -45.942  24.347  0.00  0.00    +0.029 C 
ATOM     28  C   UNL     1     -24.425 -46.093  23.421  0.00  0.00    +0.173 C 
ATOM     29  O   UNL     1     -24.905 -47.183  23.066  0.00  0.00    -0.291 OA
ATOM     30  C   UNL     1     -25.022 -44.845  22.880  0.00  0.00    +0.069 C 
ATOM     31  C   UNL     1     -24.736 -43.660  23.706  0.00  0.00    +0.012 C 
ATOM     32  C   UNL     1     -23.337 -43.528  24.273  0.00  0.00    +0.019 C 
ENDROOT
BRANCH   1  33
ATOM     33  C   UNL     1     -22.697 -41.560  26.536  0.00  0.00    +0.084 C 
BRANCH  33  34
ATOM     34  S   UNL     1     -23.338 -40.393  27.303  0.00  0.00    -0.028 S 
ATOM     35  H   UNL     1     -22.401 -39.876  28.143  0.00  0.00    +0.134 HD
BRANCH  34  36
ATOM     36  O   UNL     1     -24.728 -40.808  28.242  0.00  0.00    -0.402 OA
BRANCH  36  37
ATOM     37  C   UNL     1     -24.934 -40.203  29.484  0.00  0.00    +0.361 C 
ATOM     38  O   UNL     1     -24.402 -40.680  30.479  0.00  0.00    -0.243 OA
BRANCH  37  39
ATOM     39  C   UNL     1     -25.817 -38.982  29.564  0.00  0.00    +0.145 C 
ATOM     40  C   UNL     1     -26.583 -38.711  28.654  0.00  0.00    +0.018 C 
BRANCH  39  42
ATOM     41  N   UNL     1     -25.517 -37.693  31.833  0.00  0.00    -0.191 NA
ATOM     42  C   UNL     1     -25.661 -38.279  30.817  0.00  0.00    +0.107 C 
ENDBRANCH  39  42
ENDBRANCH  37  39
ENDBRANCH  36  37
ENDBRANCH  34  36
ENDBRANCH  33  34
ENDBRANCH   1  33
TORSDOF 6
