REMARK  Name = =
REMARK  0 active torsions:
REMARK  status: ('A' for Active; 'I' for Inactive)
REMARK                            x       y       z     vdW  Elec       q    Type
REMARK                         _______ _______ _______ _____ _____    ______ ____
ROOT
ATOM      1  C   UNL     1      -3.289  -4.074  31.931  0.00  0.00    +0.001 C 
ATOM      2  C   UNL     1      -4.307  -3.260  32.153  0.00  0.00    +0.015 C 
ATOM      3  C   UNL     1      -5.062  -3.717  33.211  0.00  0.00    +0.076 C 
ATOM      4  N   UNL     1      -4.559  -4.807  33.682  0.00  0.00    -0.266 NA
ATOM      5  C   UNL     1      -3.386  -5.158  32.932  0.00  0.00    +0.152 C 
ATOM      6  C   UNL     1      -6.189  -2.984  33.597  0.00  0.00    +0.019 C 
ATOM      7  C   UNL     1      -6.527  -1.828  32.923  0.00  0.00    +0.002 C 
ATOM      8  C   UNL     1      -5.790  -1.348  31.863  0.00  0.00    +0.000 C 
ATOM      9  C   UNL     1      -4.682  -2.081  31.493  0.00  0.00    +0.001 C 
ENDROOT
TORSDOF 0
