REMARK  Name = =
REMARK  5 active torsions:
REMARK  status: ('A' for Active; 'I' for Inactive)
REMARK    1  A    between atoms: C_1  and  O_20
REMARK    2  A    between atoms: C_5  and  C_16
REMARK    3  A    between atoms: C_12  and  O_19
REMARK    4  A    between atoms: C_16  and  O_18
REMARK    5  A    between atoms: O_20  and  C_28
REMARK                            x       y       z     vdW  Elec       q    Type
REMARK                         _______ _______ _______ _____ _____    ______ ____
ROOT
ATOM      1  C   UNL     1      -1.281  -0.885  22.275  0.00  0.00    +0.148 C 
ATOM      2  C   UNL     1      -1.292  -0.894  20.869  0.00  0.00    +0.070 C 
ATOM      3  C   UNL     1      -2.404  -0.725  20.115  0.00  0.00    -0.012 C 
ATOM      4  C   UNL     1      -3.623  -0.528  20.766  0.00  0.00    +0.003 C 
ATOM      5  C   UNL     1      -3.649  -0.513  22.133  0.00  0.00    +0.078 C 
ATOM      6  C   UNL     1      -2.540  -0.682  22.897  0.00  0.00    +0.044 C 
ATOM      7  C   UNL     1      -2.424  -0.735  18.658  0.00  0.00    +0.053 C 
ATOM      8  C   UNL     1      -1.128  -0.966  18.016  0.00  0.00    -0.012 C 
ATOM      9  C   UNL     1      -1.019  -1.009  16.623  0.00  0.00    -0.004 C 
ATOM     10  C   UNL     1       0.181  -1.221  16.001  0.00  0.00    +0.003 C 
ATOM     11  C   UNL     1       1.320  -1.396  16.759  0.00  0.00    +0.037 C 
ATOM     12  C   UNL     1       1.272  -1.363  18.136  0.00  0.00    +0.136 C 
ATOM     13  C   UNL     1       0.028  -1.145  18.734  0.00  0.00    +0.069 C 
ATOM     14  C   UNL     1       0.006  -1.119  20.198  0.00  0.00    +0.201 C 
ATOM     15  O   UNL     1       1.059  -1.283  20.823  0.00  0.00    -0.286 OA
ENDROOT
BRANCH   5  16
ATOM     16  C   UNL     1      -4.954  -0.303  22.780  0.00  0.00    +0.338 C 
ATOM     17  O   UNL     1      -5.804  -1.224  22.894  0.00  0.00    -0.245 OA
BRANCH  16  18
ATOM     18  O   UNL     1      -5.274   0.946  23.288  0.00  0.00    -0.477 OA
ATOM     19  H   UNL     1      -4.661   1.651  23.218  0.00  0.00    +0.295 HD
ENDBRANCH  16  18
ENDBRANCH   5  16
BRANCH  12  20
ATOM     20  O   UNL     1       2.397  -1.535  18.926  0.00  0.00    -0.505 OA
ATOM     21  H   UNL     1       3.232  -1.681  18.527  0.00  0.00    +0.292 HD
ENDBRANCH  12  20
BRANCH   1  22
ATOM     22  O   UNL     1      -0.237  -1.044  22.971  0.00  0.00    -0.453 OA
BRANCH  22  30
ATOM     23  C   UNL     1       2.069  -1.905  27.121  0.00  0.00    +0.002 C 
ATOM     24  C   UNL     1       1.915  -1.639  25.827  0.00  0.00    +0.018 C 
ATOM     25  C   UNL     1       3.156  -1.525  25.239  0.00  0.00    +0.076 C 
ATOM     26  N   UNL     1       4.076  -1.705  26.098  0.00  0.00    -0.266 NA
ATOM     27  C   UNL     1       3.511  -1.972  27.411  0.00  0.00    +0.152 C 
ATOM     28  C   UNL     1       3.246  -1.248  23.879  0.00  0.00    +0.022 C 
ATOM     29  C   UNL     1       2.139  -1.085  23.111  0.00  0.00    +0.039 C 
ATOM     30  C   UNL     1       0.843  -1.192  23.663  0.00  0.00    +0.145 C 
ATOM     31  C   UNL     1       0.804  -1.474  25.047  0.00  0.00    +0.039 C 
ENDBRANCH  22  30
ENDBRANCH   1  22
TORSDOF 5
