REMARK  Name = =
REMARK  6 active torsions:
REMARK  status: ('A' for Active; 'I' for Inactive)
REMARK    1  A    between atoms: C_1  and  O_19
REMARK    2  A    between atoms: C_5  and  C_16
REMARK    3  A    between atoms: C_12  and  O_29
REMARK    4  A    between atoms: C_16  and  O_18
REMARK    5  A    between atoms: O_19  and  C_27
REMARK    6  A    between atoms: O_29  and  N_30
REMARK                            x       y       z     vdW  Elec       q    Type
REMARK                         _______ _______ _______ _____ _____    ______ ____
ROOT
ATOM      1  C   UNL     1     -11.691   2.134  19.502  0.00  0.00    +0.148 C 
ATOM      2  C   UNL     1     -11.036   1.094  20.157  0.00  0.00    +0.070 C 
ATOM      3  C   UNL     1     -11.663  -0.098  20.430  0.00  0.00    -0.012 C 
ATOM      4  C   UNL     1     -12.996  -0.231  20.022  0.00  0.00    +0.003 C 
ATOM      5  C   UNL     1     -13.675   0.771  19.373  0.00  0.00    +0.078 C 
ATOM      6  C   UNL     1     -13.004   1.944  19.123  0.00  0.00    +0.044 C 
ATOM      7  C   UNL     1     -11.021  -1.234  21.121  0.00  0.00    +0.053 C 
ATOM      8  C   UNL     1      -9.628  -1.004  21.510  0.00  0.00    -0.012 C 
ATOM      9  C   UNL     1      -8.947  -2.017  22.164  0.00  0.00    -0.004 C 
ATOM     10  C   UNL     1      -7.634  -1.836  22.546  0.00  0.00    +0.003 C 
ATOM     11  C   UNL     1      -6.975  -0.656  22.289  0.00  0.00    +0.040 C 
ATOM     12  C   UNL     1      -7.645   0.344  21.645  0.00  0.00    +0.174 C 
ATOM     13  C   UNL     1      -8.959   0.161  21.264  0.00  0.00    +0.072 C 
ATOM     14  C   UNL     1      -9.653   1.274  20.564  0.00  0.00    +0.201 C 
ATOM     15  O   UNL     1      -9.042   2.345  20.336  0.00  0.00    -0.286 OA
ENDROOT
BRANCH   5  16
ATOM     16  C   UNL     1     -15.063   0.579  18.970  0.00  0.00    +0.338 C 
ATOM     17  O   UNL     1     -15.387  -0.439  18.321  0.00  0.00    -0.245 OA
BRANCH  16  18
ATOM     18  O   UNL     1     -16.062   1.488  19.276  0.00  0.00    -0.477 OA
ATOM     19  H   UNL     1     -15.858   2.263  19.761  0.00  0.00    +0.295 HD
ENDBRANCH  16  18
ENDBRANCH   5  16
BRANCH   1  20
ATOM     20  O   UNL     1     -11.026   3.331  19.241  0.00  0.00    -0.453 OA
BRANCH  20  28
ATOM     21  C   UNL     1     -12.638   6.543  22.570  0.00  0.00    +0.002 C 
ATOM     22  C   UNL     1     -12.311   6.096  21.366  0.00  0.00    +0.018 C 
ATOM     23  C   UNL     1     -12.525   7.064  20.407  0.00  0.00    +0.076 C 
ATOM     24  N   UNL     1     -12.988   8.140  20.973  0.00  0.00    -0.266 NA
ATOM     25  C   UNL     1     -13.110   7.927  22.395  0.00  0.00    +0.152 C 
ATOM     26  C   UNL     1     -12.235   6.773  19.081  0.00  0.00    +0.022 C 
ATOM     27  C   UNL     1     -11.747   5.539  18.739  0.00  0.00    +0.039 C 
ATOM     28  C   UNL     1     -11.523   4.550  19.673  0.00  0.00    +0.145 C 
ATOM     29  C   UNL     1     -11.810   4.843  20.988  0.00  0.00    +0.039 C 
ENDBRANCH  20  28
ENDBRANCH   1  20
BRANCH  12  30
ATOM     30  O   UNL     1      -7.044   1.549  21.358  0.00  0.00    -0.375 OA
BRANCH  30  31
ATOM     31  N   UNL     1      -5.705   1.756  21.274  0.00  0.00    -0.082 N 
ATOM     32  C   UNL     1      -5.075   1.345  20.143  0.00  0.00    +0.114 C 
ATOM     33  C   UNL     1      -3.713   1.533  20.009  0.00  0.00    +0.051 C 
ATOM     34  C   UNL     1      -2.983   2.144  21.032  0.00  0.00    +0.120 C 
ATOM     35  N   UNL     1      -3.667   2.527  22.124  0.00  0.00    -0.145 NA
ATOM     36  C   UNL     1      -4.982   2.344  22.250  0.00  0.00    +0.364 C 
ATOM     37  O   UNL     1      -5.631   2.707  23.284  0.00  0.00    -0.247 OA
ATOM     38  N   UNL     1      -1.583   2.330  20.877  0.00  0.00    -0.344 N 
ATOM     39  H   UNL     1      -1.135   2.029  20.054  0.00  0.00    +0.144 HD
ATOM     40  H   UNL     1      -1.061   2.760  21.593  0.00  0.00    +0.144 HD
ENDBRANCH  30  31
ENDBRANCH  12  30
TORSDOF 6
