REMARK  Name = =
REMARK  8 active torsions:
REMARK  status: ('A' for Active; 'I' for Inactive)
REMARK    1  A    between atoms: C_1  and  O_19
REMARK    2  A    between atoms: C_5  and  C_16
REMARK    3  A    between atoms: C_12  and  O_39
REMARK    4  A    between atoms: C_16  and  O_18
REMARK    5  A    between atoms: O_19  and  C_27
REMARK    6  A    between atoms: C_26  and  N_29
REMARK    7  A    between atoms: N_32  and  C_33
REMARK    8  A    between atoms: O_39  and  N_40
REMARK                            x       y       z     vdW  Elec       q    Type
REMARK                         _______ _______ _______ _____ _____    ______ ____
ROOT
ATOM      1  C   UNL     1     -11.830   1.493  20.514  0.00  0.00    +0.148 C 
ATOM      2  C   UNL     1     -11.137   2.634  20.053  0.00  0.00    +0.070 C 
ATOM      3  C   UNL     1     -11.626   3.902  20.120  0.00  0.00    -0.012 C 
ATOM      4  C   UNL     1     -12.892   4.120  20.673  0.00  0.00    +0.003 C 
ATOM      5  C   UNL     1     -13.595   3.049  21.128  0.00  0.00    +0.078 C 
ATOM      6  C   UNL     1     -13.066   1.763  21.047  0.00  0.00    +0.044 C 
ATOM      7  C   UNL     1     -10.875   5.078  19.625  0.00  0.00    +0.053 C 
ATOM      8  C   UNL     1      -9.582   4.786  19.025  0.00  0.00    -0.012 C 
ATOM      9  C   UNL     1      -8.851   5.845  18.528  0.00  0.00    -0.004 C 
ATOM     10  C   UNL     1      -7.618   5.623  17.955  0.00  0.00    +0.003 C 
ATOM     11  C   UNL     1      -7.063   4.374  17.849  0.00  0.00    +0.040 C 
ATOM     12  C   UNL     1      -7.792   3.311  18.345  0.00  0.00    +0.174 C 
ATOM     13  C   UNL     1      -9.025   3.534  18.919  0.00  0.00    +0.072 C 
ATOM     14  C   UNL     1      -9.829   2.412  19.452  0.00  0.00    +0.201 C 
ATOM     15  O   UNL     1      -9.307   1.278  19.345  0.00  0.00    -0.286 OA
ENDROOT
BRANCH   5  16
ATOM     16  C   UNL     1     -14.921   3.244  21.710  0.00  0.00    +0.338 C 
ATOM     17  O   UNL     1     -15.417   4.401  21.792  0.00  0.00    -0.245 OA
BRANCH  16  18
ATOM     18  O   UNL     1     -15.630   2.144  22.171  0.00  0.00    -0.477 OA
ATOM     19  H   UNL     1     -15.257   1.287  22.108  0.00  0.00    +0.295 HD
ENDBRANCH  16  18
ENDBRANCH   5  16
BRANCH   1  20
ATOM     20  O   UNL     1     -11.227   0.302  20.376  0.00  0.00    -0.452 OA
BRANCH  20  28
ATOM     21  C   UNL     1     -14.692  -3.129  20.850  0.00  0.00    +0.002 C 
ATOM     22  C   UNL     1     -13.472  -2.646  20.729  0.00  0.00    +0.018 C 
ATOM     23  C   UNL     1     -12.554  -3.653  20.732  0.00  0.00    +0.078 C 
ATOM     24  N   UNL     1     -13.145  -4.807  20.853  0.00  0.00    -0.266 NA
ATOM     25  C   UNL     1     -14.560  -4.622  20.943  0.00  0.00    +0.152 C 
ATOM     26  C   UNL     1     -11.191  -3.327  20.612  0.00  0.00    +0.036 C 
ATOM     27  C   UNL     1     -10.776  -2.034  20.494  0.00  0.00    +0.088 C 
ATOM     28  C   UNL     1     -11.727  -0.953  20.489  0.00  0.00    +0.159 C 
ATOM     29  C   UNL     1     -13.042  -1.332  20.608  0.00  0.00    +0.040 C 
BRANCH  27  30
ATOM     30  N   UNL     1      -9.411  -1.706  20.449  0.00  0.00    -0.266 N 
ATOM     31  C   UNL     1      -8.376  -2.622  20.170  0.00  0.00    +0.308 C 
ATOM     32  O   UNL     1      -8.569  -3.822  19.929  0.00  0.00    -0.252 OA
ATOM     33  N   UNL     1      -7.016  -2.187  20.156  0.00  0.00    -0.268 N 
ATOM     34  H   UNL     1      -9.159  -0.771  20.625  0.00  0.00    +0.157 HD
ATOM     35  H   UNL     1      -6.863  -1.233  20.345  0.00  0.00    +0.156 HD
BRANCH  33  36
ATOM     36  C   UNL     1      -5.878  -2.954  19.906  0.00  0.00    +0.052 C 
ATOM     37  C   UNL     1      -5.825  -4.312  19.778  0.00  0.00    +0.015 C 
ATOM     38  C   UNL     1      -4.623  -4.992  19.511  0.00  0.00    +0.001 C 
ATOM     39  C   UNL     1      -3.450  -4.290  19.373  0.00  0.00    +0.000 C 
ATOM     40  C   UNL     1      -3.473  -2.926  19.497  0.00  0.00    +0.001 C 
ATOM     41  C   UNL     1      -4.659  -2.286  19.756  0.00  0.00    +0.015 C 
ENDBRANCH  33  36
ENDBRANCH  27  30
ENDBRANCH  20  28
ENDBRANCH   1  20
BRANCH  12  42
ATOM     42  O   UNL     1      -7.309   1.997  18.283  0.00  0.00    -0.375 OA
BRANCH  42  43
ATOM     43  N   UNL     1      -6.074   1.810  17.686  0.00  0.00    -0.082 N 
ATOM     44  C   UNL     1      -5.996   1.567  16.355  0.00  0.00    +0.114 C 
ATOM     45  C   UNL     1      -4.754   1.377  15.746  0.00  0.00    +0.051 C 
ATOM     46  C   UNL     1      -3.599   1.437  16.502  0.00  0.00    +0.120 C 
ATOM     47  N   UNL     1      -3.718   1.679  17.809  0.00  0.00    -0.145 NA
ATOM     48  C   UNL     1      -4.930   1.863  18.399  0.00  0.00    +0.364 C 
ATOM     49  O   UNL     1      -4.973   2.089  19.652  0.00  0.00    -0.247 OA
ATOM     50  N   UNL     1      -2.360   1.238  15.833  0.00  0.00    -0.344 N 
ATOM     51  H   UNL     1      -2.346   1.063  14.864  0.00  0.00    +0.144 HD
ATOM     52  H   UNL     1      -1.516   1.275  16.339  0.00  0.00    +0.144 HD
ENDBRANCH  42  43
ENDBRANCH  12  42
TORSDOF 8
