REMARK  Name = =
REMARK  2 active torsions:
REMARK  status: ('A' for Active; 'I' for Inactive)
REMARK    1  A    between atoms: C_9  and  C_10
REMARK    2  A    between atoms: C_10  and  O_12
REMARK                            x       y       z     vdW  Elec       q    Type
REMARK                         _______ _______ _______ _____ _____    ______ ____
ROOT
ATOM      1  N   UNL     1      -3.647  -4.347  31.530  0.00  0.00    -0.245 N 
ATOM      2  C   UNL     1      -4.986  -3.778  31.746  0.00  0.00    +0.137 C 
ATOM      3  C   UNL     1      -4.778  -4.183  33.189  0.00  0.00    +0.117 C 
ATOM      4  C   UNL     1      -3.643  -5.047  32.769  0.00  0.00    +0.233 C 
ATOM      5  O   UNL     1      -2.978  -5.985  33.293  0.00  0.00    -0.274 OA
ATOM      6  S   UNL     1      -5.026  -2.021  31.437  0.00  0.00    -0.115 S 
ATOM      7  C   UNL     1      -3.583  -1.640  30.407  0.00  0.00    +0.087 C 
ATOM      8  C   UNL     1      -2.923  -2.819  29.853  0.00  0.00    +0.007 C 
ATOM      9  C   UNL     1      -2.930  -4.041  30.327  0.00  0.00    +0.127 C 
ENDROOT
BRANCH   9  10
ATOM     10  C   UNL     1      -2.197  -5.101  29.625  0.00  0.00    +0.352 C 
ATOM     11  O   UNL     1      -1.482  -4.814  28.635  0.00  0.00    -0.244 OA
BRANCH  10  12
ATOM     12  O   UNL     1      -2.247  -6.434  29.994  0.00  0.00    -0.476 OA
ATOM     13  H   UNL     1      -2.767  -6.698  30.727  0.00  0.00    +0.295 HD
ENDBRANCH  10  12
ENDBRANCH   9  10
TORSDOF 2
