REMARK  Name = =
REMARK  1 active torsions:
REMARK  status: ('A' for Active; 'I' for Inactive)
REMARK    1  A    between atoms: N_1  and  N_3
REMARK                            x       y       z     vdW  Elec       q    Type
REMARK                         _______ _______ _______ _____ _____    ______ ____
ROOT
ATOM      1  N   UNL     1      -2.020  -2.912  30.654  0.00  0.00    -0.282 N 
ATOM      2  H   UNL     1      -1.199  -3.369  30.361  0.00  0.00    +0.164 HD
ATOM      3  H   UNL     1      -1.969  -2.005  31.034  0.00  0.00    +0.164 HD
ENDROOT
BRANCH   1   5
ATOM      4  C   UNL     1      -4.372  -3.055  30.876  0.00  0.00    +0.139 C 
ATOM      5  N   UNL     1      -3.240  -3.541  30.533  0.00  0.00    -0.186 NA
ENDBRANCH   1   5
TORSDOF 1
