REMARK  Name = =
REMARK  6 active torsions:
REMARK  status: ('A' for Active; 'I' for Inactive)
REMARK    1  A    between atoms: C_3  and  C_10
REMARK    2  A    between atoms: C_9  and  C_16
REMARK    3  A    between atoms: N_11  and  N_12
REMARK    4  A    between atoms: N_12  and  C_13
REMARK    5  A    between atoms: C_13  and  N_15
REMARK    6  A    between atoms: C_16  and  O_18
REMARK                            x       y       z     vdW  Elec       q    Type
REMARK                         _______ _______ _______ _____ _____    ______ ____
ROOT
ATOM      1  N   UNL     1      -5.926  -5.415  21.246  0.00  0.00    -0.244 N 
ATOM      2  C   UNL     1      -6.728  -4.309  21.747  0.00  0.00    +0.142 C 
ATOM      3  C   UNL     1      -7.908  -5.168  21.394  0.00  0.00    +0.149 C 
ATOM      4  C   UNL     1      -6.960  -6.283  21.695  0.00  0.00    +0.238 C 
ATOM      5  O   UNL     1      -7.023  -7.457  22.140  0.00  0.00    -0.274 OA
ATOM      6  S   UNL     1      -6.545  -2.828  20.768  0.00  0.00    -0.115 S 
ATOM      7  C   UNL     1      -5.443  -3.190  19.385  0.00  0.00    +0.087 C 
ATOM      8  C   UNL     1      -4.469  -4.199  19.788  0.00  0.00    +0.007 C 
ATOM      9  C   UNL     1      -4.681  -5.210  20.631  0.00  0.00    +0.127 C 
ENDROOT
BRANCH   3  10
ATOM     10  C   UNL     1      -9.025  -5.064  22.371  0.00  0.00    +0.103 C 
ATOM     11  N   UNL     1     -10.056  -5.811  22.280  0.00  0.00    -0.183 NA
BRANCH  11  12
ATOM     12  N   UNL     1     -11.079  -5.663  23.237  0.00  0.00    -0.218 N 
ATOM     13  H   UNL     1     -11.587  -4.821  23.287  0.00  0.00    +0.176 HD
BRANCH  12  14
ATOM     14  C   UNL     1     -11.378  -6.726  24.130  0.00  0.00    +0.147 C 
ATOM     15  S   UNL     1     -10.209  -7.402  25.022  0.00  0.00    -0.017 S 
BRANCH  14  16
ATOM     16  N   UNL     1     -12.708  -7.233  24.273  0.00  0.00    -0.339 N 
ATOM     17  H   UNL     1     -13.442  -6.844  23.745  0.00  0.00    +0.144 HD
ATOM     18  H   UNL     1     -12.889  -7.971  24.899  0.00  0.00    +0.144 HD
ENDBRANCH  14  16
ENDBRANCH  12  14
ENDBRANCH  11  12
ENDBRANCH   3  10
BRANCH   9  19
ATOM     19  C   UNL     1      -3.589  -6.131  20.909  0.00  0.00    +0.352 C 
ATOM     20  O   UNL     1      -2.380  -5.785  20.769  0.00  0.00    -0.244 OA
BRANCH  19  21
ATOM     21  O   UNL     1      -3.816  -7.425  21.337  0.00  0.00    -0.476 OA
ATOM     22  H   UNL     1      -4.693  -7.732  21.457  0.00  0.00    +0.295 HD
ENDBRANCH  19  21
ENDBRANCH   9  19
TORSDOF 6
