REMARK  Name = =
REMARK  4 active torsions:
REMARK  status: ('A' for Active; 'I' for Inactive)
REMARK    1  A    between atoms: N_6  and  C_18
REMARK    2  A    between atoms: C_17  and  C_21
REMARK    3  A    between atoms: C_18  and  N_20
REMARK    4  A    between atoms: C_21  and  O_23
REMARK                            x       y       z     vdW  Elec       q    Type
REMARK                         _______ _______ _______ _____ _____    ______ ____
ROOT
ATOM      1  N   UNL     1      -7.582  -6.126  22.181  0.00  0.00    -0.282 N 
ATOM      2  C   UNL     1      -8.427  -5.255  22.974  0.00  0.00    +0.131 C 
ATOM      3  C   UNL     1      -8.920  -4.027  22.290  0.00  0.00    +0.105 C 
ATOM      4  C   UNL     1      -7.706  -3.145  22.116  0.00  0.00    +0.122 C 
ATOM      5  N   UNL     1      -6.631  -3.547  21.516  0.00  0.00    -0.127 NA
ATOM      6  N   UNL     1      -6.428  -4.673  20.662  0.00  0.00    -0.205 N 
ATOM      7  C   UNL     1      -7.268  -5.843  20.808  0.00  0.00    +0.142 C 
ATOM      8  C   UNL     1      -6.907  -6.996  19.977  0.00  0.00    +0.039 C 
ATOM      9  C   UNL     1      -8.049  -7.547  19.494  0.00  0.00    +0.004 C 
ATOM     10  C   UNL     1      -9.236  -6.771  19.992  0.00  0.00    +0.011 C 
ATOM     11  C   UNL     1      -8.602  -5.415  20.153  0.00  0.00    +0.093 C 
ATOM     12  C   UNL     1      -9.357  -4.445  20.924  0.00  0.00    +0.157 C 
ATOM     13  O   UNL     1     -10.357  -3.972  20.441  0.00  0.00    -0.296 OA
ATOM     14  S   UNL     1      -9.700  -6.145  23.848  0.00  0.00    -0.116 S 
ATOM     15  C   UNL     1      -9.280  -7.907  23.762  0.00  0.00    +0.087 C 
ATOM     16  C   UNL     1      -7.856  -8.103  23.524  0.00  0.00    +0.007 C 
ATOM     17  C   UNL     1      -7.052  -7.310  22.807  0.00  0.00    +0.123 C 
ENDROOT
BRANCH   6  18
ATOM     18  C   UNL     1      -5.413  -4.573  19.717  0.00  0.00    +0.147 C 
ATOM     19  S   UNL     1      -4.530  -3.173  19.664  0.00  0.00    -0.018 S 
BRANCH  18  20
ATOM     20  N   UNL     1      -5.020  -5.540  18.765  0.00  0.00    -0.339 N 
ATOM     21  H   UNL     1      -5.487  -6.405  18.721  0.00  0.00    +0.144 HD
ATOM     22  H   UNL     1      -4.279  -5.349  18.146  0.00  0.00    +0.144 HD
ENDBRANCH  18  20
ENDBRANCH   6  18
BRANCH  17  23
ATOM     23  C   UNL     1      -5.654  -7.637  22.660  0.00  0.00    +0.351 C 
ATOM     24  O   UNL     1      -4.856  -6.935  22.021  0.00  0.00    -0.244 OA
BRANCH  23  25
ATOM     25  O   UNL     1      -5.153  -8.787  23.250  0.00  0.00    -0.476 OA
ATOM     26  H   UNL     1      -5.721  -9.347  23.742  0.00  0.00    +0.295 HD
ENDBRANCH  23  25
ENDBRANCH  17  23
TORSDOF 4
