REMARK  Name = =
REMARK  1 active torsions:
REMARK  status: ('A' for Active; 'I' for Inactive)
REMARK    1  A    between atoms: N_13  and  N_14
REMARK                            x       y       z     vdW  Elec       q    Type
REMARK                         _______ _______ _______ _____ _____    ______ ____
ROOT
ATOM      1  C   UNL     1     -12.532  -4.494  25.143  0.00  0.00    +0.203 C 
ATOM      2  N   UNL     1     -13.901  -4.314  24.849  0.00  0.00    -0.278 N 
ATOM      3  C   UNL     1     -14.347  -3.985  23.520  0.00  0.00    +0.110 C 
ATOM      4  C   UNL     1     -15.744  -4.516  23.316  0.00  0.00    +0.090 C 
ATOM      5  N   UNL     1     -16.675  -4.147  24.328  0.00  0.00    -0.295 NA
ATOM      6  C   UNL     1     -16.062  -3.553  25.470  0.00  0.00    +0.090 C 
ATOM      7  C   UNL     1     -14.893  -4.457  25.885  0.00  0.00    +0.110 C 
ATOM      8  N   UNL     1     -11.717  -5.482  24.538  0.00  0.00    -0.281 N 
ATOM      9  C   UNL     1     -10.481  -5.305  23.807  0.00  0.00    +0.093 C 
ATOM     10  C   UNL     1     -10.642  -6.259  22.687  0.00  0.00    +0.023 C 
ATOM     11  C   UNL     1     -11.475  -7.207  23.083  0.00  0.00    +0.023 C 
ATOM     12  C   UNL     1     -11.921  -6.935  24.501  0.00  0.00    +0.093 C 
ATOM     13  N   UNL     1     -11.918  -3.735  26.020  0.00  0.00    -0.158 NA
ATOM     14  H   UNL     1     -17.176  -4.984  24.628  0.00  0.00    +0.123 HD
ENDROOT
BRANCH  13  15
ATOM     15  N   UNL     1     -12.652  -2.734  26.664  0.00  0.00    -0.280 N 
ATOM     16  H   UNL     1     -12.214  -2.151  27.326  0.00  0.00    +0.164 HD
ATOM     17  H   UNL     1     -13.606  -2.612  26.455  0.00  0.00    +0.164 HD
ENDBRANCH  13  15
TORSDOF 1
