REMARK  Name = =
REMARK  8 active torsions:
REMARK  status: ('A' for Active; 'I' for Inactive)
REMARK    1  A    between atoms: N_6  and  C_18
REMARK    2  A    between atoms: C_17  and  C_26
REMARK    3  A    between atoms: C_18  and  S_19
REMARK    4  A    between atoms: C_18  and  N_20
REMARK    5  A    between atoms: S_19  and  C_21
REMARK    6  A    between atoms: C_21  and  C_23
REMARK    7  A    between atoms: C_23  and  O_25
REMARK    8  A    between atoms: C_26  and  O_28
REMARK                            x       y       z     vdW  Elec       q    Type
REMARK                         _______ _______ _______ _____ _____    ______ ____
ROOT
ATOM      1  N   UNL     1      -7.808  -6.412  21.325  0.00  0.00    -0.284 N 
ATOM      2  C   UNL     1      -6.784  -6.378  22.361  0.00  0.00    +0.131 C 
ATOM      3  C   UNL     1      -7.026  -7.246  23.535  0.00  0.00    +0.105 C 
ATOM      4  C   UNL     1      -8.258  -6.704  24.228  0.00  0.00    +0.118 C 
ATOM      5  N   UNL     1      -9.379  -6.591  23.596  0.00  0.00    -0.143 NA
ATOM      6  N   UNL     1      -9.821  -7.157  22.344  0.00  0.00    -0.168 NA
ATOM      7  C   UNL     1      -8.847  -7.422  21.319  0.00  0.00    +0.129 C 
ATOM      8  C   UNL     1      -9.299  -7.851  20.026  0.00  0.00    +0.036 C 
ATOM      9  C   UNL     1      -9.428  -9.186  20.021  0.00  0.00    +0.004 C 
ATOM     10  C   UNL     1      -9.037  -9.707  21.389  0.00  0.00    +0.010 C 
ATOM     11  C   UNL     1      -8.004  -8.673  21.713  0.00  0.00    +0.090 C 
ATOM     12  C   UNL     1      -7.492  -8.609  23.057  0.00  0.00    +0.157 C 
ATOM     13  O   UNL     1      -7.393  -9.525  23.852  0.00  0.00    -0.296 OA
ATOM     14  S   UNL     1      -5.199  -6.581  21.563  0.00  0.00    -0.116 S 
ATOM     15  C   UNL     1      -5.270  -5.694  19.996  0.00  0.00    +0.087 C 
ATOM     16  C   UNL     1      -6.584  -5.102  19.705  0.00  0.00    +0.007 C 
ATOM     17  C   UNL     1      -7.738  -5.428  20.309  0.00  0.00    +0.122 C 
ENDROOT
BRANCH  17  18
ATOM     18  C   UNL     1      -8.977  -4.768  19.911  0.00  0.00    +0.351 C 
ATOM     19  O   UNL     1      -9.274  -4.758  18.688  0.00  0.00    -0.244 OA
BRANCH  18  20
ATOM     20  O   UNL     1      -9.869  -4.145  20.746  0.00  0.00    -0.476 OA
ATOM     21  H   UNL     1      -9.706  -4.117  21.668  0.00  0.00    +0.295 HD
ENDBRANCH  18  20
ENDBRANCH  17  18
BRANCH   6  22
ATOM     22  C   UNL     1     -11.183  -7.433  22.254  0.00  0.00    +0.173 C 
BRANCH  22  23
ATOM     23  N   UNL     1     -11.681  -8.524  23.080  0.00  0.00    -0.300 NA
ATOM     24  H   UNL     1     -12.684  -8.632  22.931  0.00  0.00    +0.121 HD
ATOM     25  H   UNL     1     -11.503  -8.315  24.062  0.00  0.00    +0.121 HD
ENDBRANCH  22  23
BRANCH  22  26
ATOM     26  S   UNL     1     -12.322  -6.666  21.380  0.00  0.00    -0.107 S 
ATOM     27  H   UNL     1     -11.949  -6.729  20.074  0.00  0.00    +0.103 HD
BRANCH  26  28
ATOM     28  C   UNL     1     -14.048  -7.318  21.500  0.00  0.00    +0.287 C 
ATOM     29  O   UNL     1     -14.531  -7.308  22.657  0.00  0.00    -0.274 OA
BRANCH  28  30
ATOM     30  C   UNL     1     -14.744  -7.788  20.333  0.00  0.00    +0.383 C 
ATOM     31  O   UNL     1     -14.134  -7.858  19.237  0.00  0.00    -0.241 OA
BRANCH  30  32
ATOM     32  O   UNL     1     -16.060  -8.156  20.423  0.00  0.00    -0.475 OA
ATOM     33  H   UNL     1     -16.507  -8.100  21.245  0.00  0.00    +0.296 HD
ENDBRANCH  30  32
ENDBRANCH  28  30
ENDBRANCH  26  28
ENDBRANCH  22  26
ENDBRANCH   6  22
TORSDOF 8
