REMARK  Name = =
REMARK  2 active torsions:
REMARK  status: ('A' for Active; 'I' for Inactive)
REMARK    1  A    between atoms: N_1  and  C_30
REMARK    2  A    between atoms: N_32  and  N_33
REMARK                            x       y       z     vdW  Elec       q    Type
REMARK                         _______ _______ _______ _____ _____    ______ ____
ROOT
ATOM      1  N   UNL     1     -10.988  -5.341  20.700  0.00  0.00    -0.273 NA
ATOM      2  C   UNL     1     -10.593  -5.302  22.128  0.00  0.00    +0.062 C 
ATOM      3  C   UNL     1      -9.536  -6.342  22.382  0.00  0.00    +0.023 C 
ATOM      4  C   UNL     1      -8.464  -6.232  21.395  0.00  0.00    +0.068 C 
ATOM      5  C   UNL     1      -7.273  -7.147  21.630  0.00  0.00    +0.226 C 
ATOM      6  O   UNL     1      -6.238  -6.292  21.027  0.00  0.00    -0.472 OA
ATOM      7  C   UNL     1      -6.544  -4.970  21.367  0.00  0.00    +0.135 C 
ATOM      8  C   UNL     1      -7.875  -4.889  21.626  0.00  0.00    +0.011 C 
ATOM      9  C   UNL     1      -8.589  -3.811  22.000  0.00  0.00    -0.022 C 
ATOM     10  C   UNL     1      -7.893  -2.637  22.133  0.00  0.00    -0.004 C 
ATOM     11  C   UNL     1      -6.515  -2.613  21.884  0.00  0.00    +0.003 C 
ATOM     12  C   UNL     1      -5.863  -3.784  21.506  0.00  0.00    +0.037 C 
ATOM     13  C   UNL     1     -10.031  -3.911  22.314  0.00  0.00    +0.042 C 
ATOM     14  C   UNL     1      -6.979  -7.245  23.092  0.00  0.00    +0.191 C 
ATOM     15  O   UNL     1      -6.022  -7.898  23.439  0.00  0.00    -0.292 OA
ATOM     16  C   UNL     1      -7.820  -6.572  24.102  0.00  0.00    +0.068 C 
ATOM     17  C   UNL     1      -9.284  -6.740  23.756  0.00  0.00    +0.010 C 
ATOM     18  C   UNL     1      -8.949  -6.352  19.966  0.00  0.00    +0.025 C 
ATOM     19  C   UNL     1      -9.942  -5.254  19.701  0.00  0.00    +0.073 C 
ENDROOT
BRANCH   1  30
ATOM     20  C   UNL     1     -15.590  -6.708  21.271  0.00  0.00    +0.203 C 
ATOM     21  N   UNL     1     -16.288  -7.723  20.550  0.00  0.00    -0.278 N 
ATOM     22  C   UNL     1     -17.679  -7.478  20.231  0.00  0.00    +0.110 C 
ATOM     23  C   UNL     1     -17.909  -7.937  18.810  0.00  0.00    +0.090 C 
ATOM     24  N   UNL     1     -17.483  -9.279  18.563  0.00  0.00    -0.295 NA
ATOM     25  C   UNL     1     -16.832  -9.890  19.702  0.00  0.00    +0.090 C 
ATOM     26  C   UNL     1     -15.689  -8.962  20.127  0.00  0.00    +0.110 C 
ATOM     27  N   UNL     1     -14.539  -5.976  20.688  0.00  0.00    -0.279 N 
ATOM     28  C   UNL     1     -14.363  -5.718  19.285  0.00  0.00    +0.095 C 
ATOM     29  C   UNL     1     -12.887  -5.675  19.149  0.00  0.00    +0.039 C 
ATOM     30  C   UNL     1     -12.356  -5.461  20.335  0.00  0.00    +0.079 C 
ATOM     31  C   UNL     1     -13.444  -5.343  21.372  0.00  0.00    +0.109 C 
ATOM     32  N   UNL     1     -15.984  -6.504  22.501  0.00  0.00    -0.158 NA
ATOM     33  H   UNL     1     -16.829  -9.272  17.781  0.00  0.00    +0.123 HD
BRANCH  32  34
ATOM     34  N   UNL     1     -17.011  -7.211  23.091  0.00  0.00    -0.280 N 
ATOM     35  H   UNL     1     -17.270  -7.019  24.021  0.00  0.00    +0.164 HD
ATOM     36  H   UNL     1     -17.485  -7.908  22.582  0.00  0.00    +0.164 HD
ENDBRANCH  32  34
ENDBRANCH   1  30
TORSDOF 2
