REMARK  Name = =
REMARK  3 active torsions:
REMARK  status: ('A' for Active; 'I' for Inactive)
REMARK    1  A    between atoms: C_11  and  N_14
REMARK    2  A    between atoms: N_13  and  N_33
REMARK    3  A    between atoms: N_33  and  C_34
REMARK                            x       y       z     vdW  Elec       q    Type
REMARK                         _______ _______ _______ _____ _____    ______ ____
ROOT
ATOM      1  C   UNL     1      -9.582  -3.213  22.766  0.00  0.00    +0.211 C 
ATOM      2  N   UNL     1     -10.763  -3.344  23.542  0.00  0.00    -0.277 N 
ATOM      3  C   UNL     1     -11.935  -2.521  23.289  0.00  0.00    +0.111 C 
ATOM      4  C   UNL     1     -12.417  -1.912  24.600  0.00  0.00    +0.090 C 
ATOM      5  N   UNL     1     -12.514  -2.907  25.627  0.00  0.00    -0.295 NA
ATOM      6  C   UNL     1     -11.288  -3.593  25.898  0.00  0.00    +0.090 C 
ATOM      7  C   UNL     1     -10.835  -4.316  24.623  0.00  0.00    +0.111 C 
ATOM      8  N   UNL     1      -9.088  -4.398  22.125  0.00  0.00    -0.235 N 
ATOM      9  C   UNL     1      -7.808  -5.013  22.251  0.00  0.00    +0.073 C 
ATOM     10  C   UNL     1      -7.909  -6.291  21.531  0.00  0.00    +0.032 C 
ATOM     11  C   UNL     1      -9.086  -6.401  20.928  0.00  0.00    +0.065 C 
ATOM     12  C   UNL     1      -9.880  -5.166  21.211  0.00  0.00    +0.087 C 
ATOM     13  N   UNL     1      -8.964  -2.116  22.622  0.00  0.00    -0.154 NA
ATOM     14  H   UNL     1     -13.209  -3.596  25.340  0.00  0.00    +0.123 HD
ENDROOT
BRANCH  11  15
ATOM     15  N   UNL     1      -9.566  -7.470  20.142  0.00  0.00    -0.308 N 
ATOM     16  C   UNL     1     -10.555  -8.370  20.726  0.00  0.00    +0.078 C 
ATOM     17  C   UNL     1     -11.581  -8.704  19.704  0.00  0.00    +0.027 C 
ATOM     18  C   UNL     1     -11.005  -9.107  18.427  0.00  0.00    +0.068 C 
ATOM     19  C   UNL     1     -11.930  -9.597  17.333  0.00  0.00    +0.226 C 
ATOM     20  O   UNL     1     -11.060 -10.560  16.665  0.00  0.00    -0.472 OA
ATOM     21  C   UNL     1     -10.306 -11.200  17.675  0.00  0.00    +0.135 C 
ATOM     22  C   UNL     1     -10.271 -10.374  18.758  0.00  0.00    +0.011 C 
ATOM     23  C   UNL     1      -9.669 -10.582  19.963  0.00  0.00    -0.021 C 
ATOM     24  C   UNL     1      -9.013 -11.775  20.095  0.00  0.00    -0.004 C 
ATOM     25  C   UNL     1      -8.984 -12.700  19.036  0.00  0.00    +0.003 C 
ATOM     26  C   UNL     1      -9.636 -12.393  17.840  0.00  0.00    +0.037 C 
ATOM     27  C   UNL     1      -9.767  -9.624  21.069  0.00  0.00    +0.046 C 
ATOM     28  C   UNL     1     -13.120 -10.271  17.916  0.00  0.00    +0.191 C 
ATOM     29  O   UNL     1     -13.956 -10.729  17.168  0.00  0.00    -0.292 OA
ATOM     30  C   UNL     1     -13.295 -10.388  19.372  0.00  0.00    +0.068 C 
ATOM     31  C   UNL     1     -12.909  -9.113  20.093  0.00  0.00    +0.010 C 
ATOM     32  C   UNL     1     -10.126  -8.063  17.833  0.00  0.00    +0.030 C 
ATOM     33  C   UNL     1      -9.071  -7.645  18.804  0.00  0.00    +0.091 C 
ENDBRANCH  11  15
BRANCH  13  34
ATOM     34  N   UNL     1      -7.814  -2.035  21.854  0.00  0.00    -0.252 N 
ATOM     35  H   UNL     1      -7.819  -2.346  20.920  0.00  0.00    +0.169 HD
BRANCH  34  36
ATOM     36  C   UNL     1      -6.612  -1.493  22.431  0.00  0.00    +0.110 C 
ATOM     37  C   UNL     1      -6.606  -0.002  22.151  0.00  0.00    +0.034 C 
ATOM     38  C   UNL     1      -5.440   0.671  22.845  0.00  0.00    +0.071 C 
ATOM     39  C   UNL     1      -4.231  -0.189  22.698  0.00  0.00    +0.173 C 
ATOM     40  O   UNL     1      -3.154   0.220  23.205  0.00  0.00    -0.291 OA
ATOM     41  C   UNL     1      -4.233  -1.459  22.008  0.00  0.00    +0.035 C 
ATOM     42  C   UNL     1      -5.385  -2.116  21.865  0.00  0.00    -0.003 C 
ENDBRANCH  34  36
ENDBRANCH  13  34
TORSDOF 3
