REMARK  Name = =
REMARK  9 active torsions:
REMARK  status: ('A' for Active; 'I' for Inactive)
REMARK    1  A    between atoms: C_2  and  O_29
REMARK    2  A    between atoms: N_6  and  C_18
REMARK    3  A    between atoms: C_17  and  C_26
REMARK    4  A    between atoms: C_18  and  N_20
REMARK    5  A    between atoms: S_19  and  C_21
REMARK    6  A    between atoms: C_21  and  C_23
REMARK    7  A    between atoms: C_23  and  O_25
REMARK    8  A    between atoms: C_26  and  O_28
REMARK    9  A    between atoms: O_29  and  S_30
REMARK                            x       y       z     vdW  Elec       q    Type
REMARK                         _______ _______ _______ _____ _____    ______ ____
ROOT
ATOM      1  N   UNL     1     -11.315  -5.873  21.102  0.00  0.00    -0.261 N 
ATOM      2  C   UNL     1     -12.507  -5.522  21.852  0.00  0.00    +0.227 C 
ATOM      3  C   UNL     1     -12.947  -6.626  22.819  0.00  0.00    +0.132 C 
ATOM      4  C   UNL     1     -11.884  -6.707  23.857  0.00  0.00    +0.124 C 
ATOM      5  N   UNL     1     -10.607  -6.833  23.556  0.00  0.00    -0.127 NA
ATOM      6  N   UNL     1     -10.031  -7.326  22.353  0.00  0.00    -0.206 N 
ATOM      7  C   UNL     1     -10.782  -7.198  21.070  0.00  0.00    +0.143 C 
ATOM      8  C   UNL     1     -10.020  -7.638  19.936  0.00  0.00    +0.039 C 
ATOM      9  C   UNL     1     -10.714  -8.571  19.235  0.00  0.00    +0.004 C 
ATOM     10  C   UNL     1     -12.029  -8.816  19.876  0.00  0.00    +0.011 C 
ATOM     11  C   UNL     1     -11.838  -8.303  21.256  0.00  0.00    +0.093 C 
ATOM     12  C   UNL     1     -13.013  -7.844  21.970  0.00  0.00    +0.159 C 
ATOM     13  O   UNL     1     -14.065  -8.440  21.888  0.00  0.00    -0.296 OA
ATOM     14  S   UNL     1     -12.125  -4.079  22.870  0.00  0.00    -0.089 S 
ATOM     15  C   UNL     1     -10.397  -3.636  22.571  0.00  0.00    +0.089 C 
ATOM     16  C   UNL     1     -10.187  -3.744  21.108  0.00  0.00    +0.007 C 
ATOM     17  C   UNL     1     -10.639  -4.829  20.426  0.00  0.00    +0.124 C 
ENDROOT
BRANCH   6  18
ATOM     18  C   UNL     1      -8.783  -7.926  22.406  0.00  0.00    +0.131 C 
ATOM     19  S   UNL     1      -7.455  -6.936  22.468  0.00  0.00    -0.087 S 
ATOM     20  H   UNL     1      -7.592  -6.159  23.576  0.00  0.00    +0.107 HD
BRANCH  18  21
ATOM     21  N   UNL     1      -8.527  -9.316  22.413  0.00  0.00    -0.341 N 
ATOM     22  H   UNL     1      -9.275  -9.955  22.378  0.00  0.00    +0.144 HD
ATOM     23  H   UNL     1      -7.600  -9.646  22.453  0.00  0.00    +0.144 HD
ENDBRANCH  18  21
BRANCH  19  24
ATOM     24  C   UNL     1      -5.817  -7.661  22.538  0.00  0.00    +0.290 C 
ATOM     25  O   UNL     1      -5.526  -8.394  23.500  0.00  0.00    -0.273 OA
BRANCH  24  26
ATOM     26  C   UNL     1      -4.837  -7.384  21.467  0.00  0.00    +0.383 C 
ATOM     27  O   UNL     1      -5.242  -7.259  20.283  0.00  0.00    -0.241 OA
BRANCH  26  28
ATOM     28  O   UNL     1      -3.494  -7.273  21.815  0.00  0.00    -0.475 OA
ATOM     29  H   UNL     1      -3.232  -7.373  22.709  0.00  0.00    +0.296 HD
ENDBRANCH  26  28
ENDBRANCH  24  26
ENDBRANCH  19  24
ENDBRANCH   6  18
BRANCH  17  30
ATOM     30  C   UNL     1     -10.348  -4.858  19.018  0.00  0.00    +0.351 C 
ATOM     31  O   UNL     1      -9.189  -4.467  18.594  0.00  0.00    -0.244 OA
BRANCH  30  32
ATOM     32  O   UNL     1     -11.176  -5.256  18.009  0.00  0.00    -0.476 OA
ATOM     33  H   UNL     1     -12.041  -5.559  18.205  0.00  0.00    +0.295 HD
ENDBRANCH  30  32
ENDBRANCH  17  30
BRANCH   2  34
ATOM     34  O   UNL     1     -13.593  -5.160  21.039  0.00  0.00    -0.219 OA
BRANCH  34  35
ATOM     35  S   UNL     1     -14.682  -4.304  21.958  0.00  0.00    -0.027 S 
ATOM     36  O   UNL     1     -15.439  -3.275  21.167  0.00  0.00    -0.075 OA
ATOM     37  O   UNL     1     -15.733  -5.243  22.528  0.00  0.00    -0.075 OA
ATOM     38  H   UNL     1     -13.943  -3.691  22.922  0.00  0.00    +0.215 HD
ENDBRANCH  34  35
ENDBRANCH   2  34
TORSDOF 9
