REMARK  Name = =
REMARK  13 active torsions:
REMARK  status: ('A' for Active; 'I' for Inactive)
REMARK    1  A    between atoms: C_2  and  O_34
REMARK    2  A    between atoms: N_6  and  C_18
REMARK    3  A    between atoms: C_16  and  C_26
REMARK    4  A    between atoms: C_17  and  C_31
REMARK    5  A    between atoms: C_18  and  S_19
REMARK    6  A    between atoms: C_18  and  N_20
REMARK    7  A    between atoms: S_19  and  C_21
REMARK    8  A    between atoms: C_21  and  C_23
REMARK    9  A    between atoms: C_23  and  O_25
REMARK   10  A    between atoms: C_27  and  C_28
REMARK   11  A    between atoms: C_28  and  O_30
REMARK   12  A    between atoms: C_31  and  O_33
REMARK   13  A    between atoms: O_34  and  S_35
REMARK                            x       y       z     vdW  Elec       q    Type
REMARK                         _______ _______ _______ _____ _____    ______ ____
ROOT
ATOM      1  N   UNL     1     -10.485  -5.771  21.725  0.00  0.00    -0.264 N 
ATOM      2  C   UNL     1     -10.233  -6.158  20.339  0.00  0.00    +0.227 C 
ATOM      3  C   UNL     1     -11.116  -7.291  19.869  0.00  0.00    +0.131 C 
ATOM      4  C   UNL     1     -12.480  -6.688  19.631  0.00  0.00    +0.120 C 
ATOM      5  N   UNL     1     -12.972  -5.784  20.449  0.00  0.00    -0.143 NA
ATOM      6  N   UNL     1     -12.829  -5.678  21.861  0.00  0.00    -0.168 NA
ATOM      7  C   UNL     1     -11.600  -6.273  22.495  0.00  0.00    +0.130 C 
ATOM      8  C   UNL     1     -11.585  -6.139  23.909  0.00  0.00    +0.036 C 
ATOM      9  C   UNL     1     -11.507  -7.339  24.522  0.00  0.00    +0.004 C 
ATOM     10  C   UNL     1     -11.451  -8.413  23.512  0.00  0.00    +0.010 C 
ATOM     11  C   UNL     1     -11.887  -7.763  22.252  0.00  0.00    +0.090 C 
ATOM     12  C   UNL     1     -11.308  -8.248  21.003  0.00  0.00    +0.159 C 
ATOM     13  O   UNL     1     -10.980  -9.388  20.853  0.00  0.00    -0.296 OA
ATOM     14  S   UNL     1     -10.895  -4.666  19.447  0.00  0.00    -0.089 S 
ATOM     15  C   UNL     1     -10.418  -3.259  20.415  0.00  0.00    +0.089 C 
ATOM     16  C   UNL     1      -9.634  -3.552  21.638  0.00  0.00    +0.009 C 
ATOM     17  C   UNL     1      -9.643  -4.728  22.286  0.00  0.00    +0.124 C 
ENDROOT
BRANCH  16  18
ATOM     18  C   UNL     1      -8.779  -2.468  22.071  0.00  0.00    +0.005 C 
ATOM     19  C   UNL     1      -8.958  -1.185  21.715  0.00  0.00    +0.081 C 
BRANCH  19  20
ATOM     20  C   UNL     1      -8.017  -0.199  22.226  0.00  0.00    +0.338 C 
ATOM     21  O   UNL     1      -7.051  -0.482  22.980  0.00  0.00    -0.245 OA
BRANCH  20  22
ATOM     22  O   UNL     1      -8.187   1.125  21.868  0.00  0.00    -0.477 OA
ATOM     23  H   UNL     1      -8.896   1.371  21.308  0.00  0.00    +0.295 HD
ENDBRANCH  20  22
ENDBRANCH  19  20
ENDBRANCH  16  18
BRANCH  17  24
ATOM     24  C   UNL     1      -8.955  -4.963  23.506  0.00  0.00    +0.351 C 
ATOM     25  O   UNL     1      -8.092  -5.862  23.646  0.00  0.00    -0.244 OA
BRANCH  24  26
ATOM     26  O   UNL     1      -9.169  -4.234  24.658  0.00  0.00    -0.476 OA
ATOM     27  H   UNL     1      -9.795  -3.537  24.662  0.00  0.00    +0.295 HD
ENDBRANCH  24  26
ENDBRANCH  17  24
BRANCH   6  28
ATOM     28  C   UNL     1     -13.815  -5.054  22.593  0.00  0.00    +0.173 C 
BRANCH  28  29
ATOM     29  N   UNL     1     -14.980  -5.703  23.040  0.00  0.00    -0.300 NA
ATOM     30  H   UNL     1     -14.964  -6.677  22.737  0.00  0.00    +0.121 HD
ATOM     31  H   UNL     1     -15.799  -5.238  22.649  0.00  0.00    +0.121 HD
ENDBRANCH  28  29
BRANCH  28  32
ATOM     32  S   UNL     1     -13.694  -3.451  23.011  0.00  0.00    -0.107 S 
ATOM     33  H   UNL     1     -13.585  -2.750  21.851  0.00  0.00    +0.103 HD
BRANCH  32  34
ATOM     34  C   UNL     1     -14.996  -2.674  23.964  0.00  0.00    +0.287 C 
ATOM     35  O   UNL     1     -15.827  -1.883  23.442  0.00  0.00    -0.274 OA
BRANCH  34  36
ATOM     36  C   UNL     1     -15.129  -2.944  25.398  0.00  0.00    +0.383 C 
ATOM     37  O   UNL     1     -15.093  -4.132  25.804  0.00  0.00    -0.241 OA
BRANCH  36  38
ATOM     38  O   UNL     1     -15.292  -1.950  26.332  0.00  0.00    -0.475 OA
ATOM     39  H   UNL     1     -15.323  -1.053  26.061  0.00  0.00    +0.296 HD
ENDBRANCH  36  38
ENDBRANCH  34  36
ENDBRANCH  32  34
ENDBRANCH  28  32
ENDBRANCH   6  28
BRANCH   2  40
ATOM     40  O   UNL     1      -8.957  -6.237  19.924  0.00  0.00    -0.219 OA
BRANCH  40  41
ATOM     41  S   UNL     1      -8.012  -7.502  20.310  0.00  0.00    -0.027 S 
ATOM     42  O   UNL     1      -8.081  -8.636  19.293  0.00  0.00    -0.075 OA
ATOM     43  O   UNL     1      -8.136  -8.066  21.668  0.00  0.00    -0.075 OA
ATOM     44  H   UNL     1      -6.791  -6.904  20.283  0.00  0.00    +0.215 HD
ENDBRANCH  40  41
ENDBRANCH   2  40
TORSDOF 13
