REMARK  Name = =
REMARK  0 active torsions:
REMARK  status: ('A' for Active; 'I' for Inactive)
REMARK                            x       y       z     vdW  Elec       q    Type
REMARK                         _______ _______ _______ _____ _____    ______ ____
ROOT
ATOM      1  C   UNL     1      -4.455  -3.847  30.850  0.00  0.00    +0.069 C 
ATOM      2  C   UNL     1      -3.976  -4.979  31.770  0.00  0.00    +0.013 C 
ATOM      3  C   UNL     1      -3.189  -5.930  30.890  0.00  0.00    +0.027 C 
ATOM      4  C   UNL     1      -1.929  -5.245  30.527  0.00  0.00    -0.019 C 
ATOM      5  C   UNL     1      -1.946  -3.895  30.262  0.00  0.00    +0.031 C 
ATOM      6  C   UNL     1      -0.777  -3.248  29.921  0.00  0.00    +0.003 C 
ATOM      7  C   UNL     1       0.395  -3.966  29.850  0.00  0.00    +0.000 C 
ATOM      8  C   UNL     1       0.428  -5.337  30.116  0.00  0.00    -0.000 C 
ATOM      9  C   UNL     1      -0.770  -5.974  30.460  0.00  0.00    -0.004 C 
ATOM     10  C   UNL     1      -3.220  -3.180  30.353  0.00  0.00    +0.173 C 
ATOM     11  O   UNL     1      -3.299  -1.977  30.011  0.00  0.00    -0.291 OA
ENDROOT
TORSDOF 0
