REMARK  Name = =
REMARK  1 active torsions:
REMARK  status: ('A' for Active; 'I' for Inactive)
REMARK    1  A    between atoms: C_8  and  C_12
REMARK                            x       y       z     vdW  Elec       q    Type
REMARK                         _______ _______ _______ _____ _____    ______ ____
ROOT
ATOM      1  C   UNL     1      -4.453  -3.678  31.059  0.00  0.00    +0.069 C 
ATOM      2  C   UNL     1      -3.943  -4.925  31.744  0.00  0.00    +0.013 C 
ATOM      3  C   UNL     1      -3.197  -5.741  30.694  0.00  0.00    +0.027 C 
ATOM      4  C   UNL     1      -1.943  -5.011  30.337  0.00  0.00    -0.019 C 
ATOM      5  C   UNL     1      -2.040  -3.640  30.218  0.00  0.00    +0.031 C 
ATOM      6  C   UNL     1      -0.900  -2.920  29.890  0.00  0.00    +0.003 C 
ATOM      7  C   UNL     1       0.282  -3.626  29.698  0.00  0.00    +0.000 C 
ATOM      8  C   UNL     1       0.400  -4.990  29.812  0.00  0.00    -0.000 C 
ATOM      9  C   UNL     1      -0.773  -5.687  30.145  0.00  0.00    -0.004 C 
ATOM     10  C   UNL     1      -3.318  -2.961  30.433  0.00  0.00    +0.173 C 
ATOM     11  O   UNL     1      -3.417  -1.762  30.069  0.00  0.00    -0.291 OA
ENDROOT
BRANCH   8  12
ATOM     12  C   UNL     1       1.640  -5.721  29.610  0.00  0.00    -0.000 C 
ATOM     13  C   UNL     1       2.755  -5.129  29.254  0.00  0.00    -0.000 C 
ENDBRANCH   8  12
TORSDOF 1
