REMARK  Name = =
REMARK  2 active torsions:
REMARK  status: ('A' for Active; 'I' for Inactive)
REMARK    1  A    between atoms: N_1  and  O_8
REMARK    2  A    between atoms: O_8  and  C_11
REMARK                            x       y       z     vdW  Elec       q    Type
REMARK                         _______ _______ _______ _____ _____    ______ ____
ROOT
ATOM      1  N   UNL     1     -14.944   1.858  27.887  0.00  0.00    -0.202 N 
ATOM      2  C   UNL     1     -15.046   2.970  28.754  0.00  0.00    +0.170 C 
ATOM      3  N   UNL     1     -15.546   2.917  29.990  0.00  0.00    -0.224 NA
ATOM      4  C   UNL     1     -15.647   3.961  30.828  0.00  0.00    +0.101 C 
ATOM      5  C   UNL     1     -15.207   5.199  30.405  0.00  0.00    +0.021 C 
ATOM      6  C   UNL     1     -14.680   5.318  29.135  0.00  0.00    +0.005 C 
ATOM      7  C   UNL     1     -14.601   4.207  28.317  0.00  0.00    +0.039 C 
ATOM      8  H   UNL     1     -15.754   1.389  27.583  0.00  0.00    +0.209 HD
ENDROOT
BRANCH   1   9
ATOM      9  O   UNL     1     -13.702   1.438  27.473  0.00  0.00    -0.377 OA
BRANCH   9  12
ATOM     10  C   UNL     1     -12.543  -1.029  29.930  0.00  0.00    +0.102 C 
ATOM     11  C   UNL     1     -13.370  -0.367  29.033  0.00  0.00    +0.061 C 
ATOM     12  C   UNL     1     -12.892   0.746  28.383  0.00  0.00    +0.176 C 
ATOM     13  C   UNL     1     -11.612   1.225  28.597  0.00  0.00    +0.061 C 
ATOM     14  C   UNL     1     -10.821   0.539  29.497  0.00  0.00    +0.102 C 
ATOM     15  N   UNL     1     -11.301  -0.543  30.121  0.00  0.00    -0.242 NA
ENDBRANCH   9  12
ENDBRANCH   1   9
TORSDOF 2
