REMARK  Name = =
REMARK  2 active torsions:
REMARK  status: ('A' for Active; 'I' for Inactive)
REMARK    1  A    between atoms: C_8  and  C_12
REMARK    2  A    between atoms: C_13  and  C_14
REMARK                            x       y       z     vdW  Elec       q    Type
REMARK                         _______ _______ _______ _____ _____    ______ ____
ROOT
ATOM      1  C   UNL     1      -2.524  -8.874  32.091  0.00  0.00    +0.069 C 
ATOM      2  C   UNL     1      -3.247  -8.284  33.275  0.00  0.00    +0.013 C 
ATOM      3  C   UNL     1      -4.370  -7.421  32.716  0.00  0.00    +0.027 C 
ATOM      4  C   UNL     1      -3.722  -6.314  31.967  0.00  0.00    -0.019 C 
ATOM      5  C   UNL     1      -2.523  -6.433  31.304  0.00  0.00    +0.031 C 
ATOM      6  C   UNL     1      -1.946  -5.388  30.617  0.00  0.00    +0.003 C 
ATOM      7  C   UNL     1      -2.596  -4.177  30.594  0.00  0.00    +0.000 C 
ATOM      8  C   UNL     1      -3.798  -4.006  31.242  0.00  0.00    -0.001 C 
ATOM      9  C   UNL     1      -4.351  -5.095  31.929  0.00  0.00    -0.004 C 
ATOM     10  C   UNL     1      -1.873  -7.755  31.363  0.00  0.00    +0.173 C 
ATOM     11  O   UNL     1      -0.772  -7.855  30.774  0.00  0.00    -0.291 OA
ENDROOT
BRANCH   8  12
ATOM     12  C   UNL     1      -4.487  -2.732  31.222  0.00  0.00    -0.003 C 
ATOM     13  C   UNL     1      -5.268  -2.285  32.182  0.00  0.00    -0.009 C 
BRANCH  13  14
ATOM     14  C   UNL     1      -5.930  -0.972  32.077  0.00  0.00    +0.094 C 
ATOM     15  C   UNL     1      -7.228  -0.743  32.163  0.00  0.00    +0.090 C 
ATOM     16  N   UNL     1      -7.462   0.662  32.010  0.00  0.00    -0.282 NA
ATOM     17  C   UNL     1      -6.281   1.189  31.403  0.00  0.00    +0.143 C 
ATOM     18  N   UNL     1      -5.250   0.252  31.863  0.00  0.00    -0.280 NA
ATOM     19  H   UNL     1      -7.619   1.097  32.919  0.00  0.00    +0.125 HD
ATOM     20  H   UNL     1      -4.827   0.583  32.730  0.00  0.00    +0.125 HD
ENDBRANCH  13  14
ENDBRANCH   8  12
TORSDOF 2
