REMARK  Name = =
REMARK  3 active torsions:
REMARK  status: ('A' for Active; 'I' for Inactive)
REMARK    1  A    between atoms: N_1  and  C_19
REMARK    2  A    between atoms: C_21  and  O_25
REMARK    3  A    between atoms: O_25  and  N_26
REMARK                            x       y       z     vdW  Elec       q    Type
REMARK                         _______ _______ _______ _____ _____    ______ ____
ROOT
ATOM      1  N   UNL     1     -13.190  -8.246  19.094  0.00  0.00    -0.294 N 
ATOM      2  C   UNL     1     -11.834  -8.434  19.491  0.00  0.00    +0.079 C 
ATOM      3  C   UNL     1     -10.979  -7.333  19.031  0.00  0.00    +0.026 C 
ATOM      4  C   UNL     1     -11.405  -6.108  19.816  0.00  0.00    +0.061 C 
ATOM      5  C   UNL     1     -10.629  -4.899  19.390  0.00  0.00    +0.170 C 
ATOM      6  O   UNL     1     -10.318  -4.301  20.677  0.00  0.00    -0.479 OA
ATOM      7  C   UNL     1     -10.231  -5.315  21.647  0.00  0.00    +0.134 C 
ATOM      8  C   UNL     1     -10.844  -6.412  21.162  0.00  0.00    +0.011 C 
ATOM      9  C   UNL     1     -11.013  -7.625  21.702  0.00  0.00    -0.021 C 
ATOM     10  C   UNL     1     -10.478  -7.795  22.976  0.00  0.00    -0.004 C 
ATOM     11  C   UNL     1      -9.821  -6.715  23.579  0.00  0.00    +0.003 C 
ATOM     12  C   UNL     1      -9.695  -5.481  22.922  0.00  0.00    +0.037 C 
ATOM     13  C   UNL     1     -11.669  -8.731  20.957  0.00  0.00    +0.046 C 
ATOM     14  C   UNL     1      -9.347  -5.334  18.724  0.00  0.00    +0.044 C 
ATOM     15  C   UNL     1      -9.663  -6.064  17.437  0.00  0.00    +0.004 C 
ATOM     16  C   UNL     1     -10.853  -7.005  17.618  0.00  0.00    +0.002 C 
ATOM     17  C   UNL     1     -12.870  -5.927  19.914  0.00  0.00    +0.029 C 
ATOM     18  C   UNL     1     -13.733  -6.952  19.275  0.00  0.00    +0.093 C 
ENDROOT
BRANCH   1  19
ATOM     19  C   UNL     1     -14.048  -9.314  19.349  0.00  0.00    +0.135 C 
ATOM     20  C   UNL     1     -14.743  -9.309  20.549  0.00  0.00    +0.074 C 
ATOM     21  C   UNL     1     -15.614 -10.294  20.918  0.00  0.00    +0.177 C 
ATOM     22  C   UNL     1     -15.803 -11.347  20.042  0.00  0.00    +0.061 C 
ATOM     23  C   UNL     1     -15.114 -11.359  18.845  0.00  0.00    +0.104 C 
ATOM     24  N   UNL     1     -14.270 -10.359  18.537  0.00  0.00    -0.229 NA
BRANCH  21  25
ATOM     25  O   UNL     1     -16.288 -10.238  22.141  0.00  0.00    -0.377 OA
BRANCH  25  26
ATOM     26  N   UNL     1     -16.687  -9.038  22.664  0.00  0.00    -0.202 N 
ATOM     27  C   UNL     1     -17.619  -8.940  23.738  0.00  0.00    +0.170 C 
ATOM     28  N   UNL     1     -17.983  -7.755  24.219  0.00  0.00    -0.224 NA
ATOM     29  C   UNL     1     -18.858  -7.597  25.231  0.00  0.00    +0.101 C 
ATOM     30  C   UNL     1     -19.416  -8.713  25.812  0.00  0.00    +0.021 C 
ATOM     31  C   UNL     1     -19.062  -9.961  25.340  0.00  0.00    +0.005 C 
ATOM     32  C   UNL     1     -18.158 -10.085  24.297  0.00  0.00    +0.039 C 
ATOM     33  H   UNL     1     -16.316  -8.210  22.283  0.00  0.00    +0.209 HD
ENDBRANCH  25  26
ENDBRANCH  21  25
ENDBRANCH   1  19
TORSDOF 3
