REMARK  Name = =
REMARK  3 active torsions:
REMARK  status: ('A' for Active; 'I' for Inactive)
REMARK    1  A    between atoms: C_1  and  C_14
REMARK    2  A    between atoms: C_8  and  C_17
REMARK    3  A    between atoms: C_18  and  C_19
REMARK                            x       y       z     vdW  Elec       q    Type
REMARK                         _______ _______ _______ _____ _____    ______ ____
ROOT
ATOM      1  C   UNL     1      -2.055  -8.048  31.902  0.00  0.00    +0.140 C 
ATOM      2  C   UNL     1      -3.546  -8.231  32.073  0.00  0.00    +0.022 C 
ATOM      3  C   UNL     1      -4.114  -7.225  33.070  0.00  0.00    +0.027 C 
ATOM      4  C   UNL     1      -3.912  -5.829  32.570  0.00  0.00    -0.019 C 
ATOM      5  C   UNL     1      -2.673  -5.560  32.016  0.00  0.00    +0.031 C 
ATOM      6  C   UNL     1      -2.413  -4.289  31.532  0.00  0.00    +0.003 C 
ATOM      7  C   UNL     1      -3.417  -3.350  31.633  0.00  0.00    +0.000 C 
ATOM      8  C   UNL     1      -4.643  -3.612  32.180  0.00  0.00    -0.001 C 
ATOM      9  C   UNL     1      -4.894  -4.885  32.661  0.00  0.00    -0.004 C 
ATOM     10  C   UNL     1      -1.684  -6.622  31.958  0.00  0.00    +0.181 C 
ATOM     11  O   UNL     1      -0.473  -6.310  31.954  0.00  0.00    -0.291 OA
ENDROOT
BRANCH   1  14
ATOM     12  N   UNL     1      -1.499  -8.867  28.408  0.00  0.00    -0.102 NA
ATOM     13  N   UNL     1      -2.112  -8.191  29.372  0.00  0.00    -0.111 NA
ATOM     14  C   UNL     1      -1.636  -8.565  30.573  0.00  0.00    +0.233 C 
ATOM     15  O   UNL     1      -0.727  -9.476  30.326  0.00  0.00    -0.416 OA
ATOM     16  C   UNL     1      -0.626  -9.677  29.032  0.00  0.00    +0.306 C 
ENDBRANCH   1  14
BRANCH   8  17
ATOM     17  C   UNL     1      -5.673  -2.594  32.267  0.00  0.00    -0.003 C 
ATOM     18  C   UNL     1      -5.634  -1.439  31.645  0.00  0.00    -0.009 C 
BRANCH  18  19
ATOM     19  C   UNL     1      -6.713  -0.456  31.779  0.00  0.00    +0.094 C 
ATOM     20  C   UNL     1      -6.748   0.748  31.232  0.00  0.00    +0.090 C 
ATOM     21  N   UNL     1      -7.955   1.408  31.588  0.00  0.00    -0.282 NA
ATOM     22  C   UNL     1      -8.847   0.405  32.115  0.00  0.00    +0.143 C 
ATOM     23  N   UNL     1      -7.928  -0.634  32.533  0.00  0.00    -0.280 NA
ATOM     24  H   UNL     1      -8.369   1.847  30.766  0.00  0.00    +0.125 HD
ATOM     25  H   UNL     1      -7.736  -0.550  33.531  0.00  0.00    +0.125 HD
ENDBRANCH  18  19
ENDBRANCH   8  17
TORSDOF 3
