REMARK  Name = =
REMARK  4 active torsions:
REMARK  status: ('A' for Active; 'I' for Inactive)
REMARK    1  A    between atoms: C_1  and  N_12
REMARK    2  A    between atoms: C_1  and  C_25
REMARK    3  A    between atoms: C_8  and  C_28
REMARK    4  A    between atoms: C_29  and  C_30
REMARK                            x       y       z     vdW  Elec       q    Type
REMARK                         _______ _______ _______ _____ _____    ______ ____
ROOT
ATOM      1  C   UNL     1       2.430  -4.008  27.283  0.00  0.00    +0.192 C 
ATOM      2  C   UNL     1       2.449  -3.691  28.740  0.00  0.00    +0.040 C 
ATOM      3  C   UNL     1       1.573  -2.576  29.182  0.00  0.00    +0.029 C 
ATOM      4  C   UNL     1       0.285  -2.477  28.484  0.00  0.00    -0.019 C 
ATOM      5  C   UNL     1       0.067  -2.988  27.246  0.00  0.00    +0.033 C 
ATOM      6  C   UNL     1      -1.164  -2.844  26.683  0.00  0.00    +0.003 C 
ATOM      7  C   UNL     1      -2.189  -2.198  27.334  0.00  0.00    +0.000 C 
ATOM      8  C   UNL     1      -2.007  -1.654  28.613  0.00  0.00    -0.001 C 
ATOM      9  C   UNL     1      -0.752  -1.815  29.157  0.00  0.00    -0.004 C 
ATOM     10  C   UNL     1       1.184  -3.666  26.596  0.00  0.00    +0.198 C 
ATOM     11  O   UNL     1       1.065  -3.971  25.378  0.00  0.00    -0.289 OA
ENDROOT
BRANCH   1  12
ATOM     12  N   UNL     1       3.599  -3.429  26.624  0.00  0.00    -0.211 N 
ATOM     13  C   UNL     1       4.719  -4.181  26.159  0.00  0.00    +0.256 C 
ATOM     14  O   UNL     1       4.880  -5.428  26.235  0.00  0.00    -0.269 OA
ATOM     15  C   UNL     1       5.698  -3.290  25.557  0.00  0.00    +0.058 C 
ATOM     16  C   UNL     1       5.203  -2.010  25.644  0.00  0.00    +0.058 C 
ATOM     17  C   UNL     1       5.952  -0.966  25.138  0.00  0.00    +0.005 C 
ATOM     18  C   UNL     1       7.178  -1.175  24.551  0.00  0.00    +0.000 C 
ATOM     19  C   UNL     1       7.658  -2.468  24.473  0.00  0.00    +0.000 C 
ATOM     20  C   UNL     1       6.923  -3.523  24.973  0.00  0.00    +0.005 C 
ATOM     21  C   UNL     1       3.888  -2.085  26.311  0.00  0.00    +0.256 C 
ATOM     22  O   UNL     1       3.162  -1.108  26.552  0.00  0.00    -0.269 OA
ENDBRANCH   1  12
BRANCH   1  25
ATOM     23  N   UNL     1       2.965  -7.616  27.577  0.00  0.00    -0.102 NA
ATOM     24  N   UNL     1       2.903  -6.388  28.088  0.00  0.00    -0.109 NA
ATOM     25  C   UNL     1       2.597  -5.501  27.129  0.00  0.00    +0.250 C 
ATOM     26  O   UNL     1       2.475  -6.207  26.030  0.00  0.00    -0.414 OA
ATOM     27  C   UNL     1       2.693  -7.482  26.282  0.00  0.00    +0.306 C 
ENDBRANCH   1  25
BRANCH   8  28
ATOM     28  C   UNL     1      -3.118  -0.980  29.260  0.00  0.00    -0.003 C 
ATOM     29  C   UNL     1      -3.238   0.327  29.290  0.00  0.00    -0.009 C 
BRANCH  29  30
ATOM     30  C   UNL     1      -4.382   0.932  29.959  0.00  0.00    +0.094 C 
ATOM     31  C   UNL     1      -4.687   0.780  31.239  0.00  0.00    +0.090 C 
ATOM     32  N   UNL     1      -5.854   1.509  31.528  0.00  0.00    -0.282 NA
ATOM     33  C   UNL     1      -6.158   2.344  30.375  0.00  0.00    +0.143 C 
ATOM     34  N   UNL     1      -5.334   1.769  29.336  0.00  0.00    -0.280 NA
ATOM     35  H   UNL     1      -5.702   2.094  32.349  0.00  0.00    +0.125 HD
ATOM     36  H   UNL     1      -5.911   1.223  28.697  0.00  0.00    +0.125 HD
ENDBRANCH  29  30
ENDBRANCH   8  28
TORSDOF 4
