REMARK  Name = =
REMARK  6 active torsions:
REMARK  status: ('A' for Active; 'I' for Inactive)
REMARK    1  A    between atoms: C_1  and  N_12
REMARK    2  A    between atoms: C_1  and  C_25
REMARK    3  A    between atoms: C_8  and  C_28
REMARK    4  A    between atoms: C_29  and  C_30
REMARK    5  A    between atoms: N_32  and  P_35
REMARK    6  A    between atoms: P_35  and  O_45
REMARK                            x       y       z     vdW  Elec       q    Type
REMARK                         _______ _______ _______ _____ _____    ______ ____
ROOT
ATOM      1  C   UNL     1       2.916  -3.663  25.262  0.00  0.00    +0.192 C 
ATOM      2  C   UNL     1       3.155  -4.989  24.557  0.00  0.00    +0.040 C 
ATOM      3  C   UNL     1       1.935  -5.870  24.669  0.00  0.00    +0.029 C 
ATOM      4  C   UNL     1       1.718  -6.257  26.104  0.00  0.00    -0.019 C 
ATOM      5  C   UNL     1       2.016  -5.308  27.053  0.00  0.00    +0.033 C 
ATOM      6  C   UNL     1       1.826  -5.639  28.367  0.00  0.00    +0.003 C 
ATOM      7  C   UNL     1       1.349  -6.894  28.691  0.00  0.00    +0.000 C 
ATOM      8  C   UNL     1       1.039  -7.859  27.795  0.00  0.00    -0.001 C 
ATOM      9  C   UNL     1       1.246  -7.495  26.447  0.00  0.00    -0.004 C 
ATOM     10  C   UNL     1       2.521  -3.980  26.658  0.00  0.00    +0.198 C 
ATOM     11  O   UNL     1       2.605  -3.104  27.584  0.00  0.00    -0.289 OA
ENDROOT
BRANCH   1  12
ATOM     12  N   UNL     1       4.109  -2.867  25.176  0.00  0.00    -0.211 N 
ATOM     13  C   UNL     1       4.198  -1.502  24.756  0.00  0.00    +0.256 C 
ATOM     14  O   UNL     1       3.256  -0.737  24.383  0.00  0.00    -0.269 OA
ATOM     15  C   UNL     1       5.593  -1.083  24.815  0.00  0.00    +0.058 C 
ATOM     16  C   UNL     1       6.362  -2.127  25.252  0.00  0.00    +0.058 C 
ATOM     17  C   UNL     1       7.735  -2.002  25.401  0.00  0.00    +0.005 C 
ATOM     18  C   UNL     1       8.352  -0.810  25.108  0.00  0.00    +0.000 C 
ATOM     19  C   UNL     1       7.570   0.238  24.668  0.00  0.00    +0.000 C 
ATOM     20  C   UNL     1       6.207   0.133  24.514  0.00  0.00    +0.005 C 
ATOM     21  C   UNL     1       5.451  -3.248  25.481  0.00  0.00    +0.256 C 
ATOM     22  O   UNL     1       5.848  -4.364  25.890  0.00  0.00    -0.269 OA
ENDBRANCH   1  12
BRANCH   1  25
ATOM     23  N   UNL     1       0.553  -2.018  23.030  0.00  0.00    -0.102 NA
ATOM     24  N   UNL     1       1.619  -2.763  23.258  0.00  0.00    -0.109 NA
ATOM     25  C   UNL     1       1.814  -2.895  24.581  0.00  0.00    +0.250 C 
ATOM     26  O   UNL     1       0.848  -2.217  25.165  0.00  0.00    -0.414 OA
ATOM     27  C   UNL     1       0.084  -1.685  24.245  0.00  0.00    +0.306 C 
ENDBRANCH   1  25
BRANCH   8  28
ATOM     28  C   UNL     1       0.461  -9.137  28.049  0.00  0.00    -0.003 C 
ATOM     29  C   UNL     1       0.344 -10.248  27.440  0.00  0.00    -0.009 C 
BRANCH  29  30
ATOM     30  C   UNL     1       0.737 -10.805  26.192  0.00  0.00    +0.094 C 
ATOM     31  C   UNL     1       1.557 -11.867  26.022  0.00  0.00    +0.105 C 
ATOM     32  N   UNL     1       1.729 -12.153  24.674  0.00  0.00    -0.168 NA
ATOM     33  C   UNL     1       0.561 -11.504  24.028  0.00  0.00    +0.156 C 
ATOM     34  N   UNL     1       0.497 -10.338  24.887  0.00  0.00    -0.280 NA
ATOM     35  H   UNL     1      -0.425  -9.905  24.829  0.00  0.00    +0.125 HD
BRANCH  32  36
ATOM     36  P   UNL     1       2.867 -12.998  23.772  0.00  0.00    +0.377 P 
ATOM     37  O   UNL     1       2.173 -12.923  22.579  0.00  0.00    -0.125 OA
ATOM     38  O   UNL     1       3.807 -13.371  24.932  0.00  0.00    -0.280 OA
ATOM     39  C   UNL     1       4.099 -12.270  25.773  0.00  0.00    +0.158 C 
ATOM     40  C   UNL     1       5.183 -11.497  25.028  0.00  0.00    +0.173 C 
ATOM     41  O   UNL     1       6.332 -12.226  25.120  0.00  0.00    -0.351 OA
ATOM     42  C   UNL     1       6.228 -13.159  26.112  0.00  0.00    +0.145 C 
ATOM     43  C   UNL     1       4.926 -12.919  26.855  0.00  0.00    +0.065 C 
ATOM     44  C   UNL     1       4.670 -11.266  23.650  0.00  0.00    +0.185 C 
ATOM     45  O   UNL     1       4.100 -12.307  23.010  0.00  0.00    -0.277 OA
BRANCH  36  46
ATOM     46  O   UNL     1       2.575 -14.659  23.639  0.00  0.00    -0.309 OA
ATOM     47  H   UNL     1       1.794 -14.893  24.164  0.00  0.00    +0.222 HD
ENDBRANCH  36  46
ENDBRANCH  32  36
ENDBRANCH  29  30
ENDBRANCH   8  28
TORSDOF 6
