REMARK  Name = =
REMARK  0 active torsions:
REMARK  status: ('A' for Active; 'I' for Inactive)
REMARK                            x       y       z     vdW  Elec       q    Type
REMARK                         _______ _______ _______ _____ _____    ______ ____
ROOT
ATOM      1  N   UNL     1      50.968 155.784  28.790  0.00  0.00    -0.280 N 
ATOM      2  C   UNL     1      50.598 156.915  29.424  0.00  0.00    +0.050 C 
ATOM      3  C   UNL     1      51.467 157.992  29.507  0.00  0.00    +0.014 C 
ATOM      4  C   UNL     1      51.072 159.147  30.162  0.00  0.00    +0.001 C 
ATOM      5  C   UNL     1      49.827 159.265  30.743  0.00  0.00    +0.000 C 
ATOM      6  C   UNL     1      48.954 158.202  30.667  0.00  0.00    +0.001 C 
ATOM      7  C   UNL     1      49.346 157.052  30.016  0.00  0.00    +0.015 C 
ATOM      8  C   UNL     1      52.700 157.849  28.921  0.00  0.00    +0.006 C 
ATOM      9  C   UNL     1      53.105 156.699  28.264  0.00  0.00    +0.058 C 
ATOM     10  C   UNL     1      52.183 155.666  28.222  0.00  0.00    +0.250 C 
ATOM     11  O   UNL     1      52.434 154.572  27.655  0.00  0.00    -0.270 OA
ATOM     12  H   UNL     1      50.337 155.030  28.741  0.00  0.00    +0.155 HD
ENDROOT
TORSDOF 0
