REMARK  Name = =
REMARK  1 active torsions:
REMARK  status: ('A' for Active; 'I' for Inactive)
REMARK    1  A    between atoms: C_1  and  S_6
REMARK                            x       y       z     vdW  Elec       q    Type
REMARK                         _______ _______ _______ _____ _____    ______ ____
ROOT
ATOM      1  C   UNL     1      51.270 157.007  29.413  0.00  0.00    +0.204 A 
ATOM      2  N   UNL     1      52.469 157.134  28.840  0.00  0.00    -0.234 N 
ATOM      3  N   UNL     1      52.797 155.964  28.348  0.00  0.00    -0.046 NA
ATOM      4  N   UNL     1      51.818 155.081  28.600  0.00  0.00    -0.022 NA
ATOM      5  N   UNL     1      50.881 155.722  29.253  0.00  0.00    -0.102 NA
ATOM      6  H   UNL     1      53.008 157.956  28.795  0.00  0.00    +0.193 HD
ENDROOT
BRANCH   1   7
ATOM      7  S   UNL     1      50.309 158.265  30.249  0.00  0.00    -0.102 S 
ATOM      8  H   UNL     1      50.990 159.442  30.231  0.00  0.00    +0.110 HD
ENDBRANCH   1   7
TORSDOF 1
