REMARK  Name = =
REMARK  2 active torsions:
REMARK  status: ('A' for Active; 'I' for Inactive)
REMARK    1  A    between atoms: C_1  and  N_3
REMARK    2  A    between atoms: C_1  and  N_4
REMARK                            x       y       z     vdW  Elec       q    Type
REMARK                         _______ _______ _______ _____ _____    ______ ____
ROOT
ATOM      1  C   UNL     1      52.700 154.667  28.206  0.00  0.00    +0.125 C 
ATOM      2  S   UNL     1      51.563 155.268  29.185  0.00  0.00    -0.019 S 
ENDROOT
BRANCH   1   3
ATOM      3  N   UNL     1      53.473 153.556  28.681  0.00  0.00    -0.341 N 
ATOM      4  H   UNL     1      53.301 153.184  29.576  0.00  0.00    +0.144 HD
ATOM      5  H   UNL     1      54.175 153.166  28.112  0.00  0.00    +0.144 HD
ENDBRANCH   1   3
BRANCH   1   6
ATOM      6  N   UNL     1      52.948 155.192  26.933  0.00  0.00    -0.341 N 
ATOM      7  H   UNL     1      53.650 154.798  26.366  0.00  0.00    +0.144 HD
ATOM      8  H   UNL     1      52.421 155.956  26.604  0.00  0.00    +0.144 HD
ENDBRANCH   1   6
TORSDOF 2
