REMARK  Name = =
REMARK  1 active torsions:
REMARK  status: ('A' for Active; 'I' for Inactive)
REMARK    1  A    between atoms: N_1  and  N_11
REMARK                            x       y       z     vdW  Elec       q    Type
REMARK                         _______ _______ _______ _____ _____    ______ ____
ROOT
ATOM      1  N   UNL     1      51.398 155.909  28.751  0.00  0.00    -0.199 N 
ATOM      2  C   UNL     1      51.040 157.156  29.067  0.00  0.00    +0.100 A 
ATOM      3  C   UNL     1      50.539 157.112  30.354  0.00  0.00    +0.078 A 
ATOM      4  C   UNL     1      50.093 158.284  30.930  0.00  0.00    +0.019 C 
ATOM      5  C   UNL     1      50.128 159.489  30.270  0.00  0.00    +0.002 C 
ATOM      6  C   UNL     1      50.638 159.478  28.988  0.00  0.00    +0.002 C 
ATOM      7  C   UNL     1      51.095 158.331  28.375  0.00  0.00    +0.021 C 
ATOM      8  N   UNL     1      50.621 155.830  30.753  0.00  0.00    -0.304 N 
ATOM      9  C   UNL     1      51.142 155.079  29.789  0.00  0.00    +0.345 A 
ATOM     10  O   UNL     1      51.350 153.840  29.849  0.00  0.00    -0.245 OA
ATOM     11  H   UNL     1      50.336 155.496  31.634  0.00  0.00    +0.171 HD
ENDROOT
BRANCH   1  12
ATOM     12  N   UNL     1      51.956 155.432  27.565  0.00  0.00    -0.167 N 
ATOM     13  C   UNL     1      52.940 156.147  26.985  0.00  0.00    +0.076 C 
ATOM     14  C   UNL     1      53.531 155.709  25.794  0.00  0.00    +0.016 C 
ATOM     15  C   UNL     1      54.537 156.436  25.196  0.00  0.00    +0.001 C 
ATOM     16  C   UNL     1      54.952 157.602  25.794  0.00  0.00    +0.000 C 
ATOM     17  C   UNL     1      54.385 158.051  26.963  0.00  0.00    +0.001 C 
ATOM     18  C   UNL     1      53.384 157.319  27.548  0.00  0.00    +0.017 C 
ATOM     19  C   UNL     1      53.066 154.522  25.243  0.00  0.00    +0.006 C 
ATOM     20  C   UNL     1      52.061 153.804  25.846  0.00  0.00    +0.060 C 
ATOM     21  C   UNL     1      51.514 154.289  27.027  0.00  0.00    +0.271 C 
ATOM     22  O   UNL     1      50.598 153.653  27.596  0.00  0.00    -0.268 OA
ENDBRANCH   1  12
TORSDOF 1
