REMARK  Name = =
REMARK  3 active torsions:
REMARK  status: ('A' for Active; 'I' for Inactive)
REMARK    1  A    between atoms: N_1  and  C_2
REMARK    2  A    between atoms: N_1  and  C_5
REMARK    3  A    between atoms: C_5  and  N_7
REMARK                            x       y       z     vdW  Elec       q    Type
REMARK                         _______ _______ _______ _____ _____    ______ ____
ROOT
ATOM      1  N   UNL     1      51.859 155.247  27.317  0.00  0.00    -0.295 N 
ATOM      2  H   UNL     1      51.624 156.136  26.964  0.00  0.00    +0.154 HD
ENDROOT
BRANCH   1   3
ATOM      3  C   UNL     1      51.644 154.982  28.700  0.00  0.00    +0.069 C 
ATOM      4  C   UNL     1      51.805 155.908  29.597  0.00  0.00    +0.051 C 
ATOM      5  I   UNL     1      52.391 157.831  29.014  0.00  0.00    -0.041 I 
ENDBRANCH   1   3
BRANCH   1   6
ATOM      6  C   UNL     1      52.395 154.287  26.432  0.00  0.00    +0.132 C 
ATOM      7  S   UNL     1      52.330 152.701  26.783  0.00  0.00    -0.019 S 
BRANCH   6   8
ATOM      8  N   UNL     1      52.999 154.691  25.221  0.00  0.00    -0.340 N 
ATOM      9  H   UNL     1      53.371 154.017  24.608  0.00  0.00    +0.144 HD
ATOM     10  H   UNL     1      53.048 155.647  24.990  0.00  0.00    +0.144 HD
ENDBRANCH   6   8
ENDBRANCH   1   6
TORSDOF 3
