REMARK  Name = =
REMARK  2 active torsions:
REMARK  status: ('A' for Active; 'I' for Inactive)
REMARK    1  A    between atoms: C_1  and  S_12
REMARK    2  A    between atoms: S_12  and  C_13
REMARK                            x       y       z     vdW  Elec       q    Type
REMARK                         _______ _______ _______ _____ _____    ______ ____
ROOT
ATOM      1  C   UNL     1      51.273 161.164  31.306  0.00  0.00    +0.109 C 
ATOM      2  N   UNL     1      51.205 161.976  32.311  0.00  0.00    -0.262 NA
ATOM      3  C   UNL     1      50.262 162.024  33.393  0.00  0.00    +0.147 C 
ATOM      4  C   UNL     1      48.824 162.035  32.926  0.00  0.00    +0.114 C 
ATOM      5  N   UNL     1      48.446 160.678  32.587  0.00  0.00    -0.331 N 
ATOM      6  C   UNL     1      49.102 159.859  31.617  0.00  0.00    +0.047 C 
ATOM      7  C   UNL     1      50.353 160.053  31.034  0.00  0.00    +0.037 C 
ATOM      8  C   UNL     1      50.851 159.153  30.098  0.00  0.00    +0.003 C 
ATOM      9  C   UNL     1      50.117 158.055  29.728  0.00  0.00    +0.000 C 
ATOM     10  C   UNL     1      48.877 157.880  30.317  0.00  0.00    +0.001 C 
ATOM     11  C   UNL     1      48.366 158.758  31.245  0.00  0.00    +0.014 C 
ATOM     12  H   UNL     1      47.676 160.290  33.062  0.00  0.00    +0.147 HD
ENDROOT
BRANCH   1  13
ATOM     13  S   UNL     1      52.564 161.351  30.115  0.00  0.00    -0.029 S 
BRANCH  13  14
ATOM     14  C   UNL     1      54.092 161.680  30.994  0.00  0.00    +0.213 A 
ATOM     15  N   UNL     1      54.242 162.215  32.222  0.00  0.00    -0.234 N 
ATOM     16  N   UNL     1      55.534 162.287  32.500  0.00  0.00    -0.046 NA
ATOM     17  N   UNL     1      56.213 161.813  31.486  0.00  0.00    -0.022 NA
ATOM     18  N   UNL     1      55.344 161.438  30.557  0.00  0.00    -0.101 NA
ATOM     19  H   UNL     1      53.511 162.505  32.815  0.00  0.00    +0.193 HD
ENDBRANCH  13  14
ENDBRANCH   1  13
TORSDOF 2
