REMARK  Name = =
REMARK  6 active torsions:
REMARK  status: ('A' for Active; 'I' for Inactive)
REMARK    1  A    between atoms: S_1  and  C_2
REMARK    2  A    between atoms: S_1  and  C_14
REMARK    3  A    between atoms: S_1  and  C_24
REMARK    4  A    between atoms: C_13  and  O_19
REMARK    5  A    between atoms: C_17  and  O_22
REMARK    6  A    between atoms: C_18  and  C_20
REMARK                            x       y       z     vdW  Elec       q    Type
REMARK                         _______ _______ _______ _____ _____    ______ ____
ROOT
ATOM      1  S   UNL     1      50.735 161.021  29.577  0.00  0.00    -0.117 S 
ATOM      2  H   UNL     1      51.790 161.865  29.416  0.00  0.00    +0.101 HD
ENDROOT
BRANCH   1   3
ATOM      3  C   UNL     1      51.288 159.419  29.368  0.00  0.00    +0.093 C 
ATOM      4  N   UNL     1      52.535 159.168  29.060  0.00  0.00    -0.263 NA
ATOM      5  C   UNL     1      53.236 157.936  28.834  0.00  0.00    +0.147 C 
ATOM      6  C   UNL     1      53.075 156.938  29.952  0.00  0.00    +0.114 C 
ATOM      7  N   UNL     1      51.746 156.359  29.973  0.00  0.00    -0.331 N 
ATOM      8  C   UNL     1      50.494 157.019  29.834  0.00  0.00    +0.047 C 
ATOM      9  C   UNL     1      50.287 158.378  29.564  0.00  0.00    +0.035 C 
ATOM     10  C   UNL     1      48.995 158.851  29.460  0.00  0.00    +0.003 C 
ATOM     11  C   UNL     1      47.944 157.975  29.623  0.00  0.00    +0.000 C 
ATOM     12  C   UNL     1      48.108 156.639  29.888  0.00  0.00    +0.001 C 
ATOM     13  C   UNL     1      49.407 156.183  29.989  0.00  0.00    +0.014 C 
ATOM     14  H   UNL     1      51.705 155.384  30.100  0.00  0.00    +0.147 HD
ENDBRANCH   1   3
BRANCH   1  16
ATOM     15  C   UNL     1      50.631 161.131  32.341  0.00  0.00    +0.144 C 
ATOM     16  C   UNL     1      49.927 161.155  31.149  0.00  0.00    +0.051 C 
ATOM     17  C   UNL     1      48.573 161.281  31.154  0.00  0.00    +0.011 C 
ATOM     18  C   UNL     1      47.854 161.390  32.344  0.00  0.00    +0.037 C 
ATOM     19  C   UNL     1      48.553 161.366  33.512  0.00  0.00    +0.140 C 
ATOM     20  C   UNL     1      49.941 161.237  33.529  0.00  0.00    +0.110 C 
BRANCH  15  21
ATOM     21  O   UNL     1      51.992 161.003  32.260  0.00  0.00    -0.505 OA
ATOM     22  H   UNL     1      52.508 160.982  33.042  0.00  0.00    +0.292 HD
ENDBRANCH  15  21
BRANCH  20  23
ATOM     23  C   UNL     1      50.591 161.223  34.828  0.00  0.00    +0.240 C 
ATOM     24  O   UNL     1      51.812 160.974  35.038  0.00  0.00    -0.283 OA
ENDBRANCH  20  23
BRANCH  19  25
ATOM     25  O   UNL     1      47.817 161.476  34.704  0.00  0.00    -0.505 OA
ATOM     26  H   UNL     1      46.884 161.562  34.673  0.00  0.00    +0.292 HD
ENDBRANCH  19  25
ENDBRANCH   1  16
BRANCH   1  27
ATOM     27  C   UNL     1      49.389 161.276  28.473  0.00  0.00    +0.212 C 
ATOM     28  N   UNL     1      48.070 161.175  28.700  0.00  0.00    -0.103 NA
ATOM     29  N   UNL     1      47.395 161.449  27.598  0.00  0.00    -0.023 NA
ATOM     30  N   UNL     1      48.289 161.725  26.669  0.00  0.00    -0.032 NA
ATOM     31  N   UNL     1      49.511 161.625  27.183  0.00  0.00    -0.070 NA
ENDBRANCH   1  27
TORSDOF 6
REMARK  Name = =
REMARK  6 active torsions:
REMARK  status: ('A' for Active; 'I' for Inactive)
REMARK    1  A    between atoms: S_1  and  C_2
REMARK    2  A    between atoms: S_1  and  C_14
REMARK    3  A    between atoms: S_1  and  C_24
REMARK    4  A    between atoms: C_13  and  O_19
REMARK    5  A    between atoms: C_17  and  O_22
REMARK    6  A    between atoms: C_18  and  C_20
REMARK                            x       y       z     vdW  Elec       q    Type
REMARK                         _______ _______ _______ _____ _____    ______ ____
ROOT
ATOM      1  O   HOH     1      47.768 161.314  30.001  0.00  0.00    -0.410 OA
ATOM      2  H   HOH     0      48.738 161.314  30.001  0.00  0.00    +0.205 HD
ATOM      3  H   HOH     0      47.445 161.567  29.122  0.00  0.00    +0.205 HD
ENDROOT
TORSDOF 0
