REMARK  Name = =
REMARK  2 active torsions:
REMARK  status: ('A' for Active; 'I' for Inactive)
REMARK    1  A    between atoms: N_1  and  N_11
REMARK    2  A    between atoms: C_7  and  S_22
REMARK                            x       y       z     vdW  Elec       q    Type
REMARK                         _______ _______ _______ _____ _____    ______ ____
ROOT
ATOM      1  N   UNL     1      51.875 157.066  28.270  0.00  0.00    -0.199 N 
ATOM      2  C   UNL     1      51.136 158.176  28.262  0.00  0.00    +0.104 A 
ATOM      3  C   UNL     1      51.298 158.813  29.503  0.00  0.00    +0.078 A 
ATOM      4  C   UNL     1      50.641 159.998  29.795  0.00  0.00    +0.019 C 
ATOM      5  C   UNL     1      49.833 160.529  28.846  0.00  0.00    +0.002 C 
ATOM      6  C   UNL     1      49.662 159.925  27.635  0.00  0.00    +0.006 C 
ATOM      7  C   UNL     1      50.301 158.728  27.288  0.00  0.00    +0.027 C 
ATOM      8  N   UNL     1      52.141 158.058  30.227  0.00  0.00    -0.304 N 
ATOM      9  C   UNL     1      52.492 157.014  29.504  0.00  0.00    +0.345 A 
ATOM     10  O   UNL     1      53.271 156.057  29.806  0.00  0.00    -0.245 OA
ATOM     11  H   UNL     1      52.445 158.252  31.143  0.00  0.00    +0.171 HD
ENDROOT
BRANCH   1  12
ATOM     12  N   UNL     1      52.064 156.075  27.318  0.00  0.00    -0.167 N 
ATOM     13  C   UNL     1      53.051 156.256  26.423  0.00  0.00    +0.076 C 
ATOM     14  C   UNL     1      53.384 155.320  25.454  0.00  0.00    +0.016 C 
ATOM     15  C   UNL     1      54.399 155.517  24.541  0.00  0.00    +0.001 C 
ATOM     16  C   UNL     1      55.138 156.685  24.563  0.00  0.00    +0.000 C 
ATOM     17  C   UNL     1      54.837 157.626  25.502  0.00  0.00    +0.001 C 
ATOM     18  C   UNL     1      53.821 157.419  26.410  0.00  0.00    +0.017 C 
ATOM     19  C   UNL     1      52.617 154.149  25.457  0.00  0.00    +0.006 C 
ATOM     20  C   UNL     1      51.603 153.946  26.365  0.00  0.00    +0.060 C 
ATOM     21  C   UNL     1      51.356 154.942  27.286  0.00  0.00    +0.271 C 
ATOM     22  O   UNL     1      50.415 154.718  28.112  0.00  0.00    -0.268 OA
ENDBRANCH   1  12
BRANCH   7  23
ATOM     23  S   UNL     1      50.101 157.982  25.776  0.00  0.00    -0.189 S 
ATOM     24  C   UNL     1      51.254 158.041  24.424  0.00  0.00    +0.061 C 
ATOM     25  C   UNL     1      50.456 158.510  23.226  0.00  0.00    +0.100 C 
ATOM     26  N   UNL     1      49.065 158.254  23.541  0.00  0.00    -0.207 NA
ATOM     27  C   UNL     1      48.791 159.026  24.681  0.00  0.00    +0.130 C 
ATOM     28  H   UNL     1      49.961 156.735  26.299  0.00  0.00    +0.089 HD
ENDBRANCH   7  23
TORSDOF 2
