REMARK  Name = =
REMARK  4 active torsions:
REMARK  status: ('A' for Active; 'I' for Inactive)
REMARK    1  A    between atoms: N_1  and  N_2
REMARK    2  A    between atoms: N_1  and  C_6
REMARK    3  A    between atoms: N_1  and  C_9
REMARK    4  A    between atoms: C_9  and  N_11
REMARK                            x       y       z     vdW  Elec       q    Type
REMARK                         _______ _______ _______ _____ _____    ______ ____
ROOT
ATOM      1  N   UNL     1      52.380 155.314  27.418  0.00  0.00    -0.210 N 
ENDROOT
BRANCH   1   2
ATOM      2  N   UNL     1      52.272 155.901  28.660  0.00  0.00    -0.199 NA
ATOM      3  C   UNL     1      50.916 155.675  29.187  0.00  0.00    +0.094 C 
ATOM      4  C   UNL     1      51.065 157.022  29.892  0.00  0.00    +0.038 C 
ATOM      5  C   UNL     1      51.968 157.314  28.685  0.00  0.00    +0.094 C 
ENDBRANCH   1   2
BRANCH   1   6
ATOM      6  C   UNL     1      51.932 153.968  27.264  0.00  0.00    +0.090 C 
ATOM      7  C   UNL     1      52.754 152.998  26.963  0.00  0.00    +0.053 C 
ATOM      8  I   UNL     1      52.019 151.050  26.754  0.00  0.00    -0.041 I 
ENDBRANCH   1   6
BRANCH   1   9
ATOM      9  C   UNL     1      52.916 155.976  26.275  0.00  0.00    +0.149 C 
ATOM     10  S   UNL     1      53.988 157.215  26.459  0.00  0.00    -0.017 S 
BRANCH   9  11
ATOM     11  N   UNL     1      52.578 155.629  24.954  0.00  0.00    -0.339 N 
ATOM     12  H   UNL     1      52.977 156.119  24.199  0.00  0.00    +0.144 HD
ATOM     13  H   UNL     1      51.942 154.897  24.785  0.00  0.00    +0.144 HD
ENDBRANCH   9  11
ENDBRANCH   1   9
TORSDOF 4
