REMARK  Name = =
REMARK  8 active torsions:
REMARK  status: ('A' for Active; 'I' for Inactive)
REMARK    1  A    between atoms: C_1  and  O_28
REMARK    2  A    between atoms: C_2  and  S_11
REMARK    3  A    between atoms: C_3  and  O_10
REMARK    4  A    between atoms: C_5  and  O_9
REMARK    5  A    between atoms: C_6  and  C_7
REMARK    6  A    between atoms: S_11  and  C_12
REMARK    7  A    between atoms: S_11  and  C_23
REMARK    8  A    between atoms: O_28  and  C_29
REMARK                            x       y       z     vdW  Elec       q    Type
REMARK                         _______ _______ _______ _____ _____    ______ ____
ROOT
ATOM      1  C   UNL     1      51.275 156.385  29.114  0.00  0.00    +0.152 C 
ATOM      2  C   UNL     1      52.406 156.146  28.340  0.00  0.00    +0.085 C 
ATOM      3  C   UNL     1      53.041 154.944  28.448  0.00  0.00    +0.144 C 
ATOM      4  C   UNL     1      52.602 153.946  29.299  0.00  0.00    +0.074 C 
ATOM      5  C   UNL     1      51.498 154.175  30.054  0.00  0.00    +0.143 C 
ATOM      6  C   UNL     1      50.819 155.387  29.977  0.00  0.00    +0.110 C 
ENDROOT
BRANCH   6   7
ATOM      7  C   UNL     1      49.646 155.544  30.808  0.00  0.00    +0.240 C 
ATOM      8  O   UNL     1      48.942 156.545  30.885  0.00  0.00    -0.283 OA
ENDBRANCH   6   7
BRANCH   5   9
ATOM      9  O   UNL     1      51.013 153.192  30.934  0.00  0.00    -0.505 OA
ATOM     10  H   UNL     1      51.453 152.368  31.004  0.00  0.00    +0.292 HD
ENDBRANCH   5   9
BRANCH   3  11
ATOM     11  O   UNL     1      54.161 154.696  27.690  0.00  0.00    -0.505 OA
ATOM     12  H   UNL     1      54.484 155.351  27.104  0.00  0.00    +0.292 HD
ENDBRANCH   3  11
BRANCH   2  13
ATOM     13  S   UNL     1      53.037 157.322  27.202  0.00  0.00    -0.114 S 
ATOM     14  H   UNL     1      52.074 158.202  26.816  0.00  0.00    +0.101 HD
BRANCH  13  15
ATOM     15  C   UNL     1      53.578 156.562  25.817  0.00  0.00    +0.093 C 
ATOM     16  N   UNL     1      54.290 157.226  24.915  0.00  0.00    -0.263 NA
ATOM     17  C   UNL     1      54.857 156.767  23.653  0.00  0.00    +0.147 C 
ATOM     18  C   UNL     1      55.864 155.672  23.896  0.00  0.00    +0.114 C 
ATOM     19  N   UNL     1      55.282 154.407  24.257  0.00  0.00    -0.331 N 
ATOM     20  C   UNL     1      54.032 154.193  24.930  0.00  0.00    +0.047 C 
ATOM     21  C   UNL     1      53.263 155.159  25.611  0.00  0.00    +0.035 C 
ATOM     22  C   UNL     1      52.068 154.791  26.186  0.00  0.00    +0.003 C 
ATOM     23  C   UNL     1      51.656 153.486  26.081  0.00  0.00    +0.000 C 
ATOM     24  C   UNL     1      52.363 152.505  25.431  0.00  0.00    +0.001 C 
ATOM     25  C   UNL     1      53.574 152.898  24.852  0.00  0.00    +0.014 C 
ATOM     26  H   UNL     1      55.796 153.602  24.017  0.00  0.00    +0.147 HD
ENDBRANCH  13  15
BRANCH  13  27
ATOM     27  C   UNL     1      54.314 158.137  27.998  0.00  0.00    +0.197 A 
ATOM     28  N   UNL     1      54.373 158.414  29.312  0.00  0.00    -0.235 N 
ATOM     29  N   UNL     1      55.510 159.024  29.588  0.00  0.00    -0.046 NA
ATOM     30  N   UNL     1      56.171 159.135  28.450  0.00  0.00    -0.022 NA
ATOM     31  N   UNL     1      55.455 158.600  27.476  0.00  0.00    -0.103 NA
ATOM     32  H   UNL     1      53.674 158.195  29.969  0.00  0.00    +0.193 HD
ENDBRANCH  13  27
ENDBRANCH   2  13
BRANCH   1  33
ATOM     33  O   UNL     1      50.632 157.562  29.033  0.00  0.00    -0.474 OA
BRANCH  33  34
ATOM     34  C   UNL     1      50.899 158.887  29.001  0.00  0.00    +0.195 C 
ATOM     35  C   UNL     1      52.048 159.199  29.945  0.00  0.00    +0.096 C 
ATOM     36  C   UNL     1      51.628 159.574  31.329  0.00  0.00    +0.209 C 
ATOM     37  O   UNL     1      50.230 159.667  31.524  0.00  0.00    -0.476 OA
ATOM     38  C   UNL     1      49.460 160.254  30.530  0.00  0.00    +0.138 C 
ATOM     39  C   UNL     1      49.785 159.855  29.240  0.00  0.00    +0.051 C 
ATOM     40  C   UNL     1      49.067 160.395  28.211  0.00  0.00    +0.002 C 
ATOM     41  C   UNL     1      48.067 161.294  28.427  0.00  0.00    -0.000 C 
ATOM     42  C   UNL     1      47.745 161.689  29.705  0.00  0.00    +0.003 C 
ATOM     43  C   UNL     1      48.445 161.169  30.780  0.00  0.00    +0.037 C 
ENDBRANCH  33  34
ENDBRANCH   1  33
TORSDOF 8
