MODEL 1
REMARK VINA RESULT:    -6.154      0.000      0.000
REMARK INTER + INTRA:          -9.372
REMARK INTER:                  -8.313
REMARK INTRA:                  -1.059
REMARK UNBOUND:                -1.059
REMARK  Name = =
REMARK  6 active torsions:
REMARK  status: ('A' for Active; 'I' for Inactive)
REMARK    1  A    between atoms: C_1  and  C_19
REMARK    2  A    between atoms: C_2  and  O_27
REMARK    3  A    between atoms: C_3  and  N_7
REMARK    4  A    between atoms: N_18  and  C_26
REMARK    5  A    between atoms: O_27  and  C_28
REMARK    6  A    between atoms: C_29  and  C_30
REMARK                            x       y       z     vdW  Elec       q    Type
REMARK                         _______ _______ _______ _____ _____    ______ ____
ROOT
ATOM      1  C   UNL     1      62.091 164.081  38.946  0.00  0.00    +0.089 C 
ATOM      2  C   UNL     1      61.921 162.720  39.082  0.00  0.00    +0.164 C 
ATOM      3  C   UNL     1      62.247 162.094  40.279  0.00  0.00    +0.097 C 
ATOM      4  C   UNL     1      62.739 162.827  41.340  0.00  0.00    +0.018 C 
ATOM      5  C   UNL     1      62.912 164.189  41.221  0.00  0.00    +0.002 C 
ATOM      6  C   UNL     1      62.592 164.794  40.048  0.00  0.00    +0.008 C 
ENDROOT
BRANCH   3   7
ATOM      7  N   UNL     1      62.054 160.704  40.410  0.00  0.00    -0.182 N 
ATOM      8  C   UNL     1      60.961 159.988  40.875  0.00  0.00    +0.317 C 
ATOM      9  O   UNL     1      61.128 158.693  40.901  0.00  0.00    -0.252 OA
ATOM     10  N   UNL     1      59.730 160.437  41.309  0.00  0.00    -0.261 N 
ATOM     11  C   UNL     1      58.733 159.403  41.758  0.00  0.00    +0.112 C 
ATOM     12  C   UNL     1      57.350 159.933  41.427  0.00  0.00    +0.090 C 
ATOM     13  N   UNL     1      57.496 160.769  40.211  0.00  0.00    -0.295 NA
ATOM     14  C   UNL     1      57.941 162.060  40.762  0.00  0.00    +0.090 C 
ATOM     15  C   UNL     1      59.316 161.805  41.375  0.00  0.00    +0.112 C 
ATOM     16  C   UNL     1      63.217 159.947  39.929  0.00  0.00    +0.314 C 
ATOM     17  O   UNL     1      64.191 160.568  39.460  0.00  0.00    -0.264 OA
ATOM     18  H   UNL     1      56.607 160.864  39.720  0.00  0.00    +0.123 HD
ENDBRANCH   3   7
BRANCH   1  20
ATOM     19  N   UNL     1      60.736 165.655  37.409  0.00  0.00    -0.302 N 
ATOM     20  C   UNL     1      61.830 164.857  37.762  0.00  0.00    +0.249 C 
ATOM     21  O   UNL     1      62.747 164.849  36.834  0.00  0.00    -0.270 OA
ATOM     22  H   UNL     1      59.979 165.727  38.034  0.00  0.00    +0.150 HD
BRANCH  19  28
ATOM     23  C   UNL     1      59.868 165.786  35.069  0.00  0.00    +0.020 C 
ATOM     24  C   UNL     1      59.570 166.893  34.041  0.00  0.00    +0.002 C 
ATOM     25  C   UNL     1      60.783 167.830  33.966  0.00  0.00    +0.000 C 
ATOM     26  C   UNL     1      60.863 168.636  35.255  0.00  0.00    +0.002 C 
ATOM     27  C   UNL     1      60.253 167.826  36.402  0.00  0.00    +0.020 C 
ATOM     28  C   UNL     1      60.680 166.382  36.150  0.00  0.00    +0.072 C 
ENDBRANCH  19  28
ENDBRANCH   1  20
BRANCH   2  29
ATOM     29  O   UNL     1      61.445 161.936  38.095  0.00  0.00    -0.448 OA
BRANCH  29  30
ATOM     30  C   UNL     1      60.458 162.055  37.218  0.00  0.00    +0.191 C 
ATOM     31  C   UNL     1      59.246 162.214  36.969  0.00  0.00    +0.119 C 
BRANCH  31  32
ATOM     32  C   UNL     1      58.818 162.240  35.494  0.00  0.00    +0.104 C 
ATOM     33  N   UNL     1      58.494 162.270  34.418  0.00  0.00    -0.191 NA
ENDBRANCH  31  32
ENDBRANCH  29  30
ENDBRANCH   2  29
TORSDOF 6
ENDMDL
