REMARK  Name = =
REMARK  3 active torsions:
REMARK  status: ('A' for Active; 'I' for Inactive)
REMARK    1  A    between atoms: N_1  and  N_11
REMARK    2  A    between atoms: C_7  and  S_22
REMARK    3  A    between atoms: C_23  and  S_27
REMARK                            x       y       z     vdW  Elec       q    Type
REMARK                         _______ _______ _______ _____ _____    ______ ____
ROOT
ATOM      1  N   UNL     1      53.671 157.148  27.280  0.00  0.00    -0.199 N 
ATOM      2  C   UNL     1      53.454 157.970  28.304  0.00  0.00    +0.104 A 
ATOM      3  C   UNL     1      54.562 158.813  28.444  0.00  0.00    +0.078 A 
ATOM      4  C   UNL     1      54.574 159.756  29.430  0.00  0.00    +0.019 C 
ATOM      5  C   UNL     1      53.496 159.867  30.275  0.00  0.00    +0.002 C 
ATOM      6  C   UNL     1      52.414 159.035  30.130  0.00  0.00    +0.006 C 
ATOM      7  C   UNL     1      52.349 158.055  29.142  0.00  0.00    +0.027 C 
ATOM      8  N   UNL     1      55.422 158.465  27.485  0.00  0.00    -0.304 N 
ATOM      9  C   UNL     1      54.915 157.473  26.774  0.00  0.00    +0.345 A 
ATOM     10  O   UNL     1      55.407 156.862  25.787  0.00  0.00    -0.245 OA
ATOM     11  H   UNL     1      56.300 158.883  27.331  0.00  0.00    +0.171 HD
ENDROOT
BRANCH   1  12
ATOM     12  N   UNL     1      52.917 156.135  26.703  0.00  0.00    -0.167 N 
ATOM     13  C   UNL     1      52.714 155.014  27.405  0.00  0.00    +0.076 C 
ATOM     14  C   UNL     1      52.040 153.950  26.823  0.00  0.00    +0.016 C 
ATOM     15  C   UNL     1      51.808 152.781  27.498  0.00  0.00    +0.001 C 
ATOM     16  C   UNL     1      52.242 152.634  28.782  0.00  0.00    +0.000 C 
ATOM     17  C   UNL     1      52.914 153.682  29.375  0.00  0.00    +0.001 C 
ATOM     18  C   UNL     1      53.150 154.855  28.705  0.00  0.00    +0.017 C 
ATOM     19  C   UNL     1      51.575 154.050  25.516  0.00  0.00    +0.006 C 
ATOM     20  C   UNL     1      51.809 155.224  24.839  0.00  0.00    +0.060 C 
ATOM     21  C   UNL     1      52.485 156.245  25.469  0.00  0.00    +0.271 C 
ATOM     22  O   UNL     1      52.685 157.297  24.821  0.00  0.00    -0.268 OA
ENDBRANCH   1  12
BRANCH   7  23
ATOM     23  S   UNL     1      50.919 157.126  29.078  0.00  0.00    -0.182 S 
ATOM     24  C   UNL     1      49.309 157.922  29.309  0.00  0.00    +0.082 C 
ATOM     25  C   UNL     1      48.540 156.550  29.166  0.00  0.00    +0.108 C 
ATOM     26  N   UNL     1      49.055 155.880  30.351  0.00  0.00    -0.206 NA
ATOM     27  C   UNL     1      50.498 155.745  30.150  0.00  0.00    +0.131 C 
ATOM     28  H   UNL     1      51.380 156.777  27.847  0.00  0.00    +0.090 HD
BRANCH  24  29
ATOM     29  S   UNL     1      49.025 158.376  30.919  0.00  0.00    -0.186 S 
ATOM     30  C   UNL     1      47.327 159.298  30.920  0.00  0.00    +0.147 C 
ATOM     31  N   UNL     1      47.689 160.457  30.957  0.00  0.00    -0.139 NA
ATOM     32  N   UNL     1      48.968 160.871  30.987  0.00  0.00    -0.218 NA
ATOM     33  C   UNL     1      49.849 159.861  31.565  0.00  0.00    +0.125 C 
ATOM     34  H   UNL     1      49.314 157.225  31.583  0.00  0.00    +0.087 HD
ATOM     35  H   UNL     1      49.027 161.721  31.548  0.00  0.00    +0.144 HD
ENDBRANCH  24  29
ENDBRANCH   7  23
TORSDOF 3
