REMARK  Name = =
REMARK  7 active torsions:
REMARK  status: ('A' for Active; 'I' for Inactive)
REMARK    1  A    between atoms: C_1  and  C_11
REMARK    2  A    between atoms: C_5  and  C_41
REMARK    3  A    between atoms: C_8  and  C_29
REMARK    4  A    between atoms: C_18  and  N_22
REMARK    5  A    between atoms: N_22  and  C_23
REMARK    6  A    between atoms: N_31  and  C_32
REMARK    7  A    between atoms: N_31  and  C_39
REMARK                            x       y       z     vdW  Elec       q    Type
REMARK                         _______ _______ _______ _____ _____    ______ ____
ROOT
ATOM      1  C   UNL     1       2.898  -5.398  26.916  0.00  0.00    +0.076 A 
ATOM      2  C   UNL     1       3.644  -6.584  26.980  0.00  0.00    +0.032 A 
ATOM      3  C   UNL     1       3.300  -7.473  27.936  0.00  0.00    +0.084 A 
ATOM      4  N   UNL     1       2.277  -7.218  28.779  0.00  0.00    -0.228 NA
ATOM      5  C   UNL     1       1.562  -6.099  28.718  0.00  0.00    +0.172 A 
ATOM      6  N   UNL     1       1.882  -5.183  27.776  0.00  0.00    -0.232 NA
ATOM      7  C   UNL     1       3.981  -8.693  27.951  0.00  0.00    +0.024 C 
ATOM      8  C   UNL     1       4.965  -9.028  27.064  0.00  0.00    +0.055 C 
ATOM      9  C   UNL     1       5.280  -8.028  26.092  0.00  0.00    +0.005 C 
ATOM     10  C   UNL     1       4.625  -6.799  26.046  0.00  0.00    +0.003 C 
ENDROOT
BRANCH   1  11
ATOM     11  C   UNL     1       3.252  -4.438  25.879  0.00  0.00    +0.163 C 
ATOM     12  C   UNL     1       2.732  -3.068  26.270  0.00  0.00    +0.186 C 
ATOM     13  O   UNL     1       2.505  -2.705  27.409  0.00  0.00    -0.290 OA
ATOM     14  C   UNL     1       2.577  -2.322  25.027  0.00  0.00    +0.040 C 
ATOM     15  C   UNL     1       2.428  -3.296  23.986  0.00  0.00    +0.038 C 
ATOM     16  C   UNL     1       2.289  -2.762  22.758  0.00  0.00    +0.004 C 
ATOM     17  C   UNL     1       2.291  -1.460  22.419  0.00  0.00    +0.015 C 
ATOM     18  C   UNL     1       2.448  -0.527  23.469  0.00  0.00    +0.048 C 
ATOM     19  C   UNL     1       2.581  -0.952  24.730  0.00  0.00    +0.018 C 
ATOM     20  C   UNL     1       2.495  -4.622  24.634  0.00  0.00    +0.186 C 
ATOM     21  O   UNL     1       1.958  -5.650  24.105  0.00  0.00    -0.290 OA
BRANCH  18  22
ATOM     22  N   UNL     1       2.517   0.871  23.056  0.00  0.00    -0.313 N 
ATOM     23  H   UNL     1       2.900   1.572  23.632  0.00  0.00    +0.152 HD
BRANCH  22  24
ATOM     24  C   UNL     1       1.985   1.155  21.746  0.00  0.00    +0.048 C 
ATOM     25  C   UNL     1       2.707   0.672  20.689  0.00  0.00    +0.015 C 
ATOM     26  C   UNL     1       2.248   0.842  19.373  0.00  0.00    +0.001 C 
ATOM     27  C   UNL     1       1.020   1.521  19.204  0.00  0.00    +0.000 C 
ATOM     28  C   UNL     1       0.305   2.001  20.265  0.00  0.00    +0.001 C 
ATOM     29  C   UNL     1       0.802   1.816  21.574  0.00  0.00    +0.015 C 
ENDBRANCH  22  24
ENDBRANCH  18  22
ENDBRANCH   1  11
BRANCH   8  30
ATOM     30  C   UNL     1       5.654 -10.299  26.964  0.00  0.00    +0.250 C 
ATOM     31  O   UNL     1       6.901 -10.258  27.436  0.00  0.00    -0.270 OA
ATOM     32  N   UNL     1       5.276 -11.518  26.483  0.00  0.00    -0.260 N 
BRANCH  32  33
ATOM     33  C   UNL     1       4.012 -11.877  25.867  0.00  0.00    +0.094 C 
ATOM     34  C   UNL     1       3.343 -12.906  26.860  0.00  0.00    +0.037 C 
ATOM     35  C   UNL     1       3.482 -14.184  26.071  0.00  0.00    +0.074 C 
ATOM     36  N   UNL     1       3.041 -13.668  24.748  0.00  0.00    -0.271 NA
ATOM     37  C   UNL     1       4.171 -12.695  24.619  0.00  0.00    +0.092 C 
ATOM     38  C   UNL     1       1.831 -12.970  25.084  0.00  0.00    +0.072 C 
ATOM     39  C   UNL     1       1.848 -12.642  26.563  0.00  0.00    +0.020 C 
ENDBRANCH  32  33
BRANCH  32  40
ATOM     40  C   UNL     1       6.264 -12.536  26.483  0.00  0.00    +0.205 C 
ATOM     41  N   UNL     1       7.138 -13.446  26.486  0.00  0.00    -0.107 NA
ENDBRANCH  32  40
ENDBRANCH   8  30
BRANCH   5  42
ATOM     42  C   UNL     1       0.359  -5.929  29.605  0.00  0.00    +0.247 C 
ATOM     43  O   UNL     1       0.138  -6.976  30.353  0.00  0.00    -0.212 OA
ENDBRANCH   5  42
TORSDOF 7
