MODEL 1
REMARK VINA RESULT:   -12.158      0.000      0.000
REMARK INTER + INTRA:         -17.586
REMARK INTER:                 -16.067
REMARK INTRA:                  -1.519
REMARK UNBOUND:                -1.519
REMARK  Name = =
REMARK  8 active torsions:
REMARK  status: ('A' for Active; 'I' for Inactive)
REMARK    1  A    between atoms: S_1  and  N_27
REMARK    2  A    between atoms: C_2  and  C_7
REMARK    3  A    between atoms: C_9  and  C_12
REMARK    4  A    between atoms: N_14  and  N_15
REMARK    5  A    between atoms: N_27  and  N_28
REMARK    6  A    between atoms: C_29  and  C_31
REMARK    7  A    between atoms: C_32  and  O_38
REMARK    8  A    between atoms: C_33  and  O_37
REMARK                            x       y       z     vdW  Elec       q    Type
REMARK                         _______ _______ _______ _____ _____    ______ ____
ROOT
ATOM      1  S   UNL     1     -19.882 -41.420  23.713  0.00  0.00    -0.141 S 
ATOM      2  C   UNL     1     -18.398 -42.055  23.487  0.00  0.00    +0.073 C 
ATOM      3  C   UNL     1     -17.556 -41.352  22.448  0.00  0.00    +0.015 C 
ATOM      4  C   UNL     1     -17.724 -39.870  22.535  0.00  0.00    +0.002 C 
ATOM      5  C   UNL     1     -19.089 -39.560  21.944  0.00  0.00    +0.011 C 
ATOM      6  C   UNL     1     -20.160 -39.894  22.995  0.00  0.00    +0.053 C 
ATOM      7  H   UNL     1     -19.868 -41.203  25.055  0.00  0.00    +0.102 HD
ENDROOT
BRANCH   2   8
ATOM      8  C   UNL     1     -17.528 -42.159  24.718  0.00  0.00    +0.037 C 
ATOM      9  S   UNL     1     -15.862 -42.771  24.796  0.00  0.00    -0.065 S 
ATOM     10  C   UNL     1     -15.740 -42.460  26.661  0.00  0.00    +0.165 C 
ATOM     11  N   UNL     1     -16.797 -42.026  26.848  0.00  0.00    -0.232 NA
ATOM     12  C   UNL     1     -17.772 -41.820  26.003  0.00  0.00    +0.103 C 
BRANCH  10  13
ATOM     13  C   UNL     1     -14.452 -42.810  27.325  0.00  0.00    +0.287 C 
ATOM     14  O   UNL     1     -13.491 -42.014  27.329  0.00  0.00    -0.266 OA
ATOM     15  N   UNL     1     -14.328 -44.056  27.958  0.00  0.00    -0.206 N 
ATOM     16  H   UNL     1     -15.120 -44.640  27.921  0.00  0.00    +0.175 HD
BRANCH  15  17
ATOM     17  N   UNL     1     -13.227 -44.565  28.629  0.00  0.00    -0.078 N 
ATOM     18  S   UNL     1     -13.010 -44.277  30.343  0.00  0.00    +0.094 S 
ATOM     19  O   UNL     1     -14.038 -45.013  31.134  0.00  0.00    -0.148 OA
ATOM     20  O   UNL     1     -12.979 -42.816  30.630  0.00  0.00    -0.148 OA
ATOM     21  C   UNL     1     -11.448 -45.041  30.485  0.00  0.00    +0.132 C 
ATOM     22  C   UNL     1     -11.150 -45.564  29.271  0.00  0.00    +0.076 C 
ATOM     23  C   UNL     1      -9.934 -46.246  29.181  0.00  0.00    +0.006 C 
ATOM     24  C   UNL     1      -9.089 -46.375  30.263  0.00  0.00    +0.000 C 
ATOM     25  C   UNL     1      -9.399 -45.837  31.496  0.00  0.00    +0.001 C 
ATOM     26  C   UNL     1     -10.601 -45.167  31.577  0.00  0.00    +0.020 C 
ATOM     27  C   UNL     1     -12.126 -45.307  28.239  0.00  0.00    +0.285 C 
ATOM     28  O   UNL     1     -11.981 -45.737  27.034  0.00  0.00    -0.267 OA
ENDBRANCH  15  17
ENDBRANCH  10  13
ENDBRANCH   2   8
BRANCH   1  29
ATOM     29  N   UNL     1     -21.374 -42.653  23.337  0.00  0.00    -0.094 NA
BRANCH  29  30
ATOM     30  N   UNL     1     -21.846 -42.813  24.652  0.00  0.00    -0.220 N 
ATOM     31  C   UNL     1     -22.253 -44.094  25.109  0.00  0.00    +0.264 C 
ATOM     32  O   UNL     1     -22.176 -45.079  24.307  0.00  0.00    -0.269 OA
ATOM     33  H   UNL     1     -21.894 -42.037  25.256  0.00  0.00    +0.172 HD
BRANCH  31  34
ATOM     34  C   UNL     1     -22.748 -44.299  26.459  0.00  0.00    +0.091 C 
ATOM     35  C   UNL     1     -21.915 -43.966  27.534  0.00  0.00    +0.172 C 
ATOM     36  C   UNL     1     -22.294 -44.125  28.831  0.00  0.00    +0.168 C 
ATOM     37  C   UNL     1     -23.558 -44.638  29.078  0.00  0.00    +0.040 C 
ATOM     38  C   UNL     1     -24.405 -44.976  28.037  0.00  0.00    +0.003 C 
ATOM     39  C   UNL     1     -23.988 -44.801  26.729  0.00  0.00    +0.008 C 
BRANCH  36  40
ATOM     40  O   UNL     1     -21.426 -43.779  29.846  0.00  0.00    -0.503 OA
ATOM     41  H   UNL     1     -20.916 -42.996  29.779  0.00  0.00    +0.292 HD
ENDBRANCH  36  40
BRANCH  35  42
ATOM     42  O   UNL     1     -20.663 -43.459  27.244  0.00  0.00    -0.503 OA
ATOM     43  H   UNL     1     -19.984 -44.032  26.945  0.00  0.00    +0.292 HD
ENDBRANCH  35  42
ENDBRANCH  31  34
ENDBRANCH  29  30
ENDBRANCH   1  29
TORSDOF 8
ENDMDL
