MODEL 1
REMARK VINA RESULT:    -5.917      0.000      0.000
REMARK INTER + INTRA:         -11.349
REMARK INTER:                  -9.031
REMARK INTRA:                  -2.318
REMARK UNBOUND:                -2.318
REMARK  Name = =
REMARK  11 active torsions:
REMARK  status: ('A' for Active; 'I' for Inactive)
REMARK    1  A    between atoms: C_1  and  N_14
REMARK    2  A    between atoms: C_2  and  N_27
REMARK    3  A    between atoms: C_12  and  O_25
REMARK    4  A    between atoms: C_15  and  C_17
REMARK    5  A    between atoms: C_18  and  S_23
REMARK    6  A    between atoms: C_20  and  O_24
REMARK    7  A    between atoms: O_25  and  N_26
REMARK    8  A    between atoms: N_27  and  N_28
REMARK    9  A    between atoms: N_27  and  O_32
REMARK   10  A    between atoms: C_29  and  O_31
REMARK   11  A    between atoms: O_32  and  N_33
REMARK                            x       y       z     vdW  Elec       q    Type
REMARK                         _______ _______ _______ _____ _____    ______ ____
ROOT
ATOM      1  C   UNL     1      59.755 163.231  40.195  0.00  0.00    +0.084 C 
ATOM      2  C   UNL     1      58.586 162.611  40.488  0.00  0.00    +0.121 C 
ATOM      3  C   UNL     1      57.515 163.395  40.921  0.00  0.00    +0.037 C 
ATOM      4  C   UNL     1      57.604 164.759  41.060  0.00  0.00    +0.053 C 
ATOM      5  C   UNL     1      58.801 165.401  40.762  0.00  0.00    +0.054 C 
ATOM      6  C   UNL     1      59.860 164.608  40.332  0.00  0.00    +0.021 C 
ATOM      7  C   UNL     1      58.951 166.765  40.881  0.00  0.00    +0.198 C 
ATOM      8  O   UNL     1      60.039 167.361  40.613  0.00  0.00    -0.286 OA
ATOM      9  C   UNL     1      57.849 167.485  41.312  0.00  0.00    +0.058 C 
ATOM     10  C   UNL     1      56.687 166.830  41.596  0.00  0.00    +0.065 C 
ATOM     11  N   UNL     1      56.552 165.495  41.478  0.00  0.00    -0.311 N 
ATOM     12  H   UNL     1      55.695 165.061  41.693  0.00  0.00    +0.152 HD
ENDROOT
BRANCH   1  15
ATOM     13  C   UNL     1      61.598 161.711  40.715  0.00  0.00    +0.433 C 
ATOM     14  O   UNL     1      61.327 161.738  41.949  0.00  0.00    -0.224 OA
ATOM     15  N   UNL     1      60.844 162.437  39.753  0.00  0.00    -0.168 N 
ATOM     16  C   UNL     1      61.191 162.359  38.392  0.00  0.00    +0.262 C 
ATOM     17  O   UNL     1      62.181 161.563  38.126  0.00  0.00    -0.269 OA
BRANCH  16  18
ATOM     18  C   UNL     1      60.593 163.043  37.282  0.00  0.00    +0.060 C 
ATOM     19  C   UNL     1      61.082 164.280  36.905  0.00  0.00    +0.029 C 
ATOM     20  C   UNL     1      60.491 164.973  35.841  0.00  0.00    +0.043 C 
ATOM     21  C   UNL     1      59.438 164.455  35.157  0.00  0.00    +0.134 C 
ATOM     22  C   UNL     1      58.931 163.223  35.509  0.00  0.00    +0.037 C 
ATOM     23  C   UNL     1      59.532 162.548  36.574  0.00  0.00    +0.008 C 
BRANCH  19  24
ATOM     24  S   UNL     1      62.479 165.043  37.687  0.00  0.00    -0.141 S 
ATOM     25  H   UNL     1      63.626 164.513  37.183  0.00  0.00    +0.107 HD
ENDBRANCH  19  24
BRANCH  21  26
ATOM     26  O   UNL     1      58.884 165.192  34.095  0.00  0.00    -0.505 OA
ATOM     27  H   UNL     1      59.438 165.534  33.422  0.00  0.00    +0.292 HD
ENDBRANCH  21  26
ENDBRANCH  16  18
BRANCH  13  28
ATOM     28  O   UNL     1      62.667 160.934  40.317  0.00  0.00    -0.357 OA
BRANCH  28  29
ATOM     29  N   UNL     1      62.720 159.564  40.331  0.00  0.00    -0.164 NA
ATOM     30  H   UNL     1      62.552 159.227  41.279  0.00  0.00    +0.163 HD
ATOM     31  H   UNL     1      63.641 159.257  40.019  0.00  0.00    +0.163 HD
ENDBRANCH  28  29
ENDBRANCH  13  28
ENDBRANCH   1  15
BRANCH   2  32
ATOM     32  N   UNL     1      58.386 161.233  40.400  0.00  0.00    -0.135 N 
BRANCH  32  33
ATOM     33  N   UNL     1      58.299 160.681  39.100  0.00  0.00    -0.166 N 
ATOM     34  C   UNL     1      59.097 159.538  38.807  0.00  0.00    +0.418 C 
ATOM     35  O   UNL     1      59.874 159.000  39.648  0.00  0.00    -0.225 OA
ATOM     36  H   UNL     1      57.706 161.074  38.421  0.00  0.00    +0.181 HD
BRANCH  34  37
ATOM     37  O   UNL     1      59.020 158.985  37.523  0.00  0.00    -0.465 OA
ATOM     38  H   UNL     1      58.553 158.184  37.385  0.00  0.00    +0.297 HD
ENDBRANCH  34  37
ENDBRANCH  32  33
BRANCH  32  39
ATOM     39  O   UNL     1      58.278 160.384  41.458  0.00  0.00    -0.125 OA
BRANCH  39  40
ATOM     40  N   UNL     1      57.066 159.783  41.760  0.00  0.00    -0.168 N 
ATOM     41  C   UNL     1      56.772 158.493  41.977  0.00  0.00    +0.207 C 
ATOM     42  N   UNL     1      55.457 158.327  42.232  0.00  0.00    -0.220 NA
ATOM     43  C   UNL     1      54.880 159.533  42.179  0.00  0.00    +0.122 C 
ATOM     44  C   UNL     1      55.905 160.440  41.881  0.00  0.00    +0.130 C 
ENDBRANCH  39  40
ENDBRANCH  32  39
ENDBRANCH   2  32
TORSDOF 11
ENDMDL
