MODEL 1
REMARK VINA RESULT:    -8.504      0.000      0.000
REMARK INTER + INTRA:         -16.159
REMARK INTER:                 -12.978
REMARK INTRA:                  -3.181
REMARK UNBOUND:                -3.181
REMARK  Name = =
REMARK  10 active torsions:
REMARK  status: ('A' for Active; 'I' for Inactive)
REMARK    1  A    between atoms: C_1  and  N_29
REMARK    2  A    between atoms: C_2  and  C_8
REMARK    3  A    between atoms: C_6  and  N_16
REMARK    4  A    between atoms: C_7  and  C_23
REMARK    5  A    between atoms: C_9  and  N_15
REMARK    6  A    between atoms: C_20  and  O_22
REMARK    7  A    between atoms: N_29  and  C_31
REMARK    8  A    between atoms: C_31  and  C_32
REMARK    9  A    between atoms: N_33  and  S_35
REMARK   10  A    between atoms: S_35  and  N_38
REMARK                            x       y       z     vdW  Elec       q    Type
REMARK                         _______ _______ _______ _____ _____    ______ ____
ROOT
ATOM      1  C   UNL     1       1.688  -3.338  28.112  0.00  0.00    +0.093 C 
ATOM      2  C   UNL     1       1.740  -4.795  28.190  0.00  0.00    +0.071 C 
ATOM      3  C   UNL     1       1.769  -5.263  26.776  0.00  0.00    +0.125 C 
ATOM      4  O   UNL     1       1.065  -4.184  26.151  0.00  0.00    -0.355 OA
ATOM      5  C   UNL     1       1.927  -3.109  26.600  0.00  0.00    +0.149 C 
ATOM      6  C   UNL     1       3.174  -3.578  25.972  0.00  0.00    +0.120 C 
ATOM      7  C   UNL     1       3.225  -5.015  26.290  0.00  0.00    +0.076 C 
ENDROOT
BRANCH   2   8
ATOM      8  C   UNL     1       1.193  -5.587  29.242  0.00  0.00    +0.032 C 
ATOM      9  C   UNL     1       1.716  -5.665  30.513  0.00  0.00    +0.126 C 
ATOM     10  N   UNL     1       1.059  -6.313  31.491  0.00  0.00    -0.200 NA
ATOM     11  C   UNL     1      -0.124  -6.916  31.303  0.00  0.00    +0.215 C 
ATOM     12  N   UNL     1      -0.663  -6.862  30.079  0.00  0.00    -0.213 NA
ATOM     13  C   UNL     1      -0.031  -6.223  29.091  0.00  0.00    +0.100 C 
ATOM     14  N   UNL     1      -0.811  -7.598  32.345  0.00  0.00    -0.327 N 
ATOM     15  H   UNL     1      -0.420  -7.641  33.247  0.00  0.00    +0.145 HD
ATOM     16  H   UNL     1      -1.679  -8.027  32.163  0.00  0.00    +0.145 HD
BRANCH   9  17
ATOM     17  N   UNL     1       2.979  -5.113  30.865  0.00  0.00    -0.343 N 
ATOM     18  H   UNL     1       3.388  -5.332  31.734  0.00  0.00    +0.144 HD
ATOM     19  H   UNL     1       3.444  -4.511  30.240  0.00  0.00    +0.144 HD
ENDBRANCH   9  17
ENDBRANCH   2   8
BRANCH   6  20
ATOM     20  N   UNL     1       4.320  -2.776  26.111  0.00  0.00    -0.180 N 
ATOM     21  C   UNL     1       5.268  -2.820  27.141  0.00  0.00    +0.309 C 
ATOM     22  O   UNL     1       5.272  -3.616  28.090  0.00  0.00    -0.252 OA
ATOM     23  N   UNL     1       6.380  -1.876  27.165  0.00  0.00    -0.313 N 
ATOM     24  C   UNL     1       4.557  -1.797  25.059  0.00  0.00    +0.409 C 
ATOM     25  O   UNL     1       3.787  -1.689  24.099  0.00  0.00    -0.226 OA
ATOM     26  H   UNL     1       6.467  -1.201  26.454  0.00  0.00    +0.146 HD
ATOM     27  H   UNL     1       7.043  -1.914  27.892  0.00  0.00    +0.146 HD
BRANCH  24  28
ATOM     28  O   UNL     1       5.661  -0.988  25.159  0.00  0.00    -0.466 OA
ATOM     29  H   UNL     1       6.347  -1.051  24.523  0.00  0.00    +0.297 HD
ENDBRANCH  24  28
ENDBRANCH   6  20
BRANCH   7  30
ATOM     30  C   UNL     1       3.500  -5.946  25.159  0.00  0.00    +0.119 C 
ATOM     31  O   UNL     1       3.567  -5.180  23.984  0.00  0.00    -0.356 OA
ATOM     32  C   UNL     1       4.453  -5.801  23.107  0.00  0.00    +0.142 C 
ATOM     33  C   UNL     1       5.843  -5.288  23.527  0.00  0.00    +0.032 C 
ATOM     34  C   UNL     1       5.998  -5.743  24.972  0.00  0.00    +0.005 C 
ATOM     35  C   UNL     1       4.850  -6.655  25.366  0.00  0.00    +0.030 C 
ENDBRANCH   7  30
BRANCH   1  36
ATOM     36  N   UNL     1       0.392  -2.669  28.243  0.00  0.00    -0.264 NA
ATOM     37  C   UNL     1       0.747  -1.268  27.841  0.00  0.00    +0.090 C 
BRANCH  36  38
ATOM     38  C   UNL     1      -0.188  -2.549  29.511  0.00  0.00    +0.135 C 
BRANCH  38  39
ATOM     39  C   UNL     1      -1.663  -2.934  29.497  0.00  0.00    +0.133 C 
ATOM     40  N   UNL     1      -2.231  -3.316  30.729  0.00  0.00    -0.189 N 
ATOM     41  N   UNL     1      -2.353  -2.931  28.441  0.00  0.00    -0.287 NA
ATOM     42  H   UNL     1      -1.662  -3.715  31.427  0.00  0.00    +0.176 HD
ATOM     43  H   UNL     1      -1.945  -2.662  27.587  0.00  0.00    +0.188 HD
BRANCH  40  44
ATOM     44  S   UNL     1      -3.919  -3.093  31.025  0.00  0.00    +0.127 S 
ATOM     45  O   UNL     1      -4.669  -3.938  30.016  0.00  0.00    -0.135 OA
ATOM     46  O   UNL     1      -4.307  -1.646  30.799  0.00  0.00    -0.135 OA
BRANCH  44  47
ATOM     47  N   UNL     1      -4.347  -3.600  32.608  0.00  0.00    -0.165 N 
ATOM     48  C   UNL     1      -3.957  -4.872  33.081  0.00  0.00    +0.320 C 
ATOM     49  O   UNL     1      -3.281  -5.587  32.257  0.00  0.00    -0.263 OA
ATOM     50  H   UNL     1      -4.867  -2.999  33.190  0.00  0.00    +0.178 HD
ENDBRANCH  44  47
ENDBRANCH  40  44
ENDBRANCH  38  39
ENDBRANCH  36  38
ENDBRANCH   1  36
TORSDOF 10
ENDMDL
