REMARK  Name = =
REMARK  1 active torsions:
REMARK  status: ('A' for Active; 'I' for Inactive)
REMARK    1  A    between atoms: C_1  and  C_8
REMARK                            x       y       z     vdW  Elec       q    Type
REMARK                         _______ _______ _______ _____ _____    ______ ____
ROOT
ATOM      1  C   UNL     1      53.400 161.950  41.770  0.00  0.00    +0.072 C 
ATOM      2  C   UNL     1      52.610 160.928  42.247  0.00  0.00    +0.103 C 
ATOM      3  N   UNL     1      53.079 159.687  42.454  0.00  0.00    -0.242 NA
ATOM      4  C   UNL     1      54.359 159.362  42.206  0.00  0.00    +0.099 C 
ATOM      5  C   UNL     1      55.199 160.344  41.727  0.00  0.00    +0.021 C 
ATOM      6  C   UNL     1      54.714 161.618  41.515  0.00  0.00    +0.008 C 
ENDROOT
BRANCH   1   8
ATOM      7  N   UNL     1      51.828 163.822  42.303  0.00  0.00    -0.325 N 
ATOM      8  C   UNL     1      52.906 163.300  41.541  0.00  0.00    +0.244 C 
ATOM      9  O   UNL     1      53.420 164.034  40.663  0.00  0.00    -0.270 OA
ATOM     10  H   UNL     1      51.404 163.270  42.999  0.00  0.00    +0.145 HD
ATOM     11  H   UNL     1      51.504 164.736  42.135  0.00  0.00    +0.145 HD
ENDBRANCH   1   8
TORSDOF 1
