REMARK  Name = =
REMARK  5 active torsions:
REMARK  status: ('A' for Active; 'I' for Inactive)
REMARK    1  A    between atoms: C_1  and  C_8
REMARK    2  A    between atoms: C_6  and  N_10
REMARK    3  A    between atoms: N_10  and  C_11
REMARK    4  A    between atoms: C_11  and  C_12
REMARK    5  A    between atoms: N_14  and  O_15
REMARK                            x       y       z     vdW  Elec       q    Type
REMARK                         _______ _______ _______ _____ _____    ______ ____
ROOT
ATOM      1  C   UNL     1      52.900 162.035  41.968  0.00  0.00    +0.085 C 
ATOM      2  C   UNL     1      54.288 162.179  41.820  0.00  0.00    +0.105 C 
ATOM      3  N   UNL     1      54.880 163.313  41.429  0.00  0.00    -0.242 NA
ATOM      4  C   UNL     1      54.116 164.374  41.162  0.00  0.00    +0.100 C 
ATOM      5  C   UNL     1      52.765 164.284  41.290  0.00  0.00    +0.035 C 
ATOM      6  C   UNL     1      52.124 163.112  41.695  0.00  0.00    +0.052 C 
ENDROOT
BRANCH   1   8
ATOM      7  N   UNL     1      53.323 159.747  42.911  0.00  0.00    -0.325 N 
ATOM      8  C   UNL     1      52.434 160.736  42.392  0.00  0.00    +0.245 C 
ATOM      9  O   UNL     1      51.238 160.356  42.349  0.00  0.00    -0.270 OA
ATOM     10  H   UNL     1      54.285 159.942  42.988  0.00  0.00    +0.145 HD
ATOM     11  H   UNL     1      52.974 158.870  43.192  0.00  0.00    +0.145 HD
ENDBRANCH   1   8
BRANCH   6  12
ATOM     12  N   UNL     1      50.731 163.055  41.834  0.00  0.00    -0.325 N 
ATOM     13  H   UNL     1      50.229 162.269  41.517  0.00  0.00    +0.147 HD
BRANCH  12  14
ATOM     14  C   UNL     1      50.028 164.187  42.461  0.00  0.00    +0.176 C 
BRANCH  14  15
ATOM     15  C   UNL     1      49.132 164.818  41.464  0.00  0.00    +0.264 C 
ATOM     16  O   UNL     1      48.893 164.233  40.380  0.00  0.00    -0.271 OA
ATOM     17  N   UNL     1      48.556 166.080  41.756  0.00  0.00    -0.196 N 
ATOM     18  H   UNL     1      48.753 166.526  42.611  0.00  0.00    +0.182 HD
BRANCH  17  19
ATOM     19  O   UNL     1      47.731 166.673  40.853  0.00  0.00    -0.295 OA
ATOM     20  H   UNL     1      47.644 166.104  40.072  0.00  0.00    +0.241 HD
ENDBRANCH  17  19
ENDBRANCH  14  15
ENDBRANCH  12  14
ENDBRANCH   6  12
TORSDOF 5
