REMARK  Name = =
REMARK  6 active torsions:
REMARK  status: ('A' for Active; 'I' for Inactive)
REMARK    1  A    between atoms: C_1  and  C_8
REMARK    2  A    between atoms: C_6  and  N_15
REMARK    3  A    between atoms: N_7  and  C_14
REMARK    4  A    between atoms: N_15  and  C_16
REMARK    5  A    between atoms: C_16  and  C_17
REMARK    6  A    between atoms: N_19  and  O_20
REMARK                            x       y       z     vdW  Elec       q    Type
REMARK                         _______ _______ _______ _____ _____    ______ ____
ROOT
ATOM      1  C   UNL     1      52.561 162.314  41.845  0.00  0.00    +0.086 C 
ATOM      2  C   UNL     1      53.525 161.314  42.100  0.00  0.00    +0.105 C 
ATOM      3  N   UNL     1      53.104 160.080  42.423  0.00  0.00    -0.242 NA
ATOM      4  C   UNL     1      51.804 159.785  42.507  0.00  0.00    +0.100 C 
ATOM      5  C   UNL     1      50.846 160.736  42.264  0.00  0.00    +0.035 C 
ATOM      6  C   UNL     1      51.234 162.043  41.921  0.00  0.00    +0.052 C 
ENDROOT
BRANCH   1   8
ATOM      7  N   UNL     1      54.441 163.958  41.317  0.00  0.00    -0.276 N 
ATOM      8  C   UNL     1      53.060 163.634  41.498  0.00  0.00    +0.252 C 
ATOM      9  O   UNL     1      52.282 164.595  41.331  0.00  0.00    -0.270 OA
ATOM     10  H   UNL     1      55.108 163.244  41.434  0.00  0.00    +0.155 HD
BRANCH   7  15
ATOM     11  C   UNL     1      54.208 166.424  40.701  0.00  0.00    +0.228 C 
ATOM     12  O   UNL     1      55.107 167.375  40.439  0.00  0.00    -0.349 OA
ATOM     13  N   UNL     1      56.298 166.894  40.530  0.00  0.00    -0.074 NA
ATOM     14  C   UNL     1      56.234 165.612  40.855  0.00  0.00    +0.158 C 
ATOM     15  C   UNL     1      54.903 165.274  40.973  0.00  0.00    +0.114 C 
ENDBRANCH   7  15
ENDBRANCH   1   8
BRANCH   6  16
ATOM     16  N   UNL     1      50.224 163.009  41.677  0.00  0.00    -0.325 N 
ATOM     17  H   UNL     1      50.428 163.972  41.650  0.00  0.00    +0.147 HD
BRANCH  16  18
ATOM     18  C   UNL     1      48.886 162.515  41.471  0.00  0.00    +0.176 C 
BRANCH  18  19
ATOM     19  C   UNL     1      47.957 163.560  41.089  0.00  0.00    +0.264 C 
ATOM     20  O   UNL     1      46.705 163.231  41.055  0.00  0.00    -0.271 OA
ATOM     21  N   UNL     1      48.229 164.891  40.746  0.00  0.00    -0.196 N 
ATOM     22  H   UNL     1      49.156 165.222  40.745  0.00  0.00    +0.182 HD
BRANCH  21  23
ATOM     23  O   UNL     1      47.198 165.731  40.411  0.00  0.00    -0.295 OA
ATOM     24  H   UNL     1      46.358 165.248  40.462  0.00  0.00    +0.241 HD
ENDBRANCH  21  23
ENDBRANCH  18  19
ENDBRANCH  16  18
ENDBRANCH   6  16
TORSDOF 6
