REMARK  Name = =
REMARK  1 active torsions:
REMARK  status: ('A' for Active; 'I' for Inactive)
REMARK    1  A    between atoms: C_3  and  N_7
REMARK                            x       y       z     vdW  Elec       q    Type
REMARK                         _______ _______ _______ _____ _____    ______ ____
ROOT
ATOM      1  N   UNL     1      -8.028 -40.281  26.867  0.00  0.00    -0.145 NA
ATOM      2  N   UNL     1      -8.997 -40.826  27.560  0.00  0.00    -0.133 NA
ATOM      3  C   UNL     1      -9.165 -42.137  27.789  0.00  0.00    +0.153 C 
ATOM      4  C   UNL     1      -8.226 -42.987  27.240  0.00  0.00    +0.038 C 
ATOM      5  C   UNL     1      -7.193 -42.430  26.504  0.00  0.00    +0.025 C 
ATOM      6  C   UNL     1      -7.096 -41.069  26.318  0.00  0.00    +0.122 C 
ENDROOT
BRANCH   3   7
ATOM      7  N   UNL     1     -10.271 -42.589  28.564  0.00  0.00    -0.292 N 
ATOM      8  C   UNL     1     -10.145 -43.958  28.954  0.00  0.00    +0.092 C 
ATOM      9  C   UNL     1     -11.351 -44.403  29.705  0.00  0.00    +0.022 C 
ATOM     10  C   UNL     1     -12.213 -43.297  30.216  0.00  0.00    +0.004 C 
ATOM     11  C   UNL     1     -11.437 -42.088  30.670  0.00  0.00    +0.022 C 
ATOM     12  C   UNL     1     -10.265 -41.786  29.785  0.00  0.00    +0.092 C 
ENDBRANCH   3   7
TORSDOF 1
