MODEL 1
REMARK VINA RESULT:   -10.346      0.000      0.000
REMARK INTER + INTRA:         -12.774
REMARK INTER:                 -12.160
REMARK INTRA:                  -0.613
REMARK UNBOUND:                -0.613
REMARK  Name = =
REMARK  3 active torsions:
REMARK  status: ('A' for Active; 'I' for Inactive)
REMARK    1  A    between atoms: C_1  and  C_5
REMARK    2  A    between atoms: C_1  and  O_15
REMARK    3  A    between atoms: O_15  and  C_18
REMARK                            x       y       z     vdW  Elec       q    Type
REMARK                         _______ _______ _______ _____ _____    ______ ____
ROOT
ATOM      1  C   UNL     1      51.482 155.059  28.509  0.00  0.00    +0.201 C 
ATOM      2  C   UNL     1      51.658 154.015  29.325  0.00  0.00    +0.313 C 
ATOM      3  F   UNL     1      51.663 154.138  30.671  0.00  0.00    -0.169 F 
ATOM      4  F   UNL     1      51.840 152.782  28.797  0.00  0.00    -0.169 F 
ENDROOT
BRANCH   1   5
ATOM      5  C   UNL     1      51.284 156.404  29.070  0.00  0.00    +0.039 C 
ATOM      6  C   UNL     1      50.070 156.766  29.638  0.00  0.00    +0.003 C 
ATOM      7  C   UNL     1      49.885 158.016  30.155  0.00  0.00    +0.022 C 
ATOM      8  C   UNL     1      50.885 158.963  30.135  0.00  0.00    +0.210 C 
ATOM      9  C   UNL     1      52.127 158.632  29.570  0.00  0.00    +0.021 C 
ATOM     10  C   UNL     1      52.274 157.363  29.058  0.00  0.00    +0.003 C 
ATOM     11  O   UNL     1      50.631 160.181  30.669  0.00  0.00    -0.467 OA
ATOM     12  C   UNL     1      49.450 160.640  31.230  0.00  0.00    +0.173 C 
ATOM     13  C   UNL     1      48.409 159.614  31.238  0.00  0.00    +0.040 C 
ATOM     14  C   UNL     1      48.613 158.418  30.744  0.00  0.00    +0.003 C 
ENDBRANCH   1   5
BRANCH   1  15
ATOM     15  O   UNL     1      51.491 154.834  27.147  0.00  0.00    -0.448 OA
BRANCH  15  18
ATOM     16 CL   UNL     1      52.511 152.251  26.165  0.00  0.00    -0.079 Cl
ATOM     17  C   UNL     1      53.154 153.826  25.758  0.00  0.00    +0.092 C 
ATOM     18  C   UNL     1      52.562 154.944  26.300  0.00  0.00    +0.156 C 
ATOM     19  C   UNL     1      53.067 156.174  25.980  0.00  0.00    +0.038 C 
ATOM     20  C   UNL     1      54.154 156.280  25.122  0.00  0.00    +0.003 C 
ATOM     21  C   UNL     1      54.740 155.164  24.584  0.00  0.00    +0.001 C 
ATOM     22  C   UNL     1      54.245 153.923  24.898  0.00  0.00    +0.014 C 
ENDBRANCH  15  18
ENDBRANCH   1  15
TORSDOF 3
ENDMDL
