REMARK  Name = =
REMARK  0 active torsions:
REMARK  status: ('A' for Active; 'I' for Inactive)
REMARK                            x       y       z     vdW  Elec       q    Type
REMARK                         _______ _______ _______ _____ _____    ______ ____
ROOT
ATOM      1  C   UNL     1      -3.588  -3.761  31.170  0.00  0.00    +0.140 C 
ATOM      2  N   UNL     1      -2.291  -3.243  30.815  0.00  0.00    -0.267 N 
ATOM      3  C   UNL     1      -1.583  -4.351  30.291  0.00  0.00    +0.402 C 
ATOM      4  O   UNL     1      -0.419  -4.312  29.781  0.00  0.00    -0.226 OA
ATOM      5  O   UNL     1      -2.387  -5.509  30.430  0.00  0.00    -0.433 OA
ATOM      6  C   UNL     1      -3.212  -5.171  31.556  0.00  0.00    +0.231 C 
ATOM      7  H   UNL     1      -1.967  -2.319  30.915  0.00  0.00    +0.153 HD
ENDROOT
TORSDOF 0
