REMARK  Name = =
REMARK  1 active torsions:
REMARK  status: ('A' for Active; 'I' for Inactive)
REMARK    1  A    between atoms: C_1  and  C_7
REMARK                            x       y       z     vdW  Elec       q    Type
REMARK                         _______ _______ _______ _____ _____    ______ ____
ROOT
ATOM      1  C   UNL     1      -3.747  -3.385  31.490  0.00  0.00    +0.130 C 
ATOM      2  N   UNL     1      -3.378  -2.437  30.459  0.00  0.00    -0.268 N 
ATOM      3  C   UNL     1      -2.309  -3.040  29.740  0.00  0.00    +0.402 C 
ATOM      4  O   UNL     1      -1.644  -2.463  28.833  0.00  0.00    -0.226 OA
ATOM      5  O   UNL     1      -2.132  -4.358  30.207  0.00  0.00    -0.433 OA
ATOM      6  C   UNL     1      -3.355  -4.701  30.830  0.00  0.00    +0.230 C 
ATOM      7  H   UNL     1      -3.784  -1.556  30.290  0.00  0.00    +0.153 HD
ENDROOT
BRANCH   1   8
ATOM      8  C   UNL     1      -5.215  -3.335  31.801  0.00  0.00    +0.086 C 
ATOM      9  S   UNL     1      -5.781  -1.630  31.413  0.00  0.00    -0.121 S 
ATOM     10  C   UNL     1      -6.441  -1.253  33.090  0.00  0.00    +0.128 C 
ATOM     11  N   UNL     1      -6.623  -2.598  33.577  0.00  0.00    -0.287 NA
ATOM     12  C   UNL     1      -5.431  -3.351  33.296  0.00  0.00    +0.082 C 
ATOM     13  H   UNL     1      -7.420  -3.028  33.108  0.00  0.00    +0.124 HD
ENDBRANCH   1   8
TORSDOF 1
