REMARK  Name = =
REMARK  2 active torsions:
REMARK  status: ('A' for Active; 'I' for Inactive)
REMARK    1  A    between atoms: C_1  and  N_7
REMARK    2  A    between atoms: C_1  and  C_13
REMARK                            x       y       z     vdW  Elec       q    Type
REMARK                         _______ _______ _______ _____ _____    ______ ____
ROOT
ATOM      1  C   UNL     1       0.123  -6.271  29.472  0.00  0.00    +0.174 C 
ATOM      2  N   UNL     1      -0.115  -6.459  28.058  0.00  0.00    -0.255 N 
ATOM      3  C   UNL     1       1.110  -6.051  27.425  0.00  0.00    +0.403 C 
ATOM      4  O   UNL     1       1.237  -5.786  26.201  0.00  0.00    -0.226 OA
ATOM      5  O   UNL     1       2.100  -6.009  28.404  0.00  0.00    -0.431 OA
ATOM      6  C   UNL     1       1.587  -6.625  29.589  0.00  0.00    +0.248 C 
ATOM      7  H   UNL     1      -0.934  -6.792  27.625  0.00  0.00    +0.154 HD
ENDROOT
BRANCH   1   8
ATOM      8  N   UNL     1      -0.719  -7.083  30.291  0.00  0.00    -0.256 N 
ATOM      9  C   UNL     1      -1.313  -6.802  31.579  0.00  0.00    +0.122 C 
ATOM     10  C   UNL     1      -2.084  -8.006  31.950  0.00  0.00    +0.000 C 
ATOM     11  C   UNL     1      -1.986  -8.915  31.017  0.00  0.00    +0.055 C 
ATOM     12  C   UNL     1      -1.139  -8.394  29.948  0.00  0.00    +0.250 C 
ATOM     13  O   UNL     1      -0.870  -9.070  28.907  0.00  0.00    -0.270 OA
ENDBRANCH   1   8
BRANCH   1  14
ATOM     14  C   UNL     1      -0.086  -4.817  29.780  0.00  0.00    +0.102 C 
ATOM     15  S   UNL     1       1.487  -3.910  29.889  0.00  0.00    -0.119 S 
ATOM     16  C   UNL     1       0.826  -2.435  29.005  0.00  0.00    +0.128 C 
ATOM     17  N   UNL     1      -0.063  -3.089  28.115  0.00  0.00    -0.287 NA
ATOM     18  C   UNL     1      -0.833  -4.066  28.754  0.00  0.00    +0.084 C 
ATOM     19  H   UNL     1      -0.688  -2.394  27.707  0.00  0.00    +0.124 HD
ENDBRANCH   1  14
TORSDOF 2
