REMARK  Name = =
REMARK  3 active torsions:
REMARK  status: ('A' for Active; 'I' for Inactive)
REMARK    1  A    between atoms: C_1  and  C_15
REMARK    2  A    between atoms: C_3  and  N_6
REMARK    3  A    between atoms: C_15  and  N_21
REMARK                            x       y       z     vdW  Elec       q    Type
REMARK                         _______ _______ _______ _____ _____    ______ ____
ROOT
ATOM      1  C   UNL     1       0.141  -3.103  29.023  0.00  0.00    +0.104 C 
ATOM      2  S   UNL     1      -1.080  -2.386  27.885  0.00  0.00    -0.101 S 
ATOM      3  C   UNL     1      -2.571  -3.183  28.613  0.00  0.00    +0.182 C 
ATOM      4  N   UNL     1      -1.942  -4.246  29.326  0.00  0.00    -0.273 NA
ATOM      5  C   UNL     1      -0.784  -3.777  30.006  0.00  0.00    +0.085 C 
ATOM      6  H   UNL     1      -1.671  -4.977  28.668  0.00  0.00    +0.126 HD
ENDROOT
BRANCH   3   7
ATOM      7  N   UNL     1      -3.238  -2.288  29.537  0.00  0.00    -0.269 N 
ATOM      8  C   UNL     1      -4.320  -2.830  30.281  0.00  0.00    +0.306 C 
ATOM      9  O   UNL     1      -4.648  -4.043  30.113  0.00  0.00    -0.253 OA
ATOM     10  N   UNL     1      -5.075  -2.087  31.224  0.00  0.00    -0.259 N 
ATOM     11  C   UNL     1      -6.179  -2.720  31.956  0.00  0.00    +0.127 C 
ATOM     12  C   UNL     1      -6.737  -1.770  32.966  0.00  0.00    +0.164 C 
ATOM     13  O   UNL     1      -7.096  -0.552  32.448  0.00  0.00    -0.350 OA
ATOM     14  C   UNL     1      -6.128   0.081  31.717  0.00  0.00    +0.164 C 
ATOM     15  C   UNL     1      -4.846  -0.697  31.545  0.00  0.00    +0.127 C 
ATOM     16  H   UNL     1      -2.955  -1.351  29.644  0.00  0.00    +0.153 HD
ENDBRANCH   3   7
BRANCH   1  17
ATOM     17  C   UNL     1       1.124  -4.009  28.380  0.00  0.00    +0.174 C 
ATOM     18  N   UNL     1       1.523  -4.989  29.401  0.00  0.00    -0.255 N 
ATOM     19  C   UNL     1       1.702  -6.228  28.757  0.00  0.00    +0.403 C 
ATOM     20  O   UNL     1       2.220  -7.240  29.299  0.00  0.00    -0.226 OA
ATOM     21  O   UNL     1       1.221  -6.116  27.482  0.00  0.00    -0.431 OA
ATOM     22  C   UNL     1       0.600  -4.854  27.273  0.00  0.00    +0.248 C 
ATOM     23  H   UNL     1       1.643  -4.811  30.362  0.00  0.00    +0.154 HD
BRANCH  17  24
ATOM     24  N   UNL     1       2.326  -3.335  27.972  0.00  0.00    -0.256 N 
ATOM     25  C   UNL     1       2.542  -1.920  27.928  0.00  0.00    +0.122 C 
ATOM     26  C   UNL     1       3.928  -1.737  27.460  0.00  0.00    +0.000 C 
ATOM     27  C   UNL     1       4.489  -2.907  27.242  0.00  0.00    +0.055 C 
ATOM     28  C   UNL     1       3.528  -3.958  27.547  0.00  0.00    +0.250 C 
ATOM     29  O   UNL     1       3.794  -5.203  27.427  0.00  0.00    -0.270 OA
ENDBRANCH  17  24
ENDBRANCH   1  17
TORSDOF 3
