REMARK  Name = =
REMARK  5 active torsions:
REMARK  status: ('A' for Active; 'I' for Inactive)
REMARK    1  A    between atoms: C_1  and  C_15
REMARK    2  A    between atoms: C_1  and  C_26
REMARK    3  A    between atoms: C_3  and  N_6
REMARK    4  A    between atoms: C_23  and  O_25
REMARK    5  A    between atoms: C_26  and  N_32
REMARK                            x       y       z     vdW  Elec       q    Type
REMARK                         _______ _______ _______ _____ _____    ______ ____
ROOT
ATOM      1  C   UNL     1      -1.964  -4.841  30.046  0.00  0.00    +0.110 C 
ATOM      2  S   UNL     1      -0.731  -3.340  29.990  0.00  0.00    -0.098 S 
ATOM      3  C   UNL     1       0.362  -4.186  28.816  0.00  0.00    +0.182 C 
ATOM      4  N   UNL     1      -0.389  -5.336  28.387  0.00  0.00    -0.273 NA
ATOM      5  C   UNL     1      -1.799  -5.029  28.615  0.00  0.00    +0.088 C 
ATOM      6  H   UNL     1      -0.224  -5.513  27.396  0.00  0.00    +0.126 HD
ENDROOT
BRANCH   3   7
ATOM      7  N   UNL     1       0.779  -3.339  27.737  0.00  0.00    -0.269 N 
ATOM      8  C   UNL     1       2.175  -3.190  27.508  0.00  0.00    +0.309 C 
ATOM      9  O   UNL     1       2.998  -3.812  28.266  0.00  0.00    -0.252 OA
ATOM     10  N   UNL     1       2.724  -2.391  26.485  0.00  0.00    -0.235 N 
ATOM     11  C   UNL     1       4.144  -2.297  26.316  0.00  0.00    +0.147 C 
ATOM     12  C   UNL     1       4.528  -1.566  25.054  0.00  0.00    +0.227 C 
ATOM     13  O   UNL     1       3.773  -0.391  24.997  0.00  0.00    -0.469 OA
ATOM     14  C   UNL     1       2.452  -0.647  24.740  0.00  0.00    +0.188 C 
ATOM     15  C   UNL     1       1.823  -1.679  25.623  0.00  0.00    +0.109 C 
ATOM     16  H   UNL     1       0.120  -2.875  27.172  0.00  0.00    +0.153 HD
ENDBRANCH   3   7
BRANCH   1  17
ATOM     17  C   UNL     1      -1.219  -5.697  30.984  0.00  0.00    -0.006 C 
ATOM     18  C   UNL     1      -1.598  -7.015  31.197  0.00  0.00    +0.018 C 
ATOM     19  C   UNL     1      -0.990  -7.821  32.174  0.00  0.00    +0.081 C 
ATOM     20  N   UNL     1      -0.006  -7.308  32.933  0.00  0.00    -0.244 NA
ATOM     21  C   UNL     1       0.398  -6.057  32.771  0.00  0.00    +0.099 C 
ATOM     22  C   UNL     1      -0.184  -5.256  31.820  0.00  0.00    +0.017 C 
ATOM     23  C   UNL     1      -1.384  -9.138  32.322  0.00  0.00    +0.022 C 
ATOM     24  C   UNL     1      -2.370  -9.649  31.502  0.00  0.00    +0.038 C 
ATOM     25  C   UNL     1      -2.967  -8.866  30.538  0.00  0.00    +0.134 C 
ATOM     26  C   UNL     1      -2.579  -7.552  30.387  0.00  0.00    +0.038 C 
BRANCH  25  27
ATOM     27  O   UNL     1      -3.935  -9.408  29.746  0.00  0.00    -0.506 OA
ATOM     28  H   UNL     1      -4.188 -10.303  29.861  0.00  0.00    +0.292 HD
ENDBRANCH  25  27
ENDBRANCH   1  17
BRANCH   1  29
ATOM     29  C   UNL     1      -3.115  -4.101  30.606  0.00  0.00    +0.177 C 
ATOM     30  N   UNL     1      -2.850  -4.109  32.094  0.00  0.00    -0.254 N 
ATOM     31  C   UNL     1      -3.604  -5.184  32.626  0.00  0.00    +0.403 C 
ATOM     32  O   UNL     1      -3.478  -5.667  33.756  0.00  0.00    -0.226 OA
ATOM     33  O   UNL     1      -4.517  -5.611  31.666  0.00  0.00    -0.431 OA
ATOM     34  C   UNL     1      -4.492  -4.628  30.596  0.00  0.00    +0.248 C 
ATOM     35  H   UNL     1      -2.269  -3.491  32.594  0.00  0.00    +0.154 HD
BRANCH  29  36
ATOM     36  N   UNL     1      -3.199  -2.699  30.255  0.00  0.00    -0.256 N 
ATOM     37  C   UNL     1      -3.755  -1.624  31.069  0.00  0.00    +0.122 C 
ATOM     38  C   UNL     1      -3.572  -0.400  30.289  0.00  0.00    +0.000 C 
ATOM     39  C   UNL     1      -2.992  -0.637  29.132  0.00  0.00    +0.055 C 
ATOM     40  C   UNL     1      -2.739  -2.070  29.062  0.00  0.00    +0.250 C 
ATOM     41  O   UNL     1      -2.196  -2.614  28.072  0.00  0.00    -0.270 OA
ENDBRANCH  29  36
ENDBRANCH   1  29
TORSDOF 5
