REMARK  Name = =
REMARK  2 active torsions:
REMARK  status: ('A' for Active; 'I' for Inactive)
REMARK    1  A    between atoms: C_9  and  O_13
REMARK    2  A    between atoms: C_11  and  O_12
REMARK                            x       y       z     vdW  Elec       q    Type
REMARK                         _______ _______ _______ _____ _____    ______ ____
ROOT
ATOM      1  O   UNL     1      52.861 156.914  29.057  0.00  0.00    -0.475 OA
ATOM      2  C   UNL     1      52.379 155.725  28.474  0.00  0.00    +0.214 C 
ATOM      3  C   UNL     1      51.336 155.168  29.450  0.00  0.00    +0.117 C 
ATOM      4  C   UNL     1      50.219 156.172  29.506  0.00  0.00    +0.183 C 
ATOM      5  O   UNL     1      49.033 155.907  29.299  0.00  0.00    -0.291 OA
ATOM      6  C   UNL     1      50.626 157.542  29.831  0.00  0.00    +0.103 C 
ATOM      7  C   UNL     1      51.963 157.828  29.575  0.00  0.00    +0.147 C 
ATOM      8  C   UNL     1      52.397 159.125  29.869  0.00  0.00    +0.074 C 
ATOM      9  C   UNL     1      51.548 160.077  30.388  0.00  0.00    +0.140 C 
ATOM     10  C   UNL     1      50.237 159.742  30.621  0.00  0.00    +0.073 C 
ATOM     11  C   UNL     1      49.736 158.459  30.349  0.00  0.00    +0.142 C 
ENDROOT
BRANCH  11  12
ATOM     12  O   UNL     1      48.443 158.146  30.588  0.00  0.00    -0.505 OA
ATOM     13  H   UNL     1      48.127 157.284  30.400  0.00  0.00    +0.292 HD
ENDBRANCH  11  12
BRANCH   9  14
ATOM     14  O   UNL     1      51.995 161.377  30.679  0.00  0.00    -0.505 OA
ATOM     15  H   UNL     1      52.889 161.611  30.522  0.00  0.00    +0.292 HD
ENDBRANCH   9  14
TORSDOF 2
