REMARK  Name = =
REMARK  3 active torsions:
REMARK  status: ('A' for Active; 'I' for Inactive)
REMARK    1  A    between atoms: P_1  and  C_3
REMARK    2  A    between atoms: P_1  and  O_5
REMARK    3  A    between atoms: P_1  and  O_6
REMARK                            x       y       z     vdW  Elec       q    Type
REMARK                         _______ _______ _______ _____ _____    ______ ____
ROOT
ATOM      1  P   UNL     1      53.134 154.764  25.852  0.00  0.00    +0.360 P 
ATOM      2  O   UNL     1      52.417 154.789  24.518  0.00  0.00    -0.253 OA
ENDROOT
BRANCH   1   3
ATOM      3  C   UNL     1      52.067 153.930  27.019  0.00  0.00    +0.087 C 
ATOM      4  C   UNL     1      52.122 152.634  27.248  0.00  0.00    +0.008 C 
ENDBRANCH   1   3
BRANCH   1   5
ATOM      5  O   UNL     1      53.440 156.354  26.291  0.00  0.00    -0.321 OA
ATOM      6  H   UNL     1      52.603 156.842  26.343  0.00  0.00    +0.220 HD
ENDBRANCH   1   5
BRANCH   1   7
ATOM      7  O   UNL     1      54.586 153.888  25.755  0.00  0.00    -0.321 OA
ATOM      8  H   UNL     1      55.023 153.889  26.621  0.00  0.00    +0.220 HD
ENDBRANCH   1   7
TORSDOF 3
