REMARK  Name = =
REMARK  4 active torsions:
REMARK  status: ('A' for Active; 'I' for Inactive)
REMARK    1  A    between atoms: C_1  and  C_4
REMARK    2  A    between atoms: C_1  and  P_9
REMARK    3  A    between atoms: P_9  and  O_11
REMARK    4  A    between atoms: P_9  and  O_12
REMARK                            x       y       z     vdW  Elec       q    Type
REMARK                         _______ _______ _______ _____ _____    ______ ____
ROOT
ATOM      1  C   UNL     1      52.166 155.371  28.582  0.00  0.00    +0.113 C 
ATOM      2  C   UNL     1      51.462 154.650  29.431  0.00  0.00    +0.008 C 
ENDROOT
BRANCH   1   4
ATOM      3  O   UNL     1      52.103 154.819  26.255  0.00  0.00    -0.327 OA
ATOM      4  C   UNL     1      52.806 154.708  27.449  0.00  0.00    +0.267 C 
ATOM      5  O   UNL     1      52.998 153.355  27.757  0.00  0.00    -0.327 OA
ATOM      6  C   UNL     1      53.918 152.805  26.846  0.00  0.00    +0.148 C 
ATOM      7  C   UNL     1      53.443 152.994  25.417  0.00  0.00    +0.064 C 
ATOM      8  C   UNL     1      53.014 154.447  25.252  0.00  0.00    +0.148 C 
ENDBRANCH   1   4
BRANCH   1   9
ATOM      9  P   UNL     1      52.274 157.126  28.896  0.00  0.00    +0.360 P 
ATOM     10  O   UNL     1      51.964 157.838  27.590  0.00  0.00    -0.254 OA
BRANCH   9  11
ATOM     11  O   UNL     1      51.058 157.565  29.986  0.00  0.00    -0.321 OA
ATOM     12  H   UNL     1      51.216 157.131  30.839  0.00  0.00    +0.220 HD
ENDBRANCH   9  11
BRANCH   9  13
ATOM     13  O   UNL     1      53.781 157.561  29.502  0.00  0.00    -0.321 OA
ATOM     14  H   UNL     1      53.944 157.088  30.333  0.00  0.00    +0.220 HD
ENDBRANCH   9  13
ENDBRANCH   1   9
TORSDOF 4
