REMARK  Name = =
REMARK  6 active torsions:
REMARK  status: ('A' for Active; 'I' for Inactive)
REMARK    1  A    between atoms: C_2  and  N_7
REMARK    2  A    between atoms: C_2  and  C_12
REMARK    3  A    between atoms: N_10  and  N_11
REMARK    4  A    between atoms: C_12  and  P_14
REMARK    5  A    between atoms: P_14  and  O_16
REMARK    6  A    between atoms: P_14  and  O_17
REMARK                            x       y       z     vdW  Elec       q    Type
REMARK                         _______ _______ _______ _____ _____    ______ ____
ROOT
ATOM      1  O   UNL     1      53.266 154.081  27.597  0.00  0.00    -0.316 OA
ATOM      2  C   UNL     1      52.195 154.042  26.743  0.00  0.00    +0.286 C 
ATOM      3  O   UNL     1      51.992 152.743  26.308  0.00  0.00    -0.316 OA
ATOM      4  C   UNL     1      53.049 152.161  25.665  0.00  0.00    +0.149 C 
ATOM      5  C   UNL     1      54.342 152.409  26.406  0.00  0.00    +0.064 C 
ATOM      6  C   UNL     1      53.922 152.901  27.789  0.00  0.00    +0.149 C 
ENDROOT
BRANCH   2   7
ATOM      7  N   UNL     1      50.975 154.514  27.378  0.00  0.00    -0.243 N 
ATOM      8  C   UNL     1      50.931 155.307  28.550  0.00  0.00    +0.317 C 
ATOM      9  O   UNL     1      51.979 155.646  29.105  0.00  0.00    -0.251 OA
ATOM     10  N   UNL     1      49.668 155.721  29.098  0.00  0.00    -0.237 N 
ATOM     11  H   UNL     1      50.118 154.264  26.963  0.00  0.00    +0.156 HD
ATOM     12  H   UNL     1      48.830 155.452  28.657  0.00  0.00    +0.170 HD
BRANCH  10  13
ATOM     13  N   UNL     1      49.627 156.498  30.246  0.00  0.00    -0.253 NA
ATOM     14  H   UNL     1      50.578 156.682  30.566  0.00  0.00    +0.141 HD
ATOM     15  H   UNL     1      49.113 156.002  30.974  0.00  0.00    +0.141 HD
ENDBRANCH  10  13
ENDBRANCH   2   7
BRANCH   2  16
ATOM     16  C   UNL     1      52.386 154.880  25.534  0.00  0.00    +0.128 C 
ATOM     17  C   UNL     1      51.562 154.789  24.523  0.00  0.00    +0.010 C 
BRANCH  16  18
ATOM     18  P   UNL     1      53.716 156.051  25.510  0.00  0.00    +0.362 P 
ATOM     19  O   UNL     1      53.764 156.773  26.852  0.00  0.00    -0.254 OA
BRANCH  18  20
ATOM     20  O   UNL     1      53.414 157.226  24.339  0.00  0.00    -0.321 OA
ATOM     21  H   UNL     1      52.557 157.644  24.514  0.00  0.00    +0.220 HD
ENDBRANCH  18  20
BRANCH  18  22
ATOM     22  O   UNL     1      55.202 155.344  25.185  0.00  0.00    -0.321 OA
ATOM     23  H   UNL     1      55.390 154.665  25.852  0.00  0.00    +0.220 HD
ENDBRANCH  18  22
ENDBRANCH  16  18
ENDBRANCH   2  16
TORSDOF 6
