REMARK  Name = =
REMARK  6 active torsions:
REMARK  status: ('A' for Active; 'I' for Inactive)
REMARK    1  A    between atoms: C_2  and  P_12
REMARK    2  A    between atoms: C_9  and  O_19
REMARK    3  A    between atoms: C_11  and  O_18
REMARK    4  A    between atoms: P_12  and  S_14
REMARK    5  A    between atoms: S_14  and  C_15
REMARK    6  A    between atoms: C_15  and  N_17
REMARK                            x       y       z     vdW  Elec       q    Type
REMARK                         _______ _______ _______ _____ _____    ______ ____
ROOT
ATOM      1  O   UNL     1      50.961 158.605  28.853  0.00  0.00    -0.470 OA
ATOM      2  C   UNL     1      50.590 157.251  29.047  0.00  0.00    +0.231 C 
ATOM      3  C   UNL     1      49.517 157.084  30.086  0.00  0.00    +0.121 C 
ATOM      4  C   UNL     1      49.249 158.306  30.854  0.00  0.00    +0.183 C 
ATOM      5  O   UNL     1      48.149 158.449  31.423  0.00  0.00    -0.291 OA
ATOM      6  C   UNL     1      50.238 159.355  30.967  0.00  0.00    +0.103 C 
ATOM      7  C   UNL     1      51.131 159.497  29.902  0.00  0.00    +0.148 C 
ATOM      8  C   UNL     1      52.088 160.468  29.947  0.00  0.00    +0.074 C 
ATOM      9  C   UNL     1      52.156 161.296  31.047  0.00  0.00    +0.140 C 
ATOM     10  C   UNL     1      51.269 161.146  32.093  0.00  0.00    +0.073 C 
ATOM     11  C   UNL     1      50.273 160.160  32.082  0.00  0.00    +0.142 C 
ENDROOT
BRANCH   2  12
ATOM     12  P   UNL     1      52.093 156.393  29.600  0.00  0.00    +0.182 P 
ATOM     13  O   UNL     1      53.321 157.099  29.023  0.00  0.00    -0.309 OA
ATOM     14  H   UNL     1      51.512 156.703  30.812  0.00  0.00    +0.114 HD
BRANCH  12  15
ATOM     15  S   UNL     1      52.148 154.404  28.943  0.00  0.00    -0.036 S 
BRANCH  15  16
ATOM     16  C   UNL     1      52.230 154.399  27.180  0.00  0.00    +0.111 C 
ATOM     17  S   UNL     1      52.249 152.999  26.367  0.00  0.00    -0.028 S 
BRANCH  16  18
ATOM     18  N   UNL     1      52.281 155.602  26.461  0.00  0.00    -0.347 N 
ATOM     19  H   UNL     1      52.270 156.462  26.940  0.00  0.00    +0.143 HD
ATOM     20  H   UNL     1      52.327 155.586  25.478  0.00  0.00    +0.143 HD
ENDBRANCH  16  18
ENDBRANCH  15  16
ENDBRANCH  12  15
ENDBRANCH   2  12
BRANCH  11  21
ATOM     21  O   UNL     1      49.413 160.046  33.143  0.00  0.00    -0.505 OA
ATOM     22  H   UNL     1      48.747 159.387  33.137  0.00  0.00    +0.292 HD
ENDBRANCH  11  21
BRANCH   9  23
ATOM     23  O   UNL     1      53.147 162.282  31.063  0.00  0.00    -0.505 OA
ATOM     24  H   UNL     1      53.738 162.364  30.340  0.00  0.00    +0.292 HD
ENDBRANCH   9  23
TORSDOF 6
