REMARK  Name = =
REMARK  8 active torsions:
REMARK  status: ('A' for Active; 'I' for Inactive)
REMARK    1  A    between atoms: C_2  and  P_12
REMARK    2  A    between atoms: C_9  and  O_21
REMARK    3  A    between atoms: C_11  and  O_20
REMARK    4  A    between atoms: P_12  and  S_14
REMARK    5  A    between atoms: S_14  and  C_15
REMARK    6  A    between atoms: C_15  and  N_17
REMARK    7  A    between atoms: N_17  and  C_18
REMARK    8  A    between atoms: C_18  and  O_19
REMARK                            x       y       z     vdW  Elec       q    Type
REMARK                         _______ _______ _______ _____ _____    ______ ____
ROOT
ATOM      1  O   UNL     1      51.765 157.849  30.661  0.00  0.00    -0.470 OA
ATOM      2  C   UNL     1      51.370 157.036  29.581  0.00  0.00    +0.231 C 
ATOM      3  C   UNL     1      49.911 157.127  29.238  0.00  0.00    +0.121 C 
ATOM      4  C   UNL     1      49.243 158.258  29.940  0.00  0.00    +0.183 C 
ATOM      5  O   UNL     1      48.028 158.200  30.163  0.00  0.00    -0.291 OA
ATOM      6  C   UNL     1      50.017 159.403  30.352  0.00  0.00    +0.103 C 
ATOM      7  C   UNL     1      51.331 159.163  30.724  0.00  0.00    +0.148 C 
ATOM      8  C   UNL     1      52.112 160.215  31.127  0.00  0.00    +0.074 C 
ATOM      9  C   UNL     1      51.567 161.485  31.151  0.00  0.00    +0.140 C 
ATOM     10  C   UNL     1      50.265 161.708  30.780  0.00  0.00    +0.073 C 
ATOM     11  C   UNL     1      49.430 160.655  30.360  0.00  0.00    +0.142 C 
ENDROOT
BRANCH   2  12
ATOM     12  P   UNL     1      52.310 157.551  28.093  0.00  0.00    +0.182 P 
ATOM     13  O   UNL     1      53.771 157.538  28.434  0.00  0.00    -0.309 OA
ATOM     14  H   UNL     1      53.380 157.307  28.930  0.00  0.00    +0.114 HD
BRANCH  12  15
ATOM     15  S   UNL     1      51.831 156.177  26.563  0.00  0.00    -0.036 S 
BRANCH  15  16
ATOM     16  C   UNL     1      52.251 154.525  27.078  0.00  0.00    +0.116 C 
ATOM     17  S   UNL     1      52.816 154.230  28.580  0.00  0.00    -0.028 S 
BRANCH  16  18
ATOM     18  N   UNL     1      52.091 153.462  26.172  0.00  0.00    -0.298 N 
ATOM     19  H   UNL     1      51.654 153.643  25.309  0.00  0.00    +0.150 HD
BRANCH  18  20
ATOM     20  C   UNL     1      52.540 152.110  26.450  0.00  0.00    +0.234 C 
BRANCH  20  21
ATOM     21  O   UNL     1      53.948 152.194  26.552  0.00  0.00    -0.364 OA
ATOM     22  H   UNL     1      54.312 151.314  26.739  0.00  0.00    +0.212 HD
ENDBRANCH  20  21
ENDBRANCH  18  20
ENDBRANCH  16  18
ENDBRANCH  15  16
ENDBRANCH  12  15
ENDBRANCH   2  12
BRANCH  11  23
ATOM     23  O   UNL     1      48.130 160.918  29.993  0.00  0.00    -0.505 OA
ATOM     24  H   UNL     1      47.572 160.219  29.713  0.00  0.00    +0.292 HD
ENDBRANCH  11  23
BRANCH   9  25
ATOM     25  O   UNL     1      52.353 162.533  31.556  0.00  0.00    -0.505 OA
ATOM     26  H   UNL     1      53.242 162.381  31.809  0.00  0.00    +0.292 HD
ENDBRANCH   9  25
TORSDOF 8
