REMARK  Name = =
REMARK  9 active torsions:
REMARK  status: ('A' for Active; 'I' for Inactive)
REMARK    1  A    between atoms: C_2  and  P_15
REMARK    2  A    between atoms: C_8  and  C_12
REMARK    3  A    between atoms: C_9  and  O_24
REMARK    4  A    between atoms: C_11  and  O_23
REMARK    5  A    between atoms: P_15  and  S_17
REMARK    6  A    between atoms: S_17  and  C_18
REMARK    7  A    between atoms: C_18  and  N_20
REMARK    8  A    between atoms: N_20  and  C_21
REMARK    9  A    between atoms: C_21  and  O_22
REMARK                            x       y       z     vdW  Elec       q    Type
REMARK                         _______ _______ _______ _____ _____    ______ ____
ROOT
ATOM      1  O   UNL     1      51.893 158.122  29.859  0.00  0.00    -0.470 OA
ATOM      2  C   UNL     1      51.359 156.913  29.380  0.00  0.00    +0.231 C 
ATOM      3  C   UNL     1      49.866 156.946  29.154  0.00  0.00    +0.121 C 
ATOM      4  C   UNL     1      49.277 157.611  30.347  0.00  0.00    +0.183 C 
ATOM      5  O   UNL     1      48.392 157.155  31.076  0.00  0.00    -0.291 OA
ATOM      6  C   UNL     1      49.822 158.940  30.666  0.00  0.00    +0.103 C 
ATOM      7  C   UNL     1      51.150 159.151  30.402  0.00  0.00    +0.152 C 
ATOM      8  C   UNL     1      51.754 160.378  30.675  0.00  0.00    +0.121 C 
ATOM      9  C   UNL     1      50.977 161.363  31.213  0.00  0.00    +0.144 C 
ATOM     10  C   UNL     1      49.630 161.189  31.494  0.00  0.00    +0.074 C 
ATOM     11  C   UNL     1      49.062 159.953  31.209  0.00  0.00    +0.142 C 
ENDROOT
BRANCH   8  12
ATOM     12  C   UNL     1      53.164 160.483  30.354  0.00  0.00    +0.249 C 
ATOM     13  O   UNL     1      53.831 159.482  29.990  0.00  0.00    -0.270 OA
ATOM     14  N   UNL     1      53.848 161.703  30.434  0.00  0.00    -0.325 N 
ATOM     15  H   UNL     1      53.371 162.517  30.714  0.00  0.00    +0.145 HD
ATOM     16  H   UNL     1      54.806 161.746  30.210  0.00  0.00    +0.145 HD
ENDBRANCH   8  12
BRANCH   2  17
ATOM     17  P   UNL     1      52.250 156.393  27.894  0.00  0.00    +0.182 P 
ATOM     18  O   UNL     1      53.096 157.534  27.398  0.00  0.00    -0.309 OA
ATOM     19  H   UNL     1      50.953 156.249  27.444  0.00  0.00    +0.114 HD
BRANCH  17  20
ATOM     20  S   UNL     1      53.461 154.734  28.372  0.00  0.00    -0.036 S 
BRANCH  20  21
ATOM     21  C   UNL     1      53.380 153.563  27.038  0.00  0.00    +0.116 C 
ATOM     22  S   UNL     1      54.697 153.266  26.124  0.00  0.00    -0.028 S 
BRANCH  21  23
ATOM     23  N   UNL     1      52.164 152.890  26.775  0.00  0.00    -0.298 N 
ATOM     24  H   UNL     1      51.333 153.177  27.219  0.00  0.00    +0.150 HD
BRANCH  23  25
ATOM     25  C   UNL     1      52.148 151.764  25.839  0.00  0.00    +0.234 C 
BRANCH  25  26
ATOM     26  O   UNL     1      53.058 150.837  26.300  0.00  0.00    -0.364 OA
ATOM     27  H   UNL     1      53.074 150.074  25.701  0.00  0.00    +0.212 HD
ENDBRANCH  25  26
ENDBRANCH  23  25
ENDBRANCH  21  23
ENDBRANCH  20  21
ENDBRANCH  17  20
ENDBRANCH   2  17
BRANCH  11  28
ATOM     28  O   UNL     1      47.735 159.752  31.472  0.00  0.00    -0.505 OA
ATOM     29  H   UNL     1      47.340 158.923  31.284  0.00  0.00    +0.292 HD
ENDBRANCH  11  28
BRANCH   9  30
ATOM     30  O   UNL     1      51.482 162.601  31.515  0.00  0.00    -0.505 OA
ATOM     31  H   UNL     1      52.385 162.791  31.352  0.00  0.00    +0.292 HD
ENDBRANCH   9  30
TORSDOF 9
