MODEL 1
REMARK VINA RESULT:    -8.889      0.000      0.000
REMARK INTER + INTRA:         -14.616
REMARK INTER:                 -12.787
REMARK INTRA:                  -1.829
REMARK UNBOUND:                -1.829
REMARK  Name = =
REMARK  9 active torsions:
REMARK  status: ('A' for Active; 'I' for Inactive)
REMARK    1  A    between atoms: C_1  and  C_9
REMARK    2  A    between atoms: C_5  and  N_13
REMARK    3  A    between atoms: C_6  and  S_31
REMARK    4  A    between atoms: C_14  and  C_16
REMARK    5  A    between atoms: C_17  and  O_30
REMARK    6  A    between atoms: C_20  and  C_22
REMARK    7  A    between atoms: S_31  and  P_32
REMARK    8  A    between atoms: P_32  and  O_34
REMARK    9  A    between atoms: P_32  and  O_35
REMARK                            x       y       z     vdW  Elec       q    Type
REMARK                         _______ _______ _______ _____ _____    ______ ____
ROOT
ATOM      1  C   UNL     1      -0.649  -7.509  30.821  0.00  0.00    +0.144 C 
ATOM      2  O   UNL     1      -1.334  -7.197  29.653  0.00  0.00    -0.354 OA
ATOM      3  C   UNL     1      -0.692  -7.808  28.599  0.00  0.00    +0.144 C 
ATOM      4  C   UNL     1       0.783  -7.876  28.796  0.00  0.00    +0.053 C 
ATOM      5  C   UNL     1       1.354  -6.735  29.612  0.00  0.00    +0.087 C 
ATOM      6  C   UNL     1       0.620  -6.661  30.908  0.00  0.00    +0.102 C 
ENDROOT
BRANCH   1   9
ATOM      7  N   UNL     1      -3.618  -6.049  32.636  0.00  0.00    -0.295 NA
ATOM      8  C   UNL     1      -2.588  -6.174  31.650  0.00  0.00    +0.089 C 
ATOM      9  C   UNL     1      -1.518  -7.174  32.028  0.00  0.00    +0.116 C 
ATOM     10  N   UNL     1      -2.066  -8.407  32.503  0.00  0.00    -0.214 NA
ATOM     11  C   UNL     1      -3.166  -8.252  33.411  0.00  0.00    +0.106 C 
ATOM     12  C   UNL     1      -4.231  -7.323  32.863  0.00  0.00    +0.088 C 
ATOM     13  H   UNL     1      -3.213  -5.708  33.508  0.00  0.00    +0.123 HD
ENDBRANCH   1   9
BRANCH   5  14
ATOM     14  N   UNL     1       1.172  -5.459  28.918  0.00  0.00    -0.301 N 
ATOM     15  C   UNL     1       2.181  -4.487  28.935  0.00  0.00    +0.249 C 
ATOM     16  O   UNL     1       3.239  -4.810  29.590  0.00  0.00    -0.270 OA
ATOM     17  H   UNL     1       0.332  -5.282  28.435  0.00  0.00    +0.150 HD
BRANCH  15  18
ATOM     18  C   UNL     1       2.122  -3.198  28.293  0.00  0.00    +0.087 C 
ATOM     19  C   UNL     1       1.271  -2.188  28.645  0.00  0.00    +0.138 C 
ATOM     20  C   UNL     1       1.265  -0.967  27.981  0.00  0.00    +0.037 C 
ATOM     21  C   UNL     1       2.136  -0.746  26.929  0.00  0.00    +0.008 C 
ATOM     22  C   UNL     1       3.010  -1.717  26.529  0.00  0.00    +0.054 C 
ATOM     23  C   UNL     1       2.975  -2.939  27.240  0.00  0.00    +0.012 C 
BRANCH  22  24
ATOM     24  C   UNL     1       3.967  -1.633  25.454  0.00  0.00    +0.249 C 
ATOM     25  O   UNL     1       5.243  -1.492  25.821  0.00  0.00    -0.270 OA
ATOM     26  N   UNL     1       3.744  -1.680  24.089  0.00  0.00    -0.273 N 
ATOM     27  C   UNL     1       2.514  -1.822  23.408  0.00  0.00    +0.113 C 
ATOM     28  C   UNL     1       2.804  -1.837  21.892  0.00  0.00    +0.110 C 
ATOM     29  N   UNL     1       3.719  -2.908  21.544  0.00  0.00    -0.214 NA
ATOM     30  C   UNL     1       4.974  -2.767  22.263  0.00  0.00    +0.110 C 
ATOM     31  C   UNL     1       4.931  -1.569  23.188  0.00  0.00    +0.113 C 
ENDBRANCH  22  24
BRANCH  19  32
ATOM     32  O   UNL     1       0.378  -2.365  29.697  0.00  0.00    -0.505 OA
ATOM     33  H   UNL     1      -0.347  -2.951  29.602  0.00  0.00    +0.292 HD
ENDBRANCH  19  32
ENDBRANCH  15  18
ENDBRANCH   5  14
BRANCH   6  34
ATOM     34  S   UNL     1       1.608  -7.095  32.333  0.00  0.00    -0.061 S 
BRANCH  34  35
ATOM     35  P   UNL     1       2.599  -5.475  33.194  0.00  0.00    +0.225 P 
ATOM     36  S   UNL     1       2.059  -5.288  34.824  0.00  0.00    +0.003 S 
BRANCH  35  37
ATOM     37  O   UNL     1       4.278  -5.636  33.161  0.00  0.00    -0.340 OA
ATOM     38  H   UNL     1       4.658  -5.235  33.957  0.00  0.00    +0.218 HD
ENDBRANCH  35  37
BRANCH  35  39
ATOM     39  O   UNL     1       2.203  -4.049  32.371  0.00  0.00    -0.340 OA
ATOM     40  H   UNL     1       1.346  -3.721  32.685  0.00  0.00    +0.218 HD
ENDBRANCH  35  39
ENDBRANCH  34  35
ENDBRANCH   6  34
TORSDOF 9
ENDMDL
