MODEL 1
REMARK VINA RESULT:    -8.661      0.000      0.000
REMARK INTER + INTRA:         -10.494
REMARK INTER:                 -10.433
REMARK INTRA:                  -0.061
REMARK UNBOUND:                -0.061
REMARK  Name = =
REMARK  4 active torsions:
REMARK  status: ('A' for Active; 'I' for Inactive)
REMARK    1  A    between atoms: C_1  and  N_32
REMARK    2  A    between atoms: N_32  and  O_36
REMARK    3  A    between atoms: O_36  and  C_37
REMARK    4  A    between atoms: C_37  and  O_39
REMARK                            x       y       z     vdW  Elec       q    Type
REMARK                         _______ _______ _______ _____ _____    ______ ____
ROOT
ATOM      1  C   UNL     1       2.003  -2.961  25.496  0.00  0.00    +0.182 C 
ATOM      2  C   UNL     1       2.393  -4.368  25.348  0.00  0.00    +0.037 C 
ATOM      3  C   UNL     1       3.358  -5.049  26.131  0.00  0.00    +0.013 C 
ATOM      4  C   UNL     1       4.366  -4.540  27.026  0.00  0.00    +0.102 C 
ATOM      5  C   UNL     1       4.810  -3.140  26.807  0.00  0.00    +0.326 C 
ATOM      6  O   UNL     1       6.066  -2.932  26.635  0.00  0.00    -0.249 OA
ATOM      7  O   UNL     1       4.119  -1.930  26.747  0.00  0.00    -0.409 OA
ATOM      8  S   UNL     1       2.223  -2.177  26.979  0.00  0.00    -0.022 S 
ATOM      9  C   UNL     1       1.408  -0.669  27.318  0.00  0.00    +0.098 C 
ATOM     10  C   UNL     1       1.007  -0.876  28.771  0.00  0.00    +0.103 C 
ATOM     11  N   UNL     1       1.058  -2.289  29.074  0.00  0.00    -0.204 NA
ATOM     12  C   UNL     1       2.346  -2.755  28.551  0.00  0.00    +0.164 C 
ATOM     13  C   UNL     1       3.821  -4.810  28.391  0.00  0.00    +0.039 C 
ATOM     14  C   UNL     1       2.608  -4.154  28.869  0.00  0.00    +0.143 C 
ATOM     15  N   UNL     1       2.731  -4.148  30.339  0.00  0.00    -0.246 NA
ATOM     16  C   UNL     1       1.847  -4.834  30.910  0.00  0.00    +0.194 C 
ATOM     17  N   UNL     1       1.018  -5.390  29.929  0.00  0.00    -0.231 NA
ATOM     18  C   UNL     1       1.398  -5.042  28.753  0.00  0.00    +0.061 C 
ATOM     19  C   UNL     1       3.464  -6.303  28.200  0.00  0.00    +0.003 C 
ATOM     20  C   UNL     1       2.866  -6.321  26.835  0.00  0.00    +0.001 C 
ATOM     21  C   UNL     1       1.403  -6.484  26.743  0.00  0.00    +0.006 C 
ATOM     22  C   UNL     1       0.877  -7.851  26.547  0.00  0.00    +0.005 C 
ATOM     23  C   UNL     1       0.426  -8.557  27.783  0.00  0.00    +0.022 C 
ATOM     24  C   UNL     1      -0.397  -7.630  28.640  0.00  0.00    -0.041 C 
ATOM     25  C   UNL     1      -0.854  -8.111  29.783  0.00  0.00    +0.029 C 
ATOM     26  C   UNL     1      -1.643  -7.227  30.605  0.00  0.00    +0.173 C 
ATOM     27  O   UNL     1      -2.097  -7.657  31.708  0.00  0.00    -0.291 OA
ATOM     28  C   UNL     1      -1.950  -5.850  30.235  0.00  0.00    +0.069 C 
ATOM     29  C   UNL     1      -1.588  -5.450  28.859  0.00  0.00    +0.013 C 
ATOM     30  C   UNL     1      -0.621  -6.286  28.139  0.00  0.00    +0.024 C 
ATOM     31  C   UNL     1       0.603  -5.589  27.642  0.00  0.00    +0.042 C 
ENDROOT
BRANCH   1  32
ATOM     32  N   UNL     1       2.605  -2.175  24.417  0.00  0.00    -0.091 N 
ATOM     33  C   UNL     1       1.952  -1.057  23.829  0.00  0.00    +0.333 C 
ATOM     34  O   UNL     1       0.821  -0.751  24.277  0.00  0.00    -0.250 OA
ATOM     35  N   UNL     1       2.485  -0.272  22.783  0.00  0.00    -0.311 N 
ATOM     36  H   UNL     1       3.369  -0.486  22.409  0.00  0.00    +0.147 HD
ATOM     37  H   UNL     1       1.971   0.490  22.427  0.00  0.00    +0.147 HD
BRANCH  32  38
ATOM     38  O   UNL     1       3.842  -2.475  23.899  0.00  0.00    -0.309 OA
BRANCH  38  39
ATOM     39  C   UNL     1       4.778  -1.532  23.515  0.00  0.00    +0.531 C 
ATOM     40  O   UNL     1       5.101  -1.478  22.307  0.00  0.00    -0.201 OA
BRANCH  39  41
ATOM     41  O   UNL     1       5.362  -0.654  24.433  0.00  0.00    -0.448 OA
ATOM     42  H   UNL     1       5.676  -0.976  25.255  0.00  0.00    +0.299 HD
ENDBRANCH  39  41
ENDBRANCH  38  39
ENDBRANCH  32  38
ENDBRANCH   1  32
TORSDOF 4
ENDMDL
