MODEL 1
REMARK VINA RESULT:    -8.243      0.000      0.000
REMARK INTER + INTRA:         -12.006
REMARK INTER:                 -10.893
REMARK INTRA:                  -1.114
REMARK UNBOUND:                -1.114
REMARK  Name = =
REMARK  6 active torsions:
REMARK  status: ('A' for Active; 'I' for Inactive)
REMARK    1  A    between atoms: N_1  and  C_31
REMARK    2  A    between atoms: C_7  and  N_25
REMARK    3  A    between atoms: C_17  and  C_36
REMARK    4  A    between atoms: C_30  and  N_32
REMARK    5  A    between atoms: C_37  and  C_38
REMARK    6  A    between atoms: C_38  and  O_40
REMARK                            x       y       z     vdW  Elec       q    Type
REMARK                         _______ _______ _______ _____ _____    ______ ____
ROOT
ATOM      1  N   UNL     1       2.262  -1.238  25.253  0.00  0.00    -0.247 N 
ATOM      2  C   UNL     1       2.739  -2.589  25.081  0.00  0.00    +0.183 C 
ATOM      3  C   UNL     1       4.223  -2.598  25.060  0.00  0.00    +0.247 C 
ATOM      4  O   UNL     1       4.843  -1.483  25.185  0.00  0.00    -0.273 OA
ATOM      5  N   UNL     1       4.997  -3.780  24.910  0.00  0.00    -0.270 N 
ATOM      6  C   UNL     1       4.704  -5.018  25.662  0.00  0.00    +0.167 C 
ATOM      7  C   UNL     1       5.669  -6.019  25.070  0.00  0.00    +0.089 C 
ATOM      8  C   UNL     1       6.855  -5.168  24.775  0.00  0.00    +0.040 C 
ATOM      9  C   UNL     1       6.154  -3.995  24.066  0.00  0.00    +0.095 C 
ATOM     10  C   UNL     1       4.885  -4.778  27.106  0.00  0.00    +0.242 C 
ATOM     11  O   UNL     1       6.024  -4.279  27.426  0.00  0.00    -0.273 OA
ATOM     12  N   UNL     1       3.968  -5.026  28.146  0.00  0.00    -0.295 N 
ATOM     13  C   UNL     1       3.248  -6.245  28.424  0.00  0.00    +0.176 C 
ATOM     14  C   UNL     1       1.799  -6.176  28.157  0.00  0.00    +0.243 C 
ATOM     15  O   UNL     1       1.338  -7.191  27.498  0.00  0.00    -0.273 OA
ATOM     16  N   UNL     1       0.886  -5.187  28.511  0.00  0.00    -0.292 N 
ATOM     17  C   UNL     1       0.504  -4.666  29.783  0.00  0.00    +0.194 C 
ATOM     18  C   UNL     1      -0.403  -3.475  29.547  0.00  0.00    +0.339 C 
ATOM     19  O   UNL     1      -1.652  -3.639  29.510  0.00  0.00    -0.248 OA
ATOM     20  O   UNL     1       0.102  -2.205  29.368  0.00  0.00    -0.447 OA
ATOM     21  C   UNL     1       1.204  -1.857  28.563  0.00  0.00    +0.218 C 
ATOM     22  C   UNL     1       0.675  -1.670  27.156  0.00  0.00    +0.133 C 
ATOM     23  C   UNL     1       1.583  -0.764  26.402  0.00  0.00    +0.234 C 
ATOM     24  O   UNL     1       1.722   0.426  26.822  0.00  0.00    -0.274 OA
ATOM     25  H   UNL     1       3.798  -4.275  28.759  0.00  0.00    +0.150 HD
ATOM     26  H   UNL     1       0.421  -4.774  27.748  0.00  0.00    +0.150 HD
ENDROOT
BRANCH   7  27
ATOM     27  N   UNL     1       5.867  -7.175  25.858  0.00  0.00    -0.244 NA
ATOM     28  C   UNL     1       7.064  -7.874  25.475  0.00  0.00    +0.107 C 
ATOM     29  C   UNL     1       6.614  -9.222  24.938  0.00  0.00    +0.161 C 
ATOM     30  O   UNL     1       5.324  -8.927  24.479  0.00  0.00    -0.336 OA
ATOM     31  C   UNL     1       4.824  -8.149  25.491  0.00  0.00    +0.220 C 
ENDBRANCH   7  27
BRANCH   1  33
ATOM     32  C   UNL     1       1.683  -0.197  23.161  0.00  0.00    +0.084 C 
ATOM     33  C   UNL     1       2.500  -0.313  24.192  0.00  0.00    +0.084 C 
BRANCH  32  34
ATOM     34  N   UNL     1       1.984   0.741  22.147  0.00  0.00    -0.247 N 
ATOM     35  C   UNL     1       0.978   1.601  21.678  0.00  0.00    +0.307 C 
ATOM     36  O   UNL     1      -0.175   1.543  22.143  0.00  0.00    -0.265 OA
ATOM     37  C   UNL     1       3.351   0.771  21.627  0.00  0.00    +0.121 C 
ENDBRANCH  32  34
ENDBRANCH   1  33
BRANCH  17  38
ATOM     38  C   UNL     1       1.562  -4.331  30.728  0.00  0.00    +0.011 C 
ATOM     39  C   UNL     1       1.763  -5.156  31.759  0.00  0.00    +0.079 C 
BRANCH  39  40
ATOM     40  C   UNL     1       2.803  -4.897  32.756  0.00  0.00    +0.338 C 
ATOM     41  O   UNL     1       2.793  -3.908  33.531  0.00  0.00    -0.245 OA
BRANCH  40  42
ATOM     42  O   UNL     1       3.855  -5.787  32.853  0.00  0.00    -0.477 OA
ATOM     43  H   UNL     1       3.687  -6.705  32.934  0.00  0.00    +0.295 HD
ENDBRANCH  40  42
ENDBRANCH  39  40
ENDBRANCH  17  38
TORSDOF 6
ENDMDL
