REMARK  Name = =
REMARK  4 active torsions:
REMARK  status: ('A' for Active; 'I' for Inactive)
REMARK    1  A    between atoms: C_1  and  N_32
REMARK    2  A    between atoms: N_32  and  O_36
REMARK    3  A    between atoms: O_36  and  C_37
REMARK    4  A    between atoms: C_37  and  O_39
REMARK                            x       y       z     vdW  Elec       q    Type
REMARK                         _______ _______ _______ _____ _____    ______ ____
ROOT
ATOM      1  C   UNL     1       1.892  -2.051  22.403  0.00  0.00    +0.182 C 
ATOM      2  C   UNL     1       1.165  -0.861  22.861  0.00  0.00    +0.037 C 
ATOM      3  C   UNL     1       1.539   0.485  22.619  0.00  0.00    +0.013 C 
ATOM      4  C   UNL     1       2.783   1.041  22.152  0.00  0.00    +0.102 C 
ATOM      5  C   UNL     1       4.004   0.222  22.363  0.00  0.00    +0.326 C 
ATOM      6  O   UNL     1       4.981   0.761  23.000  0.00  0.00    -0.249 OA
ATOM      7  O   UNL     1       4.341  -1.081  21.997  0.00  0.00    -0.409 OA
ATOM      8  S   UNL     1       2.906  -1.952  21.053  0.00  0.00    -0.022 S 
ATOM      9  C   UNL     1       3.449  -3.400  20.239  0.00  0.00    +0.098 C 
ATOM     10  C   UNL     1       3.346  -2.970  18.783  0.00  0.00    +0.103 C 
ATOM     11  N   UNL     1       2.478  -1.817  18.695  0.00  0.00    -0.204 NA
ATOM     12  C   UNL     1       2.938  -0.900  19.744  0.00  0.00    +0.164 C 
ATOM     13  C   UNL     1       2.518   1.398  20.725  0.00  0.00    +0.039 C 
ATOM     14  C   UNL     1       2.230   0.374  19.726  0.00  0.00    +0.143 C 
ATOM     15  N   UNL     1       2.640   0.970  18.440  0.00  0.00    -0.246 NA
ATOM     16  C   UNL     1       1.680   1.139  17.647  0.00  0.00    +0.194 C 
ATOM     17  N   UNL     1       0.510   0.692  18.270  0.00  0.00    -0.231 NA
ATOM     18  C   UNL     1       0.755   0.248  19.449  0.00  0.00    +0.061 C 
ATOM     19  C   UNL     1       1.204   2.189  20.932  0.00  0.00    +0.003 C 
ATOM     20  C   UNL     1       0.479   1.356  21.932  0.00  0.00    +0.001 C 
ATOM     21  C   UNL     1      -0.669   0.567  21.447  0.00  0.00    +0.006 C 
ATOM     22  C   UNL     1      -2.014   1.164  21.574  0.00  0.00    +0.005 C 
ATOM     23  C   UNL     1      -2.542   1.844  20.354  0.00  0.00    +0.022 C 
ATOM     24  C   UNL     1      -2.290   0.994  19.136  0.00  0.00    -0.041 C 
ATOM     25  C   UNL     1      -2.688   1.476  17.971  0.00  0.00    +0.029 C 
ATOM     26  C   UNL     1      -2.450   0.665  16.803  0.00  0.00    +0.173 C 
ATOM     27  O   UNL     1      -2.820   1.097  15.670  0.00  0.00    -0.291 OA
ATOM     28  C   UNL     1      -1.799  -0.640  16.853  0.00  0.00    +0.069 C 
ATOM     29  C   UNL     1      -1.574  -1.204  18.200  0.00  0.00    +0.013 C 
ATOM     30  C   UNL     1      -1.633  -0.284  19.342  0.00  0.00    +0.024 C 
ATOM     31  C   UNL     1      -0.414  -0.231  20.203  0.00  0.00    +0.042 C 
ENDROOT
BRANCH   1  32
ATOM     32  N   UNL     1       2.614  -2.642  23.532  0.00  0.00    -0.091 N 
ATOM     33  C   UNL     1       2.636  -4.043  23.776  0.00  0.00    +0.333 C 
ATOM     34  O   UNL     1       2.012  -4.776  22.973  0.00  0.00    -0.250 OA
ATOM     35  N   UNL     1       3.309  -4.662  24.853  0.00  0.00    -0.311 N 
ATOM     36  H   UNL     1       3.808  -4.115  25.501  0.00  0.00    +0.147 HD
ATOM     37  H   UNL     1       3.279  -5.641  24.955  0.00  0.00    +0.147 HD
BRANCH  32  38
ATOM     38  O   UNL     1       3.312  -1.875  24.434  0.00  0.00    -0.309 OA
BRANCH  38  39
ATOM     39  C   UNL     1       4.674  -1.968  24.649  0.00  0.00    +0.531 C 
ATOM     40  O   UNL     1       5.299  -2.897  24.089  0.00  0.00    -0.201 OA
BRANCH  39  41
ATOM     41  O   UNL     1       5.357  -1.062  25.467  0.00  0.00    -0.448 OA
ATOM     42  H   UNL     1       6.281  -1.150  25.594  0.00  0.00    +0.299 HD
ENDBRANCH  39  41
ENDBRANCH  38  39
ENDBRANCH  32  38
ENDBRANCH   1  32
TORSDOF 4
