MODEL 1
REMARK VINA RESULT:    -8.736      0.000      0.000
REMARK INTER + INTRA:         -11.514
REMARK INTER:                 -11.034
REMARK INTRA:                  -0.480
REMARK UNBOUND:                -0.480
REMARK  Name = =
REMARK  6 active torsions:
REMARK  status: ('A' for Active; 'I' for Inactive)
REMARK    1  A    between atoms: C_1  and  C_4
REMARK    2  A    between atoms: N_3  and  S_13
REMARK    3  A    between atoms: C_5  and  O_12
REMARK    4  A    between atoms: C_7  and  N_11
REMARK    5  A    between atoms: C_17  and  N_18
REMARK    6  A    between atoms: N_18  and  O_22
REMARK                            x       y       z     vdW  Elec       q    Type
REMARK                         _______ _______ _______ _____ _____    ______ ____
ROOT
ATOM      1  C   UNL     1      52.076 156.652  28.978  0.00  0.00    +0.257 C 
ATOM      2  O   UNL     1      53.203 156.914  28.512  0.00  0.00    -0.269 OA
ATOM      3  N   UNL     1      51.675 155.273  28.847  0.00  0.00    -0.266 N 
ATOM      4  H   UNL     1      50.798 154.987  29.191  0.00  0.00    +0.162 HD
ENDROOT
BRANCH   1   5
ATOM      5  C   UNL     1      51.242 157.665  29.601  0.00  0.00    +0.089 C 
ATOM      6  C   UNL     1      49.927 157.390  29.866  0.00  0.00    +0.139 C 
ATOM      7  C   UNL     1      49.134 158.385  30.468  0.00  0.00    +0.052 C 
ATOM      8  C   UNL     1      49.640 159.594  30.787  0.00  0.00    +0.055 C 
ATOM      9  C   UNL     1      50.961 159.851  30.515  0.00  0.00    +0.071 C 
ATOM     10  C   UNL     1      51.759 158.906  29.930  0.00  0.00    +0.020 C 
ATOM     11 CL   UNL     1      51.604 161.428  30.935  0.00  0.00    -0.081 Cl
BRANCH   8  12
ATOM     12  N   UNL     1      48.845 160.624  31.403  0.00  0.00    -0.356 N 
ATOM     13  H   UNL     1      47.973 160.402  31.801  0.00  0.00    +0.142 HD
ATOM     14  H   UNL     1      49.174 161.552  31.426  0.00  0.00    +0.142 HD
ENDBRANCH   8  12
BRANCH   6  15
ATOM     15  O   UNL     1      49.286 156.198  29.591  0.00  0.00    -0.505 OA
ATOM     16  H   UNL     1      48.658 155.854  30.195  0.00  0.00    +0.292 HD
ENDBRANCH   6  15
ENDBRANCH   1   5
BRANCH   3  17
ATOM     17  S   UNL     1      52.698 154.136  28.107  0.00  0.00    -0.112 S 
ATOM     18  C   UNL     1      52.003 152.394  27.984  0.00  0.00    +0.031 C 
ATOM     19  C   UNL     1      52.024 152.150  26.725  0.00  0.00    +0.009 C 
ATOM     20  C   UNL     1      52.508 153.121  25.803  0.00  0.00    +0.024 C 
ATOM     21  C   UNL     1      52.921 154.253  26.292  0.00  0.00    +0.107 C 
ATOM     22  H   UNL     1      53.779 154.382  28.895  0.00  0.00    +0.112 HD
BRANCH  21  23
ATOM     23  N   UNL     1      53.440 155.362  25.601  0.00  0.00    -0.128 N 
ATOM     24  C   UNL     1      54.671 155.223  24.883  0.00  0.00    +0.328 C 
ATOM     25  O   UNL     1      55.156 156.208  24.253  0.00  0.00    -0.250 OA
ATOM     26  N   UNL     1      55.368 153.980  24.867  0.00  0.00    -0.311 N 
ATOM     27  H   UNL     1      55.003 153.205  25.353  0.00  0.00    +0.147 HD
ATOM     28  H   UNL     1      56.215 153.896  24.372  0.00  0.00    +0.147 HD
BRANCH  23  29
ATOM     29  O   UNL     1      52.807 156.550  25.596  0.00  0.00    -0.286 OA
ATOM     30  H   UNL     1      51.904 156.436  25.930  0.00  0.00    +0.242 HD
ENDBRANCH  23  29
ENDBRANCH  21  23
ENDBRANCH   3  17
TORSDOF 6
ENDMDL
