REMARK  Name = =
REMARK  6 active torsions:
REMARK  status: ('A' for Active; 'I' for Inactive)
REMARK    1  A    between atoms: C_1  and  C_4
REMARK    2  A    between atoms: N_3  and  S_13
REMARK    3  A    between atoms: C_5  and  O_12
REMARK    4  A    between atoms: C_7  and  N_11
REMARK    5  A    between atoms: C_17  and  N_18
REMARK    6  A    between atoms: N_18  and  O_22
REMARK                            x       y       z     vdW  Elec       q    Type
REMARK                         _______ _______ _______ _____ _____    ______ ____
ROOT
ATOM      1  C   UNL     1      51.910 159.633  29.835  0.00  0.00    +0.257 C 
ATOM      2  O   UNL     1      51.019 160.458  30.122  0.00  0.00    -0.269 OA
ATOM      3  N   UNL     1      53.254 160.153  29.893  0.00  0.00    -0.266 N 
ATOM      4  H   UNL     1      54.013 159.563  29.681  0.00  0.00    +0.162 HD
ENDROOT
BRANCH   1   5
ATOM      5  C   UNL     1      51.606 158.260  29.474  0.00  0.00    +0.089 C 
ATOM      6  C   UNL     1      50.467 157.670  29.953  0.00  0.00    +0.139 C 
ATOM      7  C   UNL     1      50.190 156.337  29.594  0.00  0.00    +0.052 C 
ATOM      8  C   UNL     1      51.018 155.636  28.793  0.00  0.00    +0.055 C 
ATOM      9  C   UNL     1      52.155 156.244  28.322  0.00  0.00    +0.071 C 
ATOM     10  C   UNL     1      52.454 157.538  28.652  0.00  0.00    +0.020 C 
ATOM     11 CL   UNL     1      53.223 155.318  27.282  0.00  0.00    -0.081 Cl
BRANCH   8  12
ATOM     12  N   UNL     1      50.753 154.272  28.415  0.00  0.00    -0.356 N 
ATOM     13  H   UNL     1      49.943 153.819  28.743  0.00  0.00    +0.142 HD
ATOM     14  H   UNL     1      51.382 153.793  27.829  0.00  0.00    +0.142 HD
ENDBRANCH   8  12
BRANCH   6  15
ATOM     15  O   UNL     1      49.538 158.273  30.778  0.00  0.00    -0.505 OA
ATOM     16  H   UNL     1      49.662 159.160  31.054  0.00  0.00    +0.292 HD
ENDBRANCH   6  15
ENDBRANCH   1   5
BRANCH   3  17
ATOM     17  S   UNL     1      53.543 161.772  30.323  0.00  0.00    -0.112 S 
ATOM     18  C   UNL     1      52.006 162.835  30.518  0.00  0.00    +0.031 C 
ATOM     19  C   UNL     1      52.086 163.261  31.725  0.00  0.00    +0.009 C 
ATOM     20  C   UNL     1      53.180 162.890  32.557  0.00  0.00    +0.024 C 
ATOM     21  C   UNL     1      54.082 162.108  32.041  0.00  0.00    +0.107 C 
ATOM     22  H   UNL     1      54.425 162.030  29.320  0.00  0.00    +0.112 HD
BRANCH  21  23
ATOM     23  N   UNL     1      55.246 161.604  32.648  0.00  0.00    -0.128 N 
ATOM     24  C   UNL     1      56.339 162.493  32.906  0.00  0.00    +0.328 C 
ATOM     25  O   UNL     1      57.396 162.061  33.451  0.00  0.00    -0.250 OA
ATOM     26  N   UNL     1      56.255 163.871  32.553  0.00  0.00    -0.311 N 
ATOM     27  H   UNL     1      55.439 164.221  32.128  0.00  0.00    +0.147 HD
ATOM     28  H   UNL     1      57.013 164.473  32.734  0.00  0.00    +0.147 HD
BRANCH  23  29
ATOM     29  O   UNL     1      55.358 160.308  32.992  0.00  0.00    -0.286 OA
ATOM     30  H   UNL     1      54.543 159.839  32.755  0.00  0.00    +0.242 HD
ENDBRANCH  23  29
ENDBRANCH  21  23
ENDBRANCH   3  17
TORSDOF 6
