MODEL 1
REMARK VINA RESULT:    -7.719      0.000      0.000
REMARK INTER + INTRA:          -9.307
REMARK INTER:                  -9.073
REMARK INTRA:                  -0.234
REMARK UNBOUND:                -0.234
REMARK  Name = =
REMARK  3 active torsions:
REMARK  status: ('A' for Active; 'I' for Inactive)
REMARK    1  A    between atoms: N_1  and  C_29
REMARK    2  A    between atoms: C_26  and  N_37
REMARK    3  A    between atoms: C_28  and  N_34
REMARK                            x       y       z     vdW  Elec       q    Type
REMARK                         _______ _______ _______ _____ _____    ______ ____
ROOT
ATOM      1  N   UNL     1      60.918 164.588  37.466  0.00  0.00    -0.302 N 
ATOM      2  C   UNL     1      60.591 163.200  37.663  0.00  0.00    +0.112 C 
ATOM      3  C   UNL     1      59.555 162.937  38.694  0.00  0.00    +0.112 C 
ATOM      4  N   UNL     1      59.644 161.620  39.275  0.00  0.00    -0.305 N 
ATOM      5  C   UNL     1      58.410 161.143  39.813  0.00  0.00    +0.093 C 
ATOM      6  C   UNL     1      58.092 159.817  39.211  0.00  0.00    +0.048 C 
ATOM      7  C   UNL     1      59.174 159.551  38.220  0.00  0.00    -0.009 C 
ATOM      8  C   UNL     1      60.189 160.631  38.406  0.00  0.00    +0.057 C 
ATOM      9  C   UNL     1      58.612 160.920  41.313  0.00  0.00    +0.089 C 
ATOM     10  N   UNL     1      57.611 161.695  41.995  0.00  0.00    -0.296 NA
ATOM     11  C   UNL     1      56.329 161.075  41.812  0.00  0.00    +0.069 C 
ATOM     12  C   UNL     1      55.304 162.142  41.447  0.00  0.00    +0.017 C 
ATOM     13  C   UNL     1      54.776 162.697  42.748  0.00  0.00    +0.003 C 
ATOM     14  C   UNL     1      54.015 163.984  42.439  0.00  0.00    +0.017 C 
ATOM     15  C   UNL     1      54.922 165.163  42.720  0.00  0.00    +0.069 C 
ATOM     16  N   UNL     1      54.632 166.299  41.876  0.00  0.00    -0.296 NA
ATOM     17  C   UNL     1      55.003 167.489  42.642  0.00  0.00    +0.086 C 
ATOM     18  C   UNL     1      56.452 167.835  42.460  0.00  0.00    +0.089 C 
ATOM     19  N   UNL     1      56.810 167.834  41.040  0.00  0.00    -0.271 NA
ATOM     20  C   UNL     1      58.248 168.037  40.924  0.00  0.00    +0.073 C 
ATOM     21  C   UNL     1      58.408 169.541  41.057  0.00  0.00    +0.019 C 
ATOM     22  C   UNL     1      57.256 170.027  40.209  0.00  0.00    +0.019 C 
ATOM     23  C   UNL     1      56.193 169.008  40.462  0.00  0.00    +0.072 C 
ATOM     24  C   UNL     1      58.665 167.509  39.588  0.00  0.00    +0.086 C 
ATOM     25  N   UNL     1      60.082 167.146  39.544  0.00  0.00    -0.283 NA
ATOM     26  C   UNL     1      60.457 166.922  38.138  0.00  0.00    +0.135 C 
ATOM     27  C   UNL     1      59.908 165.607  37.644  0.00  0.00    +0.124 C 
ATOM     28  H   UNL     1      57.592 162.640  41.612  0.00  0.00    +0.123 HD
ATOM     29  H   UNL     1      53.639 166.324  41.646  0.00  0.00    +0.123 HD
ATOM     30  H   UNL     1      60.644 167.903  39.934  0.00  0.00    +0.125 HD
ENDROOT
BRANCH   1  32
ATOM     31  C   UNL     1      62.592 165.234  35.823  0.00  0.00    +0.156 C 
ATOM     32  C   UNL     1      62.209 164.951  37.086  0.00  0.00    +0.071 C 
ATOM     33  C   UNL     1      63.181 165.074  38.091  0.00  0.00    +0.016 C 
ATOM     34  C   UNL     1      64.465 165.463  37.829  0.00  0.00    +0.001 C 
ATOM     35  C   UNL     1      64.846 165.750  36.545  0.00  0.00    +0.002 C 
ATOM     36  C   UNL     1      63.919 165.639  35.541  0.00  0.00    +0.025 C 
BRANCH  31  37
ATOM     37  N   UNL     1      61.719 165.107  34.725  0.00  0.00    +0.059 N 
ATOM     38  O   UNL     1      60.443 164.662  34.705  0.00  0.00    -0.126 OA
ATOM     39  O   UNL     1      62.183 165.453  33.587  0.00  0.00    -0.126 OA
ENDBRANCH  31  37
ENDBRANCH   1  32
BRANCH  26  40
ATOM     40  N   UNL     1      59.980 168.059  37.409  0.00  0.00    -0.260 NA
ATOM     41  C   UNL     1      60.701 169.234  37.829  0.00  0.00    +0.073 C 
ATOM     42  C   UNL     1      61.743 169.557  36.808  0.00  0.00    +0.019 C 
ATOM     43  C   UNL     1      61.529 168.558  35.709  0.00  0.00    +0.019 C 
ATOM     44  C   UNL     1      60.165 168.022  35.999  0.00  0.00    +0.073 C 
ENDBRANCH  26  40
TORSDOF 3
ENDMDL
