MODEL 1
REMARK VINA RESULT:    -6.086      0.000      0.000
REMARK INTER + INTRA:          -6.086
REMARK INTER:                  -6.086
REMARK INTRA:                   0.000
REMARK UNBOUND:                 0.000
REMARK  Name = =
REMARK  0 active torsions:
REMARK  status: ('A' for Active; 'I' for Inactive)
REMARK                            x       y       z     vdW  Elec       q    Type
REMARK                         _______ _______ _______ _____ _____    ______ ____
ROOT
ATOM      1  S   UNL     1      57.983 164.333  40.633  0.00  0.00    -0.080 S 
ATOM      2  S   UNL     1      57.507 162.566  41.709  0.00  0.00    -0.082 S 
ATOM      3  C   UNL     1      57.678 161.104  40.681  0.00  0.00    +0.078 C 
ATOM      4  C   UNL     1      58.890 161.230  39.768  0.00  0.00    +0.098 C 
ATOM      5  C   UNL     1      58.828 160.150  38.758  0.00  0.00    +0.224 C 
ATOM      6  O   UNL     1      58.519 158.980  39.087  0.00  0.00    -0.275 OA
ATOM      7  N   UNL     1      59.114 160.397  37.385  0.00  0.00    -0.297 N 
ATOM      8  C   UNL     1      58.860 161.688  36.783  0.00  0.00    +0.176 C 
ATOM      9  C   UNL     1      60.157 162.421  36.698  0.00  0.00    +0.243 C 
ATOM     10  O   UNL     1      61.134 162.053  37.401  0.00  0.00    -0.273 OA
ATOM     11  N   UNL     1      60.345 163.533  35.844  0.00  0.00    -0.295 N 
ATOM     12  C   UNL     1      59.241 164.225  35.228  0.00  0.00    +0.176 C 
ATOM     13  C   UNL     1      59.503 165.673  35.030  0.00  0.00    +0.243 C 
ATOM     14  O   UNL     1      58.738 166.271  34.198  0.00  0.00    -0.273 OA
ATOM     15  N   UNL     1      60.535 166.370  35.714  0.00  0.00    -0.295 N 
ATOM     16  C   UNL     1      60.939 166.099  37.079  0.00  0.00    +0.176 C 
ATOM     17  C   UNL     1      60.624 167.301  37.899  0.00  0.00    +0.243 C 
ATOM     18  O   UNL     1      59.528 167.856  37.610  0.00  0.00    -0.273 OA
ATOM     19  N   UNL     1      61.461 167.811  38.924  0.00  0.00    -0.295 N 
ATOM     20  C   UNL     1      62.237 167.020  39.852  0.00  0.00    +0.176 C 
ATOM     21  C   UNL     1      61.676 165.709  40.145  0.00  0.00    +0.243 C 
ATOM     22  O   UNL     1      62.097 164.707  39.526  0.00  0.00    -0.273 OA
ATOM     23  N   UNL     1      60.660 165.499  41.111  0.00  0.00    -0.302 N 
ATOM     24  C   UNL     1      59.595 166.451  41.377  0.00  0.00    +0.102 C 
ATOM     25  C   UNL     1      58.334 165.677  41.777  0.00  0.00    +0.090 C 
ATOM     26  H   UNL     1      59.492 159.674  36.834  0.00  0.00    +0.150 HD
ATOM     27  H   UNL     1      61.261 163.845  35.664  0.00  0.00    +0.150 HD
ATOM     28  H   UNL     1      61.006 167.084  35.229  0.00  0.00    +0.150 HD
ATOM     29  H   UNL     1      61.518 168.790  39.012  0.00  0.00    +0.150 HD
ATOM     30  H   UNL     1      60.677 164.663  41.630  0.00  0.00    +0.150 HD
ENDROOT
TORSDOF 0
ENDMDL
