REMARK  Name = =
REMARK  0 active torsions:
REMARK  status: ('A' for Active; 'I' for Inactive)
REMARK                            x       y       z     vdW  Elec       q    Type
REMARK                         _______ _______ _______ _____ _____    ______ ____
ROOT
ATOM      1  S   UNL     1      54.110 153.225  26.828  0.00  0.00    -0.080 S 
ATOM      2  S   UNL     1      52.690 151.816  27.540  0.00  0.00    -0.082 S 
ATOM      3  C   UNL     1      51.670 152.512  28.843  0.00  0.00    +0.078 C 
ATOM      4  C   UNL     1      51.331 153.965  28.540  0.00  0.00    +0.098 C 
ATOM      5  C   UNL     1      50.740 154.570  29.755  0.00  0.00    +0.224 C 
ATOM      6  O   UNL     1      49.889 153.947  30.433  0.00  0.00    -0.275 OA
ATOM      7  N   UNL     1      51.113 155.871  30.195  0.00  0.00    -0.297 N 
ATOM      8  C   UNL     1      52.434 156.404  29.938  0.00  0.00    +0.176 C 
ATOM      9  C   UNL     1      52.337 157.338  28.778  0.00  0.00    +0.243 C 
ATOM     10  O   UNL     1      51.340 157.287  28.012  0.00  0.00    -0.273 OA
ATOM     11  N   UNL     1      53.334 158.301  28.495  0.00  0.00    -0.295 N 
ATOM     12  C   UNL     1      54.639 158.259  29.104  0.00  0.00    +0.176 C 
ATOM     13  C   UNL     1      55.708 158.793  28.222  0.00  0.00    +0.243 C 
ATOM     14  O   UNL     1      56.805 159.106  28.799  0.00  0.00    -0.273 OA
ATOM     15  N   UNL     1      55.541 158.952  26.820  0.00  0.00    -0.295 N 
ATOM     16  C   UNL     1      54.775 158.054  25.980  0.00  0.00    +0.176 C 
ATOM     17  C   UNL     1      55.715 157.401  25.028  0.00  0.00    +0.243 C 
ATOM     18  O   UNL     1      56.827 157.081  25.531  0.00  0.00    -0.273 OA
ATOM     19  N   UNL     1      55.422 157.146  23.664  0.00  0.00    -0.295 N 
ATOM     20  C   UNL     1      54.140 156.733  23.138  0.00  0.00    +0.176 C 
ATOM     21  C   UNL     1      53.322 155.971  24.070  0.00  0.00    +0.243 C 
ATOM     22  O   UNL     1      52.437 156.556  24.733  0.00  0.00    -0.273 OA
ATOM     23  N   UNL     1      53.474 154.577  24.274  0.00  0.00    -0.302 N 
ATOM     24  C   UNL     1      54.755 153.892  24.225  0.00  0.00    +0.102 C 
ATOM     25  C   UNL     1      54.723 152.721  25.213  0.00  0.00    +0.090 C 
ATOM     26  H   UNL     1      50.459 156.420  30.685  0.00  0.00    +0.150 HD
ATOM     27  H   UNL     1      53.129 159.025  27.860  0.00  0.00    +0.150 HD
ATOM     28  H   UNL     1      55.975 159.724  26.391  0.00  0.00    +0.150 HD
ATOM     29  H   UNL     1      56.156 157.260  23.018  0.00  0.00    +0.150 HD
ATOM     30  H   UNL     1      52.668 154.043  24.459  0.00  0.00    +0.150 HD
ENDROOT
TORSDOF 0
