REMARK  Name = =
REMARK  3 active torsions:
REMARK  status: ('A' for Active; 'I' for Inactive)
REMARK    1  A    between atoms: N_1  and  C_29
REMARK    2  A    between atoms: C_26  and  N_37
REMARK    3  A    between atoms: C_28  and  N_34
REMARK                            x       y       z     vdW  Elec       q    Type
REMARK                         _______ _______ _______ _____ _____    ______ ____
ROOT
ATOM      1  N   UNL     1      53.003 156.872  28.334  0.00  0.00    -0.302 N 
ATOM      2  C   UNL     1      54.249 157.592  28.349  0.00  0.00    +0.112 C 
ATOM      3  C   UNL     1      54.186 158.949  28.949  0.00  0.00    +0.112 C 
ATOM      4  N   UNL     1      55.212 159.840  28.466  0.00  0.00    -0.305 N 
ATOM      5  C   UNL     1      55.530 160.898  29.371  0.00  0.00    +0.093 C 
ATOM      6  C   UNL     1      56.996 160.891  29.639  0.00  0.00    +0.048 C 
ATOM      7  C   UNL     1      57.539 159.717  28.896  0.00  0.00    -0.009 C 
ATOM      8  C   UNL     1      56.414 159.188  28.067  0.00  0.00    +0.057 C 
ATOM      9  C   UNL     1      55.206 162.220  28.673  0.00  0.00    +0.089 C 
ATOM     10  N   UNL     1      54.291 162.934  29.522  0.00  0.00    -0.296 NA
ATOM     11  C   UNL     1      54.996 163.417  30.676  0.00  0.00    +0.069 C 
ATOM     12  C   UNL     1      54.174 163.124  31.925  0.00  0.00    +0.017 C 
ATOM     13  C   UNL     1      53.226 164.286  32.100  0.00  0.00    +0.003 C 
ATOM     14  C   UNL     1      52.166 163.882  33.121  0.00  0.00    +0.017 C 
ATOM     15  C   UNL     1      50.921 163.444  32.380  0.00  0.00    +0.069 C 
ATOM     16  N   UNL     1      50.165 162.448  33.104  0.00  0.00    -0.296 NA
ATOM     17  C   UNL     1      48.767 162.624  32.713  0.00  0.00    +0.086 C 
ATOM     18  C   UNL     1      48.437 161.845  31.473  0.00  0.00    +0.089 C 
ATOM     19  N   UNL     1      48.916 160.466  31.585  0.00  0.00    -0.271 NA
ATOM     20  C   UNL     1      48.697 159.794  30.311  0.00  0.00    +0.073 C 
ATOM     21  C   UNL     1      47.235 159.388  30.368  0.00  0.00    +0.019 C 
ATOM     22  C   UNL     1      47.131 158.894  31.792  0.00  0.00    +0.019 C 
ATOM     23  C   UNL     1      48.048 159.808  32.537  0.00  0.00    +0.072 C 
ATOM     24  C   UNL     1      49.637 158.632  30.254  0.00  0.00    +0.086 C 
ATOM     25  N   UNL     1      49.924 158.206  28.884  0.00  0.00    -0.283 NA
ATOM     26  C   UNL     1      50.606 156.903  28.939  0.00  0.00    +0.135 C 
ATOM     27  C   UNL     1      52.035 157.069  29.391  0.00  0.00    +0.124 C 
ATOM     28  H   UNL     1      53.541 162.309  29.817  0.00  0.00    +0.123 HD
ATOM     29  H   UNL     1      50.270 162.587  34.109  0.00  0.00    +0.123 HD
ATOM     30  H   UNL     1      49.053 158.118  28.361  0.00  0.00    +0.125 HD
ENDROOT
BRANCH   1  32
ATOM     31  C   UNL     1      53.319 155.985  26.091  0.00  0.00    +0.156 C 
ATOM     32  C   UNL     1      52.733 155.969  27.307  0.00  0.00    +0.071 C 
ATOM     33  C   UNL     1      51.814 154.939  27.561  0.00  0.00    +0.016 C 
ATOM     34  C   UNL     1      51.510 153.981  26.635  0.00  0.00    +0.001 C 
ATOM     35  C   UNL     1      52.109 154.002  25.404  0.00  0.00    +0.002 C 
ATOM     36  C   UNL     1      53.011 154.996  25.126  0.00  0.00    +0.025 C 
BRANCH  31  37
ATOM     37  N   UNL     1      54.225 156.991  25.704  0.00  0.00    +0.059 N 
ATOM     38  O   UNL     1      54.729 158.005  26.442  0.00  0.00    -0.126 OA
ATOM     39  O   UNL     1      54.632 156.955  24.495  0.00  0.00    -0.126 OA
ENDBRANCH  31  37
ENDBRANCH   1  32
BRANCH  26  40
ATOM     40  N   UNL     1      49.818 156.074  29.802  0.00  0.00    -0.260 NA
ATOM     41  C   UNL     1      49.454 154.867  29.106  0.00  0.00    +0.073 C 
ATOM     42  C   UNL     1      50.342 153.755  29.561  0.00  0.00    +0.019 C 
ATOM     43  C   UNL     1      51.190 154.357  30.643  0.00  0.00    +0.019 C 
ATOM     44  C   UNL     1      50.460 155.614  30.986  0.00  0.00    +0.073 C 
ENDBRANCH  26  40
TORSDOF 3
