REMARK  Name = =
REMARK  8 active torsions:
REMARK  status: ('A' for Active; 'I' for Inactive)
REMARK    1  A    between atoms: N_1  and  C_19
REMARK    2  A    between atoms: C_2  and  N_27
REMARK    3  A    between atoms: C_5  and  C_7
REMARK    4  A    between atoms: C_14  and  O_18
REMARK    5  A    between atoms: C_15  and  O_17
REMARK    6  A    between atoms: C_22  and  O_26
REMARK    7  A    between atoms: C_28  and  N_33
REMARK    8  A    between atoms: C_34  and  O_36
REMARK                            x       y       z     vdW  Elec       q    Type
REMARK                         _______ _______ _______ _____ _____    ______ ____
ROOT
ATOM      1  N   UNL     1      52.318 159.413  30.387  0.00  0.00    -0.287 N 
ATOM      2  C   UNL     1      50.922 159.376  30.712  0.00  0.00    +0.185 C 
ATOM      3  C   UNL     1      50.156 159.295  29.390  0.00  0.00    +0.183 C 
ATOM      4  O   UNL     1      50.556 158.122  28.767  0.00  0.00    -0.349 OA
ATOM      5  C   UNL     1      51.864 158.256  28.338  0.00  0.00    +0.153 C 
ATOM      6  C   UNL     1      52.798 158.318  29.529  0.00  0.00    +0.124 C 
ENDROOT
BRANCH   5   7
ATOM      7  C   UNL     1      52.340 157.205  27.415  0.00  0.00    +0.106 C 
ATOM      8  N   UNL     1      53.718 157.329  27.004  0.00  0.00    -0.293 NA
ATOM      9  C   UNL     1      54.008 156.523  25.835  0.00  0.00    +0.074 C 
ATOM     10  C   UNL     1      53.127 155.337  25.645  0.00  0.00    +0.043 C 
ATOM     11  C   UNL     1      52.551 154.860  26.932  0.00  0.00    -0.020 C 
ATOM     12  C   UNL     1      52.145 155.817  27.843  0.00  0.00    -0.006 C 
ATOM     13  C   UNL     1      51.603 155.461  29.054  0.00  0.00    +0.037 C 
ATOM     14  C   UNL     1      51.475 154.117  29.335  0.00  0.00    +0.167 C 
ATOM     15  C   UNL     1      51.887 153.156  28.414  0.00  0.00    +0.167 C 
ATOM     16  C   UNL     1      52.430 153.511  27.200  0.00  0.00    +0.035 C 
ATOM     17  H   UNL     1      54.319 157.027  27.770  0.00  0.00    +0.124 HD
BRANCH  15  18
ATOM     18  O   UNL     1      51.758 151.799  28.699  0.00  0.00    -0.503 OA
ATOM     19  H   UNL     1      51.392 151.525  29.517  0.00  0.00    +0.292 HD
ENDBRANCH  15  18
BRANCH  14  20
ATOM     20  O   UNL     1      50.936 153.709  30.539  0.00  0.00    -0.503 OA
ATOM     21  H   UNL     1      50.655 154.346  31.166  0.00  0.00    +0.292 HD
ENDBRANCH  14  20
ENDBRANCH   5   7
BRANCH   1  22
ATOM     22  C   UNL     1      53.252 160.353  30.795  0.00  0.00    +0.077 C 
ATOM     23  C   UNL     1      54.524 160.361  30.280  0.00  0.00    +0.156 C 
ATOM     24  C   UNL     1      55.460 161.318  30.707  0.00  0.00    +0.067 C 
ATOM     25  C   UNL     1      55.093 162.254  31.653  0.00  0.00    +0.136 C 
ATOM     26  C   UNL     1      53.824 162.249  32.169  0.00  0.00    +0.038 C 
ATOM     27  C   UNL     1      52.932 161.299  31.729  0.00  0.00    +0.020 C 
ATOM     28  F   UNL     1      54.884 159.449  29.352  0.00  0.00    -0.203 F 
BRANCH  25  29
ATOM     29  O   UNL     1      56.055 163.195  32.055  0.00  0.00    -0.505 OA
ATOM     30  H   UNL     1      56.915 163.173  31.684  0.00  0.00    +0.292 HD
ENDBRANCH  25  29
ENDBRANCH   1  22
BRANCH   2  31
ATOM     31  N   UNL     1      50.455 160.441  31.535  0.00  0.00    -0.230 N 
ATOM     32  C   UNL     1      49.704 160.296  32.758  0.00  0.00    +0.176 C 
ATOM     33  C   UNL     1      50.148 161.452  33.583  0.00  0.00    +0.132 C 
ATOM     34  N   UNL     1      50.467 162.458  32.582  0.00  0.00    -0.285 N 
ATOM     35  C   UNL     1      50.623 161.833  31.315  0.00  0.00    +0.306 C 
ATOM     36  O   UNL     1      50.867 162.415  30.201  0.00  0.00    -0.253 OA
ATOM     37  H   UNL     1      50.560 163.423  32.755  0.00  0.00    +0.151 HD
BRANCH  32  38
ATOM     38  N   UNL     1      48.291 160.488  32.420  0.00  0.00    -0.254 N 
ATOM     39  C   UNL     1      47.545 159.465  31.780  0.00  0.00    +0.400 C 
ATOM     40  O   UNL     1      48.084 158.370  31.490  0.00  0.00    -0.227 OA
ATOM     41  H   UNL     1      47.852 161.341  32.641  0.00  0.00    +0.154 HD
BRANCH  39  42
ATOM     42  O   UNL     1      46.194 159.628  31.449  0.00  0.00    -0.466 OA
ATOM     43  H   UNL     1      45.756 160.432  31.649  0.00  0.00    +0.297 HD
ENDBRANCH  39  42
ENDBRANCH  32  38
ENDBRANCH   2  31
TORSDOF 8
