MODEL 1
REMARK VINA RESULT:    -8.671      0.000      0.000
REMARK INTER + INTRA:         -15.149
REMARK INTER:                 -13.740
REMARK INTRA:                  -1.409
REMARK UNBOUND:                -1.409
REMARK  Name = =
REMARK  12 active torsions:
REMARK  status: ('A' for Active; 'I' for Inactive)
REMARK    1  A    between atoms: C_1  and  C_21
REMARK    2  A    between atoms: C_1  and  C_31
REMARK    3  A    between atoms: C_4  and  N_8
REMARK    4  A    between atoms: C_23  and  O_26
REMARK    5  A    between atoms: C_24  and  N_27
REMARK    6  A    between atoms: N_27  and  C_28
REMARK    7  A    between atoms: C_28  and  C_29
REMARK    8  A    between atoms: C_29  and  O_30
REMARK    9  A    between atoms: C_35  and  S_36
REMARK   10  A    between atoms: S_36  and  P_37
REMARK   11  A    between atoms: P_37  and  O_39
REMARK   12  A    between atoms: P_37  and  O_40
REMARK                            x       y       z     vdW  Elec       q    Type
REMARK                         _______ _______ _______ _____ _____    ______ ____
ROOT
ATOM      1  C   UNL     1       2.731  -4.122  26.851  0.00  0.00    +0.037 C 
ATOM      2  C   UNL     1       2.236  -3.716  28.242  0.00  0.00    +0.010 C 
ATOM      3  C   UNL     1       1.668  -4.904  28.995  0.00  0.00    +0.023 C 
ATOM      4  C   UNL     1       0.375  -5.242  28.238  0.00  0.00    +0.102 C 
ATOM      5  C   UNL     1       0.802  -5.933  26.986  0.00  0.00    +0.044 C 
ATOM      6  C   UNL     1       1.926  -5.260  26.336  0.00  0.00    -0.039 C 
ATOM      7  C   UNL     1       2.271  -5.745  25.117  0.00  0.00    -0.009 C 
ENDROOT
BRANCH   4   8
ATOM      8  N   UNL     1      -0.501  -6.071  29.006  0.00  0.00    -0.191 N 
ATOM      9  N   UNL     1      -1.191  -5.651  30.043  0.00  0.00    -0.139 NA
ATOM     10  C   UNL     1      -1.920  -6.680  30.548  0.00  0.00    +0.262 C 
ATOM     11  N   UNL     1      -2.778  -6.560  31.676  0.00  0.00    -0.123 N 
ATOM     12  N   UNL     1      -3.296  -5.317  32.065  0.00  0.00    -0.172 NA
ATOM     13  C   UNL     1      -4.066  -5.171  33.068  0.00  0.00    +0.092 C 
ATOM     14  C   UNL     1      -4.481  -6.305  33.911  0.00  0.00    +0.058 C 
ATOM     15  C   UNL     1      -4.440  -7.622  33.172  0.00  0.00    +0.094 C 
ATOM     16  C   UNL     1      -3.141  -7.706  32.452  0.00  0.00    +0.251 C 
ATOM     17  O   UNL     1      -2.377  -8.689  32.486  0.00  0.00    -0.273 OA
ATOM     18  N   UNL     1      -1.637  -7.721  29.773  0.00  0.00    -0.191 NA
ATOM     19  C   UNL     1      -0.750  -7.363  28.802  0.00  0.00    +0.187 C 
ENDBRANCH   4   8
BRANCH   1  21
ATOM     20  C   UNL     1       2.460  -3.058  24.641  0.00  0.00    -0.002 C 
ATOM     21  C   UNL     1       2.497  -2.942  26.006  0.00  0.00    -0.016 C 
ATOM     22  C   UNL     1       2.270  -1.706  26.549  0.00  0.00    +0.034 C 
ATOM     23  C   UNL     1       2.012  -0.605  25.730  0.00  0.00    +0.148 C 
ATOM     24  C   UNL     1       1.975  -0.719  24.359  0.00  0.00    +0.099 C 
ATOM     25  C   UNL     1       2.200  -1.954  23.816  0.00  0.00    +0.019 C 
BRANCH  23  26
ATOM     26  O   UNL     1       1.786   0.642  26.296  0.00  0.00    -0.504 OA
ATOM     27  H   UNL     1       1.797   1.410  25.759  0.00  0.00    +0.292 HD
ENDBRANCH  23  26
BRANCH  24  28
ATOM     28  N   UNL     1       1.708   0.436  23.532  0.00  0.00    -0.232 NA
BRANCH  28  29
ATOM     29  C   UNL     1       2.012   0.156  22.149  0.00  0.00    +0.144 C 
BRANCH  29  30
ATOM     30  C   UNL     1       3.136   1.011  21.628  0.00  0.00    +0.160 C 
BRANCH  30  31
ATOM     31  O   UNL     1       4.375   0.425  21.778  0.00  0.00    -0.380 OA
ATOM     32  H   UNL     1       4.873   0.504  20.949  0.00  0.00    +0.211 HD
ENDBRANCH  30  31
ENDBRANCH  29  30
ENDBRANCH  28  29
ENDBRANCH  24  28
ENDBRANCH   1  21
BRANCH   1  33
ATOM     33  C   UNL     1       4.182  -4.534  26.963  0.00  0.00    +0.047 C 
ATOM     34  C   UNL     1       4.546  -5.797  27.309  0.00  0.00    +0.036 C 
ATOM     35  C   UNL     1       6.050  -5.848  27.329  0.00  0.00    +0.143 C 
ATOM     36  O   UNL     1       6.378  -4.516  27.627  0.00  0.00    -0.346 OA
ATOM     37  C   UNL     1       5.439  -3.798  26.819  0.00  0.00    +0.161 C 
BRANCH  37  38
ATOM     38  S   UNL     1       6.141  -3.867  25.136  0.00  0.00    -0.079 S 
ATOM     39  H   UNL     1       5.286  -4.499  24.289  0.00  0.00    +0.105 HD
BRANCH  38  40
ATOM     40  P   UNL     1       6.384  -2.015  24.600  0.00  0.00    +0.377 P 
ATOM     41  O   UNL     1       5.472  -1.283  25.556  0.00  0.00    -0.247 OA
BRANCH  40  42
ATOM     42  O   UNL     1       5.726  -1.794  23.054  0.00  0.00    -0.317 OA
ATOM     43  H   UNL     1       5.764  -2.630  22.564  0.00  0.00    +0.221 HD
ENDBRANCH  40  42
BRANCH  40  44
ATOM     44  O   UNL     1       7.969  -1.547  24.640  0.00  0.00    -0.317 OA
ATOM     45  H   UNL     1       8.412  -1.836  23.827  0.00  0.00    +0.221 HD
ENDBRANCH  40  44
ENDBRANCH  38  40
ENDBRANCH  37  38
ENDBRANCH   1  33
TORSDOF 12
ENDMDL
