MODEL 1
REMARK VINA RESULT:    -9.820      0.000      0.000
REMARK INTER + INTRA:         -12.433
REMARK INTER:                 -12.404
REMARK INTRA:                  -0.029
REMARK UNBOUND:                -0.029
REMARK  Name = =
REMARK  5 active torsions:
REMARK  status: ('A' for Active; 'I' for Inactive)
REMARK    1  A    between atoms: N_1  and  N_4
REMARK    2  A    between atoms: C_3  and  C_22
REMARK    3  A    between atoms: C_10  and  C_18
REMARK    4  A    between atoms: C_24  and  C_32
REMARK    5  A    between atoms: C_30  and  O_40
REMARK                            x       y       z     vdW  Elec       q    Type
REMARK                         _______ _______ _______ _____ _____    ______ ____
ROOT
ATOM      1  N   UNL     1      -2.045  -8.207  30.523  0.00  0.00    -0.193 NA
ATOM      2  C   UNL     1      -1.074  -9.153  30.827  0.00  0.00    +0.111 C 
ATOM      3  C   UNL     1      -0.541  -7.934  30.375  0.00  0.00    +0.098 C 
ENDROOT
BRANCH   1   4
ATOM      4  N   UNL     1      -2.706  -7.318  31.292  0.00  0.00    -0.151 N 
ATOM      5  C   UNL     1      -3.004  -5.955  30.979  0.00  0.00    +0.338 C 
ATOM      6  O   UNL     1      -2.597  -5.568  29.867  0.00  0.00    -0.250 OA
ATOM      7  N   UNL     1      -3.698  -5.065  31.812  0.00  0.00    -0.173 N 
ATOM      8  C   UNL     1      -3.995  -3.706  31.506  0.00  0.00    +0.161 C 
ATOM      9  N   UNL     1      -4.630  -2.907  32.277  0.00  0.00    -0.232 NA
ATOM     10  C   UNL     1      -4.745  -1.638  31.654  0.00  0.00    +0.206 C 
ATOM     11  N   UNL     1      -4.079  -1.804  30.388  0.00  0.00    -0.244 NA
ATOM     12  C   UNL     1      -3.629  -3.031  30.287  0.00  0.00    +0.130 C 
ATOM     13  C   UNL     1      -4.139  -5.582  33.084  0.00  0.00    +0.247 C 
ATOM     14  O   UNL     1      -4.401  -4.763  34.016  0.00  0.00    -0.274 OA
ATOM     15  C   UNL     1      -4.271  -7.047  33.272  0.00  0.00    +0.173 C 
ATOM     16  C   UNL     1      -3.175  -7.768  32.574  0.00  0.00    +0.255 C 
ATOM     17  O   UNL     1      -2.695  -8.771  33.159  0.00  0.00    -0.273 OA
BRANCH  10  18
ATOM     18  C   UNL     1      -6.173  -1.172  31.464  0.00  0.00    +0.046 C 
ATOM     19  C   UNL     1      -7.062  -1.412  32.655  0.00  0.00    +0.004 C 
ATOM     20  C   UNL     1      -6.593  -0.062  33.206  0.00  0.00    +0.000 C 
ATOM     21  C   UNL     1      -6.297   0.328  31.766  0.00  0.00    +0.004 C 
ENDBRANCH  10  18
ENDBRANCH   1   4
BRANCH   3  22
ATOM     22  C   UNL     1      -0.307  -7.500  28.943  0.00  0.00    +0.040 C 
ATOM     23  C   UNL     1      -0.431  -8.588  27.958  0.00  0.00    +0.007 C 
ATOM     24  C   UNL     1       0.816  -9.240  27.497  0.00  0.00    +0.016 C 
ATOM     25  C   UNL     1       2.086  -8.544  27.733  0.00  0.00    +0.027 C 
ATOM     26  C   UNL     1       2.032  -7.213  28.307  0.00  0.00    -0.023 C 
ATOM     27  C   UNL     1       0.934  -6.696  28.879  0.00  0.00    -0.025 C 
ATOM     28  C   UNL     1       0.940  -5.410  29.415  0.00  0.00    -0.001 C 
ATOM     29  C   UNL     1       2.094  -4.665  29.353  0.00  0.00    +0.036 C 
ATOM     30  C   UNL     1       3.247  -5.169  28.770  0.00  0.00    +0.133 C 
ATOM     31  C   UNL     1       3.199  -6.440  28.254  0.00  0.00    +0.032 C 
BRANCH  24  32
ATOM     32  C   UNL     1       0.706  -9.549  26.009  0.00  0.00    +0.106 C 
ATOM     33  C   UNL     1       2.017  -9.501  25.270  0.00  0.00    +0.132 C 
ATOM     34  S   UNL     1       1.932  -8.575  23.683  0.00  0.00    -0.119 S 
ATOM     35  C   UNL     1       2.232 -10.000  22.558  0.00  0.00    +0.081 C 
ATOM     36  C   UNL     1       2.581 -11.061  23.613  0.00  0.00    +0.106 C 
ATOM     37  N   UNL     1       1.703 -10.833  24.727  0.00  0.00    -0.271 N 
ATOM     38  C   UNL     1       0.704 -11.005  25.706  0.00  0.00    +0.228 C 
ATOM     39  O   UNL     1       0.010 -11.944  26.214  0.00  0.00    -0.275 OA
ENDBRANCH  24  32
BRANCH  30  40
ATOM     40  O   UNL     1       4.362  -4.351  28.751  0.00  0.00    -0.506 OA
ATOM     41  H   UNL     1       4.260  -3.419  28.781  0.00  0.00    +0.292 HD
ENDBRANCH  30  40
ENDBRANCH   3  22
TORSDOF 5
ENDMDL
