MODEL 1
REMARK VINA RESULT:    -7.584      0.000      0.000
REMARK INTER + INTRA:         -13.163
REMARK INTER:                 -12.018
REMARK INTRA:                  -1.145
REMARK UNBOUND:                -1.145
REMARK  Name = =
REMARK  12 active torsions:
REMARK  status: ('A' for Active; 'I' for Inactive)
REMARK    1  A    between atoms: C_1  and  N_11
REMARK    2  A    between atoms: C_1  and  C_19
REMARK    3  A    between atoms: C_10  and  O_35
REMARK    4  A    between atoms: C_19  and  C_22
REMARK    5  A    between atoms: C_27  and  S_29
REMARK    6  A    between atoms: C_28  and  C_32
REMARK    7  A    between atoms: S_29  and  C_30
REMARK    8  A    between atoms: C_30  and  N_31
REMARK    9  A    between atoms: N_33  and  O_34
REMARK   10  A    between atoms: O_35  and  P_36
REMARK   11  A    between atoms: P_36  and  N_38
REMARK   12  A    between atoms: P_36  and  N_39
REMARK                            x       y       z     vdW  Elec       q    Type
REMARK                         _______ _______ _______ _____ _____    ______ ____
ROOT
ATOM      1  C   UNL     1       2.191  -4.901  29.006  0.00  0.00    +0.058 C 
ATOM      2  C   UNL     1       1.620  -3.904  28.365  0.00  0.00    -0.005 C 
ATOM      3  C   UNL     1       1.710  -3.486  26.986  0.00  0.00    +0.022 C 
ATOM      4  C   UNL     1       2.245  -2.078  26.910  0.00  0.00    +0.004 C 
ATOM      5  C   UNL     1       2.225  -1.789  25.458  0.00  0.00    +0.000 C 
ATOM      6  C   UNL     1       2.542  -3.113  24.810  0.00  0.00    +0.000 C 
ATOM      7  C   UNL     1       2.489  -4.164  25.964  0.00  0.00    +0.004 C 
ATOM      8  C   UNL     1       1.487  -1.115  27.758  0.00  0.00    +0.003 C 
ATOM      9  C   UNL     1       1.399  -1.678  29.162  0.00  0.00    +0.034 C 
ATOM     10  C   UNL     1       0.647  -2.993  29.145  0.00  0.00    +0.143 C 
ENDROOT
BRANCH   1  11
ATOM     11  N   UNL     1       3.089  -5.819  28.322  0.00  0.00    -0.222 N 
ATOM     12  C   UNL     1       2.625  -6.975  27.838  0.00  0.00    +0.078 C 
ATOM     13  C   UNL     1       3.504  -7.815  27.175  0.00  0.00    +0.075 C 
ATOM     14  C   UNL     1       4.827  -7.452  27.029  0.00  0.00    +0.254 C 
ATOM     15  O   UNL     1       5.600  -8.230  26.426  0.00  0.00    -0.270 OA
ATOM     16  N   UNL     1       5.238  -6.271  27.542  0.00  0.00    -0.235 N 
ATOM     17  C   UNL     1       4.376  -5.489  28.168  0.00  0.00    +0.317 C 
ATOM     18  O   UNL     1       4.797  -4.395  28.633  0.00  0.00    -0.251 OA
ATOM     19  H   UNL     1       6.178  -5.994  27.448  0.00  0.00    +0.159 HD
ENDBRANCH   1  11
BRANCH   1  20
ATOM     20  C   UNL     1       2.006  -5.218  30.442  0.00  0.00    +0.153 C 
ATOM     21  C   UNL     1       3.113  -4.859  31.381  0.00  0.00    +0.175 C 
ATOM     22  O   UNL     1       1.879  -4.267  31.424  0.00  0.00    -0.348 OA
BRANCH  20  23
ATOM     23  C   UNL     1       1.203  -6.476  30.733  0.00  0.00    +0.063 C 
ATOM     24  C   UNL     1      -0.034  -6.490  29.816  0.00  0.00    +0.124 C 
ATOM     25  O   UNL     1      -1.051  -5.975  30.605  0.00  0.00    -0.357 OA
ATOM     26  C   UNL     1      -0.927  -6.797  31.741  0.00  0.00    +0.125 C 
ATOM     27  C   UNL     1       0.550  -6.497  32.074  0.00  0.00    +0.036 C 
ATOM     28  C   UNL     1      -1.009  -8.177  31.128  0.00  0.00    +0.072 C 
ATOM     29  C   UNL     1      -0.447  -7.963  29.740  0.00  0.00    +0.083 C 
BRANCH  28  30
ATOM     30  S   UNL     1      -2.697  -8.818  31.099  0.00  0.00    -0.187 S 
ATOM     31  H   UNL     1      -2.741  -9.857  31.976  0.00  0.00    +0.094 HD
BRANCH  30  32
ATOM     32  C   UNL     1      -3.938  -7.829  31.473  0.00  0.00    +0.112 C 
BRANCH  32  33
ATOM     33  N   UNL     1      -4.076  -6.528  30.904  0.00  0.00    -0.313 NA
ATOM     34  H   UNL     1      -3.873  -5.824  31.613  0.00  0.00    +0.120 HD
ATOM     35  H   UNL     1      -5.030  -6.405  30.565  0.00  0.00    +0.120 HD
ENDBRANCH  32  33
ENDBRANCH  30  32
ENDBRANCH  28  30
BRANCH  29  36
ATOM     36  C   UNL     1      -1.471  -8.071  28.683  0.00  0.00    +0.116 C 
ATOM     37  N   UNL     1      -1.130  -8.339  27.488  0.00  0.00    -0.089 NA
BRANCH  37  38
ATOM     38  O   UNL     1      -1.998  -8.460  26.440  0.00  0.00    -0.409 OA
ATOM     39  H   UNL     1      -2.424  -7.699  26.094  0.00  0.00    +0.328 HD
ENDBRANCH  37  38
ENDBRANCH  29  36
ENDBRANCH  20  23
ENDBRANCH   1  20
BRANCH  10  40
ATOM     40  O   UNL     1      -0.437  -2.893  28.270  0.00  0.00    -0.291 OA
BRANCH  40  41
ATOM     41  P   UNL     1      -1.886  -2.560  29.020  0.00  0.00    +0.339 P 
ATOM     42  O   UNL     1      -2.962  -3.370  28.306  0.00  0.00    -0.255 OA
BRANCH  41  43
ATOM     43  N   UNL     1      -1.833  -3.134  30.676  0.00  0.00    -0.247 NA
ATOM     44  H   UNL     1      -2.172  -4.096  30.714  0.00  0.00    +0.129 HD
ATOM     45  H   UNL     1      -2.424  -2.543  31.260  0.00  0.00    +0.129 HD
ENDBRANCH  41  43
BRANCH  41  46
ATOM     46  N   UNL     1      -2.352  -0.891  28.929  0.00  0.00    -0.247 NA
ATOM     47  H   UNL     1      -2.968  -0.667  29.710  0.00  0.00    +0.129 HD
ATOM     48  H   UNL     1      -2.842  -0.722  28.050  0.00  0.00    +0.129 HD
ENDBRANCH  41  46
ENDBRANCH  40  41
ENDBRANCH  10  40
TORSDOF 12
ENDMDL
