REMARK  Name = =
REMARK  12 active torsions:
REMARK  status: ('A' for Active; 'I' for Inactive)
REMARK    1  A    between atoms: C_1  and  N_11
REMARK    2  A    between atoms: C_1  and  C_19
REMARK    3  A    between atoms: C_10  and  O_35
REMARK    4  A    between atoms: C_19  and  C_22
REMARK    5  A    between atoms: C_27  and  S_29
REMARK    6  A    between atoms: C_28  and  C_32
REMARK    7  A    between atoms: S_29  and  C_30
REMARK    8  A    between atoms: C_30  and  N_31
REMARK    9  A    between atoms: N_33  and  O_34
REMARK   10  A    between atoms: O_35  and  P_36
REMARK   11  A    between atoms: P_36  and  N_38
REMARK   12  A    between atoms: P_36  and  N_39
REMARK                            x       y       z     vdW  Elec       q    Type
REMARK                         _______ _______ _______ _____ _____    ______ ____
ROOT
ATOM      1  C   UNL     1       6.588  -9.766  25.368  0.00  0.00    +0.058 C 
ATOM      2  C   UNL     1       7.445 -10.678  24.964  0.00  0.00    -0.005 C 
ATOM      3  C   UNL     1       8.706 -10.555  24.271  0.00  0.00    +0.022 C 
ATOM      4  C   UNL     1       8.643 -11.288  22.954  0.00  0.00    +0.004 C 
ATOM      5  C   UNL     1      10.007 -11.112  22.406  0.00  0.00    +0.000 C 
ATOM      6  C   UNL     1      10.421  -9.739  22.871  0.00  0.00    +0.000 C 
ATOM      7  C   UNL     1       9.323  -9.296  23.890  0.00  0.00    +0.004 C 
ATOM      8  C   UNL     1       8.193 -12.703  23.091  0.00  0.00    +0.003 C 
ATOM      9  C   UNL     1       6.901 -12.721  23.882  0.00  0.00    +0.034 C 
ATOM     10  C   UNL     1       7.137 -12.160  25.269  0.00  0.00    +0.143 C 
ENDROOT
BRANCH   1  11
ATOM     11  N   UNL     1       6.835  -8.349  25.145  0.00  0.00    -0.222 N 
ATOM     12  C   UNL     1       6.322  -7.740  24.073  0.00  0.00    +0.078 C 
ATOM     13  C   UNL     1       6.560  -6.386  23.903  0.00  0.00    +0.075 C 
ATOM     14  C   UNL     1       7.315  -5.698  24.830  0.00  0.00    +0.254 C 
ATOM     15  O   UNL     1       7.516  -4.475  24.653  0.00  0.00    -0.270 OA
ATOM     16  N   UNL     1       7.809  -6.369  25.894  0.00  0.00    -0.235 N 
ATOM     17  C   UNL     1       7.564  -7.661  26.030  0.00  0.00    +0.317 C 
ATOM     18  O   UNL     1       8.042  -8.252  27.036  0.00  0.00    -0.251 OA
ATOM     19  H   UNL     1       8.350  -5.896  26.567  0.00  0.00    +0.159 HD
ENDBRANCH   1  11
BRANCH   1  20
ATOM     20  C   UNL     1       5.315 -10.037  26.077  0.00  0.00    +0.153 C 
ATOM     21  C   UNL     1       5.340 -10.044  27.572  0.00  0.00    +0.175 C 
ATOM     22  O   UNL     1       4.654  -9.109  26.843  0.00  0.00    -0.348 OA
BRANCH  20  23
ATOM     23  C   UNL     1       4.371 -11.000  25.374  0.00  0.00    +0.063 C 
ATOM     24  C   UNL     1       3.845 -10.324  24.095  0.00  0.00    +0.124 C 
ATOM     25  O   UNL     1       2.615  -9.802  24.465  0.00  0.00    -0.357 OA
ATOM     26  C   UNL     1       2.018 -10.944  25.031  0.00  0.00    +0.125 C 
ATOM     27  C   UNL     1       3.091 -11.251  26.098  0.00  0.00    +0.036 C 
ATOM     28  C   UNL     1       2.158 -11.948  23.909  0.00  0.00    +0.072 C 
ATOM     29  C   UNL     1       3.406 -11.482  23.193  0.00  0.00    +0.083 C 
BRANCH  28  30
ATOM     30  S   UNL     1       0.711 -11.978  22.828  0.00  0.00    -0.187 S 
ATOM     31  H   UNL     1       0.918 -11.041  21.864  0.00  0.00    +0.094 HD
BRANCH  30  32
ATOM     32  C   UNL     1       0.307 -13.362  22.066  0.00  0.00    +0.112 C 
BRANCH  32  33
ATOM     33  N   UNL     1      -0.822 -13.455  21.200  0.00  0.00    -0.313 NA
ATOM     34  H   UNL     1      -0.891 -14.404  20.832  0.00  0.00    +0.120 HD
ATOM     35  H   UNL     1      -0.713 -12.797  20.428  0.00  0.00    +0.120 HD
ENDBRANCH  32  33
ENDBRANCH  30  32
ENDBRANCH  28  30
BRANCH  29  36
ATOM     36  C   UNL     1       3.125 -10.910  21.862  0.00  0.00    +0.116 C 
ATOM     37  N   UNL     1       3.993 -10.989  20.937  0.00  0.00    -0.089 NA
BRANCH  37  38
ATOM     38  O   UNL     1       3.830 -10.493  19.674  0.00  0.00    -0.409 OA
ATOM     39  H   UNL     1       4.515 -10.588  19.041  0.00  0.00    +0.328 HD
ENDBRANCH  37  38
ENDBRANCH  29  36
ENDBRANCH  20  23
ENDBRANCH   1  20
BRANCH  10  40
ATOM     40  O   UNL     1       8.361 -12.627  25.754  0.00  0.00    -0.291 OA
BRANCH  40  41
ATOM     41  P   UNL     1       8.325 -13.093  27.352  0.00  0.00    +0.339 P 
ATOM     42  O   UNL     1       9.370 -14.188  27.528  0.00  0.00    -0.255 OA
BRANCH  41  43
ATOM     43  N   UNL     1       8.822 -11.750  28.364  0.00  0.00    -0.247 NA
ATOM     44  H   UNL     1       9.720 -11.392  28.038  0.00  0.00    +0.129 HD
ATOM     45  H   UNL     1       8.913 -12.067  29.329  0.00  0.00    +0.129 HD
ENDBRANCH  41  43
BRANCH  41  46
ATOM     46  N   UNL     1       6.800 -13.751  27.854  0.00  0.00    -0.247 NA
ATOM     47  H   UNL     1       6.547 -14.527  27.243  0.00  0.00    +0.129 HD
ATOM     48  H   UNL     1       6.083 -13.027  27.800  0.00  0.00    +0.129 HD
ENDBRANCH  41  46
ENDBRANCH  40  41
ENDBRANCH  10  40
TORSDOF 12
