REMARK  Name = =
REMARK  5 active torsions:
REMARK  status: ('A' for Active; 'I' for Inactive)
REMARK    1  A    between atoms: N_1  and  N_4
REMARK    2  A    between atoms: C_3  and  C_22
REMARK    3  A    between atoms: C_10  and  C_18
REMARK    4  A    between atoms: C_24  and  C_32
REMARK    5  A    between atoms: C_30  and  O_40
REMARK                            x       y       z     vdW  Elec       q    Type
REMARK                         _______ _______ _______ _____ _____    ______ ____
ROOT
ATOM      1  N   UNL     1      -0.331  -2.116  28.071  0.00  0.00    -0.193 NA
ATOM      2  C   UNL     1       0.246  -2.195  29.333  0.00  0.00    +0.111 C 
ATOM      3  C   UNL     1      -0.165  -3.441  28.830  0.00  0.00    +0.098 C 
ENDROOT
BRANCH   1   4
ATOM      4  N   UNL     1       0.209  -2.103  26.835  0.00  0.00    -0.151 N 
ATOM      5  C   UNL     1       1.572  -2.351  26.483  0.00  0.00    +0.338 C 
ATOM      6  O   UNL     1       2.327  -2.604  27.441  0.00  0.00    -0.250 OA
ATOM      7  N   UNL     1       2.090  -2.328  25.179  0.00  0.00    -0.173 N 
ATOM      8  C   UNL     1       3.447  -2.572  24.824  0.00  0.00    +0.161 C 
ATOM      9  N   UNL     1       3.904  -2.548  23.629  0.00  0.00    -0.232 NA
ATOM     10  C   UNL     1       5.293  -2.836  23.646  0.00  0.00    +0.206 C 
ATOM     11  N   UNL     1       5.595  -3.036  25.040  0.00  0.00    -0.244 NA
ATOM     12  C   UNL     1       4.505  -2.883  25.752  0.00  0.00    +0.130 C 
ATOM     13  C   UNL     1       1.158  -2.027  24.120  0.00  0.00    +0.247 C 
ATOM     14  O   UNL     1       1.611  -1.606  23.013  0.00  0.00    -0.274 OA
ATOM     15  C   UNL     1      -0.295  -2.213  24.350  0.00  0.00    +0.173 C 
ATOM     16  C   UNL     1      -0.665  -1.811  25.732  0.00  0.00    +0.255 C 
ATOM     17  O   UNL     1      -1.762  -1.215  25.873  0.00  0.00    -0.273 OA
BRANCH  10  18
ATOM     18  C   UNL     1       5.681  -4.045  22.823  0.00  0.00    +0.046 C 
ATOM     19  C   UNL     1       4.916  -4.183  21.533  0.00  0.00    +0.004 C 
ATOM     20  C   UNL     1       5.966  -3.280  20.879  0.00  0.00    +0.000 C 
ATOM     21  C   UNL     1       6.921  -3.742  21.969  0.00  0.00    +0.004 C 
ENDBRANCH  10  18
ENDBRANCH   1   4
BRANCH   3  22
ATOM     22  C   UNL     1      -1.539  -4.072  28.927  0.00  0.00    +0.040 C 
ATOM     23  C   UNL     1      -2.400  -3.477  29.963  0.00  0.00    +0.007 C 
ATOM     24  C   UNL     1      -2.477  -4.170  31.270  0.00  0.00    +0.016 C 
ATOM     25  C   UNL     1      -2.022  -5.563  31.340  0.00  0.00    +0.027 C 
ATOM     26  C   UNL     1      -1.627  -6.209  30.103  0.00  0.00    -0.023 C 
ATOM     27  C   UNL     1      -1.393  -5.544  28.961  0.00  0.00    -0.025 C 
ATOM     28  C   UNL     1      -1.015  -6.217  27.801  0.00  0.00    -0.001 C 
ATOM     29  C   UNL     1      -0.881  -7.585  27.836  0.00  0.00    +0.036 C 
ATOM     30  C   UNL     1      -1.114  -8.304  28.999  0.00  0.00    +0.133 C 
ATOM     31  C   UNL     1      -1.484  -7.602  30.119  0.00  0.00    +0.032 C 
BRANCH  24  32
ATOM     32  C   UNL     1      -3.905  -4.102  31.796  0.00  0.00    +0.106 C 
ATOM     33  C   UNL     1      -4.371  -2.711  32.139  0.00  0.00    +0.132 C 
ATOM     34  S   UNL     1      -5.226  -2.602  33.764  0.00  0.00    -0.119 S 
ATOM     35  C   UNL     1      -6.898  -2.174  33.126  0.00  0.00    +0.081 C 
ATOM     36  C   UNL     1      -6.536  -1.957  31.649  0.00  0.00    +0.106 C 
ATOM     37  N   UNL     1      -5.565  -2.962  31.315  0.00  0.00    -0.271 N 
ATOM     38  C   UNL     1      -4.931  -4.071  30.720  0.00  0.00    +0.228 C 
ATOM     39  O   UNL     1      -5.070  -4.824  29.703  0.00  0.00    -0.275 OA
ENDBRANCH  24  32
BRANCH  30  40
ATOM     40  O   UNL     1      -0.956  -9.676  28.943  0.00  0.00    -0.506 OA
ATOM     41  H   UNL     1      -0.700 -10.086  28.140  0.00  0.00    +0.292 HD
ENDBRANCH  30  40
ENDBRANCH   3  22
TORSDOF 5
