REMARK  Name = =
REMARK  2 active torsions:
REMARK  status: ('A' for Active; 'I' for Inactive)
REMARK    1  A    between atoms: C_1  and  C_3
REMARK    2  A    between atoms: C_1  and  O_5
REMARK                            x       y       z     vdW  Elec       q    Type
REMARK                         _______ _______ _______ _____ _____    ______ ____
ROOT
ATOM      1  C   UNL     1      -2.787  -2.749  29.760  0.00  0.00    +0.338 C 
ATOM      2  O   UNL     1      -3.282  -2.261  30.801  0.00  0.00    -0.245 OA
ENDROOT
BRANCH   1   3
ATOM      3  C   UNL     1      -1.343  -2.637  29.478  0.00  0.00    +0.082 C 
ATOM      4  C   UNL     1      -0.471  -3.312  30.157  0.00  0.00    +0.007 C 
ENDBRANCH   1   3
BRANCH   1   5
ATOM      5  O   UNL     1      -3.653  -3.394  28.891  0.00  0.00    -0.477 OA
ATOM      6  H   UNL     1      -3.326  -3.774  28.100  0.00  0.00    +0.295 HD
ENDBRANCH   1   5
TORSDOF 2
