REMARK  Name = =
REMARK  1 active torsions:
REMARK  status: ('A' for Active; 'I' for Inactive)
REMARK    1  A    between atoms: C_2  and  C_3
REMARK                            x       y       z     vdW  Elec       q    Type
REMARK                         _______ _______ _______ _____ _____    ______ ____
ROOT
ATOM      1  N   UNL     1      -4.265  -4.165  31.666  0.00  0.00    -0.191 NA
ATOM      2  C   UNL     1      -4.048  -5.291  31.817  0.00  0.00    +0.101 C 
ENDROOT
BRANCH   2   3
ATOM      3  C   UNL     1      -3.791  -6.696  32.008  0.00  0.00    +0.078 C 
ATOM      4  C   UNL     1      -4.414  -7.342  32.957  0.00  0.00    +0.012 C 
ENDBRANCH   2   3
TORSDOF 1
