REMARK  Name = =
REMARK  3 active torsions:
REMARK  status: ('A' for Active; 'I' for Inactive)
REMARK    1  A    between atoms: C_1  and  C_19
REMARK    2  A    between atoms: C_18  and  C_20
REMARK    3  A    between atoms: C_20  and  O_22
REMARK                            x       y       z     vdW  Elec       q    Type
REMARK                         _______ _______ _______ _____ _____    ______ ____
ROOT
ATOM      1  C   UNL     1       5.721  -9.594  25.901  0.00  0.00    +0.027 C 
ATOM      2  C   UNL     1       6.009 -10.982  26.343  0.00  0.00    +0.009 C 
ATOM      3  C   UNL     1       4.806 -11.741  26.863  0.00  0.00    +0.026 C 
ATOM      4  C   UNL     1       3.689 -11.527  25.907  0.00  0.00    -0.026 C 
ATOM      5  C   UNL     1       2.622 -12.521  25.887  0.00  0.00    -0.009 C 
ATOM      6  C   UNL     1       1.243 -12.121  25.738  0.00  0.00    -0.023 C 
ATOM      7  C   UNL     1       0.344 -13.023  24.969  0.00  0.00    +0.026 C 
ATOM      8  C   UNL     1       1.076 -13.625  23.819  0.00  0.00    +0.026 C 
ATOM      9  C   UNL     1       0.063 -14.682  23.351  0.00  0.00    +0.005 C 
ATOM     10  C   UNL     1      -0.537 -15.191  24.635  0.00  0.00    +0.001 C 
ATOM     11  C   UNL     1      -0.172 -14.198  25.718  0.00  0.00    +0.005 C 
ATOM     12  C   UNL     1       2.336 -14.330  24.160  0.00  0.00    -0.026 C 
ATOM     13  C   UNL     1       3.050 -13.834  25.363  0.00  0.00    -0.005 C 
ATOM     14  C   UNL     1       0.955 -10.703  25.364  0.00  0.00    -0.005 C 
ATOM     15  C   UNL     1       2.068  -9.772  25.673  0.00  0.00    -0.005 C 
ATOM     16  C   UNL     1       3.294 -10.127  25.919  0.00  0.00    -0.026 C 
ATOM     17  C   UNL     1       4.326  -9.110  26.217  0.00  0.00    +0.030 C 
ENDROOT
BRANCH   1  19
ATOM     18  C   UNL     1       7.780  -8.290  26.067  0.00  0.00    +0.077 C 
ATOM     19  C   UNL     1       6.657  -8.683  26.635  0.00  0.00    -0.019 C 
BRANCH  18  20
ATOM     20  C   UNL     1       8.683  -7.405  26.787  0.00  0.00    +0.338 C 
ATOM     21  O   UNL     1       9.827  -7.211  26.314  0.00  0.00    -0.245 OA
BRANCH  20  22
ATOM     22  O   UNL     1       8.318  -6.787  27.958  0.00  0.00    -0.477 OA
ATOM     23  H   UNL     1       7.464  -6.929  28.316  0.00  0.00    +0.295 HD
ENDBRANCH  20  22
ENDBRANCH  18  20
ENDBRANCH   1  19
TORSDOF 3
