REMARK  Name = =
REMARK  4 active torsions:
REMARK  status: ('A' for Active; 'I' for Inactive)
REMARK    1  A    between atoms: C_1  and  C_25
REMARK    2  A    between atoms: C_3  and  C_18
REMARK    3  A    between atoms: C_24  and  C_26
REMARK    4  A    between atoms: C_26  and  O_28
REMARK                            x       y       z     vdW  Elec       q    Type
REMARK                         _______ _______ _______ _____ _____    ______ ____
ROOT
ATOM      1  C   UNL     1       5.738  -9.127  26.192  0.00  0.00    +0.027 C 
ATOM      2  C   UNL     1       6.208 -10.027  25.100  0.00  0.00    +0.009 C 
ATOM      3  C   UNL     1       5.355 -11.245  24.823  0.00  0.00    +0.022 C 
ATOM      4  C   UNL     1       3.937 -10.842  24.715  0.00  0.00    +0.022 C 
ATOM      5  C   UNL     1       2.914 -11.860  24.473  0.00  0.00    +0.004 C 
ATOM      6  C   UNL     1       2.464 -12.652  25.647  0.00  0.00    +0.005 C 
ATOM      7  C   UNL     1       1.384 -13.654  25.269  0.00  0.00    +0.000 C 
ATOM      8  C   UNL     1       0.156 -12.963  24.744  0.00  0.00    +0.000 C 
ATOM      9  C   UNL     1      -0.301 -13.843  23.610  0.00  0.00    +0.000 C 
ATOM     10  C   UNL     1       0.848 -14.662  23.138  0.00  0.00    +0.000 C 
ATOM     11  C   UNL     1       1.867 -14.623  24.229  0.00  0.00    +0.000 C 
ATOM     12  C   UNL     1       0.429 -11.595  24.200  0.00  0.00    +0.000 C 
ATOM     13  C   UNL     1       1.780 -11.383  23.617  0.00  0.00    +0.000 C 
ATOM     14  C   UNL     1       2.169 -11.930  26.899  0.00  0.00    +0.025 C 
ATOM     15  C   UNL     1       2.831 -10.620  26.942  0.00  0.00    -0.035 C 
ATOM     16  C   UNL     1       3.595 -10.151  26.001  0.00  0.00    -0.048 C 
ATOM     17  C   UNL     1       4.247  -8.823  26.158  0.00  0.00    +0.026 C 
ENDROOT
BRANCH   3  18
ATOM     18  C   UNL     1       5.955 -11.874  23.621  0.00  0.00    -0.048 C 
ATOM     19  C   UNL     1       5.581 -11.614  22.375  0.00  0.00    -0.035 C 
ATOM     20  C   UNL     1       6.238 -12.291  21.228  0.00  0.00    +0.025 C 
ATOM     21  C   UNL     1       7.732 -12.417  21.396  0.00  0.00    +0.005 C 
ATOM     22  C   UNL     1       8.169 -12.375  22.837  0.00  0.00    +0.005 C 
ATOM     23  C   UNL     1       7.065 -12.884  23.739  0.00  0.00    +0.022 C 
ENDBRANCH   3  18
BRANCH   1  25
ATOM     24  C   UNL     1       6.979  -9.142  28.368  0.00  0.00    +0.077 C 
ATOM     25  C   UNL     1       6.150  -9.638  27.512  0.00  0.00    -0.019 C 
BRANCH  24  26
ATOM     26  C   UNL     1       7.739  -7.932  28.256  0.00  0.00    +0.338 C 
ATOM     27  O   UNL     1       7.535  -7.018  27.426  0.00  0.00    -0.245 OA
BRANCH  26  28
ATOM     28  O   UNL     1       8.822  -7.686  29.125  0.00  0.00    -0.477 OA
ATOM     29  H   UNL     1       9.049  -8.316  29.780  0.00  0.00    +0.295 HD
ENDBRANCH  26  28
ENDBRANCH  24  26
ENDBRANCH   1  25
TORSDOF 4
