REMARK  Name = =
REMARK  4 active torsions:
REMARK  status: ('A' for Active; 'I' for Inactive)
REMARK    1  A    between atoms: C_1  and  C_20
REMARK    2  A    between atoms: C_19  and  C_22
REMARK    3  A    between atoms: C_19  and  S_23
REMARK    4  A    between atoms: S_23  and  C_24
REMARK                            x       y       z     vdW  Elec       q    Type
REMARK                         _______ _______ _______ _____ _____    ______ ____
ROOT
ATOM      1  C   UNL     1      -0.200  -8.015  28.897  0.00  0.00    +0.023 C 
ATOM      2  C   UNL     1      -0.180  -9.070  27.815  0.00  0.00    +0.004 C 
ATOM      3  C   UNL     1       0.920  -8.525  26.917  0.00  0.00    +0.000 C 
ATOM      4  C   UNL     1       1.428  -9.589  25.968  0.00  0.00    +0.000 C 
ATOM      5  C   UNL     1       0.444 -10.693  25.997  0.00  0.00    +0.000 C 
ATOM      6  C   UNL     1       0.133 -11.429  24.794  0.00  0.00    +0.001 C 
ATOM      7  C   UNL     1       0.280 -10.720  23.525  0.00  0.00    +0.007 C 
ATOM      8  C   UNL     1       0.554  -9.267  23.645  0.00  0.00    +0.000 C 
ATOM      9  C   UNL     1       1.639  -8.937  24.637  0.00  0.00    +0.000 C 
ATOM     10  C   UNL     1       1.024 -11.418  22.442  0.00  0.00    +0.064 C 
ATOM     11  C   UNL     1       0.496 -12.793  22.319  0.00  0.00    +0.151 C 
ATOM     12  O   UNL     1       0.692 -13.461  21.325  0.00  0.00    -0.296 OA
ATOM     13  C   UNL     1      -0.289 -13.382  23.415  0.00  0.00    +0.065 C 
ATOM     14  C   UNL     1       0.213 -12.901  24.783  0.00  0.00    +0.008 C 
ATOM     15  C   UNL     1       0.465 -11.429  27.280  0.00  0.00    +0.000 C 
ATOM     16  C   UNL     1       0.188 -10.425  28.379  0.00  0.00    +0.000 C 
ATOM     17  C   UNL     1       1.937  -8.061  27.895  0.00  0.00    +0.000 C 
ATOM     18  C   UNL     1       1.254  -7.880  29.236  0.00  0.00    +0.004 C 
ENDROOT
BRANCH   1  20
ATOM     19  C   UNL     1      -1.779  -7.491  30.627  0.00  0.00    +0.096 C 
ATOM     20  C   UNL     1      -1.031  -8.413  30.054  0.00  0.00    -0.010 C 
BRANCH  19  22
ATOM     21  N   UNL     1      -3.275  -8.139  32.653  0.00  0.00    -0.190 NA
ATOM     22  C   UNL     1      -2.594  -7.840  31.745  0.00  0.00    +0.107 C 
ENDBRANCH  19  22
BRANCH  19  23
ATOM     23  S   UNL     1      -1.799  -5.799  30.035  0.00  0.00    -0.037 S 
BRANCH  23  24
ATOM     24  C   UNL     1      -2.723  -4.769  31.133  0.00  0.00    +0.212 A 
ATOM     25  N   UNL     1      -2.936  -3.451  31.001  0.00  0.00    -0.234 N 
ATOM     26  N   UNL     1      -3.672  -3.037  32.021  0.00  0.00    -0.046 NA
ATOM     27  N   UNL     1      -3.907  -4.097  32.772  0.00  0.00    -0.022 NA
ATOM     28  N   UNL     1      -3.337  -5.182  32.254  0.00  0.00    -0.101 NA
ATOM     29  H   UNL     1      -2.601  -2.886  30.268  0.00  0.00    +0.193 HD
ENDBRANCH  23  24
ENDBRANCH  19  23
ENDBRANCH   1  20
TORSDOF 4
