REMARK  Name = =
REMARK  5 active torsions:
REMARK  status: ('A' for Active; 'I' for Inactive)
REMARK    1  A    between atoms: C_1  and  C_25
REMARK    2  A    between atoms: C_3  and  C_18
REMARK    3  A    between atoms: CA_24  and  N_26
REMARK    4  A    between atoms: CA_24  and  C_27
REMARK    5  A    between atoms: C_27  and  O_29
REMARK                            x       y       z     vdW  Elec       q    Type
REMARK                         _______ _______ _______ _____ _____    ______ ____
ROOT
ATOM      1  C   UNL     1       5.367 -12.236  23.278  0.00  0.00    +0.028 C 
ATOM      2  C   UNL     1       6.208 -11.933  24.484  0.00  0.00    +0.009 C 
ATOM      3  C   UNL     1       5.851 -10.726  25.215  0.00  0.00    +0.022 C 
ATOM      4  C   UNL     1       4.463 -10.198  25.124  0.00  0.00    +0.022 C 
ATOM      5  C   UNL     1       3.669 -10.503  26.313  0.00  0.00    +0.004 C 
ATOM      6  C   UNL     1       2.191 -10.517  26.142  0.00  0.00    +0.005 C 
ATOM      7  C   UNL     1       1.452 -10.018  27.319  0.00  0.00    +0.000 C 
ATOM      8  C   UNL     1       1.927  -8.683  27.843  0.00  0.00    +0.000 C 
ATOM      9  C   UNL     1       1.086  -7.630  27.214  0.00  0.00    +0.000 C 
ATOM     10  C   UNL     1      -0.204  -8.327  26.863  0.00  0.00    +0.000 C 
ATOM     11  C   UNL     1      -0.012  -9.807  27.130  0.00  0.00    +0.000 C 
ATOM     12  C   UNL     1       3.396  -8.492  27.711  0.00  0.00    +0.000 C 
ATOM     13  C   UNL     1       4.120  -9.826  27.578  0.00  0.00    +0.000 C 
ATOM     14  C   UNL     1       1.673  -9.966  24.847  0.00  0.00    +0.025 C 
ATOM     15  C   UNL     1       2.538 -10.426  23.690  0.00  0.00    -0.035 C 
ATOM     16  C   UNL     1       3.833 -10.531  23.835  0.00  0.00    -0.048 C 
ATOM     17  C   UNL     1       4.772 -11.018  22.725  0.00  0.00    +0.026 C 
ENDROOT
BRANCH   3  18
ATOM     18  C   UNL     1       6.858  -9.627  24.935  0.00  0.00    -0.048 C 
ATOM     19  C   UNL     1       6.609  -8.363  25.205  0.00  0.00    -0.035 C 
ATOM     20  C   UNL     1       7.556  -7.258  24.951  0.00  0.00    +0.025 C 
ATOM     21  C   UNL     1       8.958  -7.700  24.697  0.00  0.00    +0.005 C 
ATOM     22  C   UNL     1       9.219  -9.145  25.013  0.00  0.00    +0.005 C 
ATOM     23  C   UNL     1       8.161  -9.989  24.341  0.00  0.00    +0.022 C 
ENDBRANCH   3  18
BRANCH   1  25
ATOM     24  CA  UNL     1       7.060 -13.229  21.627  0.00  0.00    +0.114 C 
ATOM     25  C   UNL     1       6.064 -13.182  22.393  0.00  0.00    -0.005 C 
BRANCH  24  26
ATOM     26  N   UNL     1       7.280 -14.526  20.955  0.00  0.00    -0.352 N 
ATOM     27  H1  UNL     1       6.639 -15.262  21.084  0.00  0.00    +0.143 HD
ATOM     28  H2  UNL     1       8.067 -14.654  20.378  0.00  0.00    +0.143 HD
ENDBRANCH  24  26
BRANCH  24  29
ATOM     29  C   UNL     1       8.074 -12.263  21.342  0.00  0.00    +0.351 C 
ATOM     30  OXT UNL     1       7.960 -11.150  20.774  0.00  0.00    -0.244 OA
BRANCH  29  31
ATOM     31  O   UNL     1       9.438 -12.507  21.717  0.00  0.00    -0.476 OA
ATOM     32  H   UNL     1       9.669 -13.304  22.152  0.00  0.00    +0.295 HD
ENDBRANCH  29  31
ENDBRANCH  24  29
ENDBRANCH   1  25
TORSDOF 5
