REMARK  Name = =
REMARK  6 active torsions:
REMARK  status: ('A' for Active; 'I' for Inactive)
REMARK    1  A    between atoms: C_1  and  C_25
REMARK    2  A    between atoms: C_3  and  C_18
REMARK    3  A    between atoms: CA_24  and  N_32
REMARK    4  A    between atoms: CA_24  and  C_33
REMARK    5  A    between atoms: C_25  and  C_26
REMARK    6  A    between atoms: C_33  and  OXT_35
REMARK                            x       y       z     vdW  Elec       q    Type
REMARK                         _______ _______ _______ _____ _____    ______ ____
ROOT
ATOM      1  C   UNL     1       5.884 -11.949  24.160  0.00  0.00    +0.031 C 
ATOM      2  C   UNL     1       4.581 -12.185  24.880  0.00  0.00    +0.009 C 
ATOM      3  C   UNL     1       3.867 -10.828  24.995  0.00  0.00    +0.022 C 
ATOM      4  C   UNL     1       4.646  -9.959  25.908  0.00  0.00    +0.022 C 
ATOM      5  C   UNL     1       4.208  -8.575  26.077  0.00  0.00    +0.004 C 
ATOM      6  C   UNL     1       5.209  -7.523  26.008  0.00  0.00    +0.005 C 
ATOM      7  C   UNL     1       4.837  -6.124  26.267  0.00  0.00    +0.000 C 
ATOM      8  C   UNL     1       3.419  -5.857  26.619  0.00  0.00    +0.000 C 
ATOM      9  C   UNL     1       3.455  -4.799  27.705  0.00  0.00    +0.000 C 
ATOM     10  C   UNL     1       4.834  -4.229  27.677  0.00  0.00    +0.000 C 
ATOM     11  C   UNL     1       5.671  -5.460  27.346  0.00  0.00    +0.000 C 
ATOM     12  C   UNL     1       2.692  -7.037  27.184  0.00  0.00    +0.000 C 
ATOM     13  C   UNL     1       2.795  -8.256  26.254  0.00  0.00    +0.000 C 
ATOM     14  C   UNL     1       6.426  -7.913  26.853  0.00  0.00    +0.025 C 
ATOM     15  C   UNL     1       6.939  -9.158  26.221  0.00  0.00    -0.035 C 
ATOM     16  C   UNL     1       6.088 -10.112  25.781  0.00  0.00    -0.048 C 
ATOM     17  C   UNL     1       6.799 -11.290  25.173  0.00  0.00    +0.026 C 
ENDROOT
BRANCH   3  18
ATOM     18  C   UNL     1       2.499 -11.175  25.455  0.00  0.00    -0.048 C 
ATOM     19  C   UNL     1       1.456 -11.092  24.621  0.00  0.00    -0.035 C 
ATOM     20  C   UNL     1       0.121 -11.461  25.173  0.00  0.00    +0.025 C 
ATOM     21  C   UNL     1       0.202 -12.760  25.915  0.00  0.00    +0.005 C 
ATOM     22  C   UNL     1       1.461 -12.962  26.694  0.00  0.00    +0.005 C 
ATOM     23  C   UNL     1       2.189 -11.633  26.835  0.00  0.00    +0.022 C 
ENDBRANCH   3  18
BRANCH   1  25
ATOM     24  CA  UNL     1       6.286 -13.724  22.579  0.00  0.00    +0.117 C 
ATOM     25  C   UNL     1       6.496 -13.282  23.779  0.00  0.00    +0.033 C 
BRANCH  25  26
ATOM     26  C   UNL     1       7.295 -13.994  24.748  0.00  0.00    +0.160 C 
ATOM     27  N   UNL     1       8.648 -13.914  24.605  0.00  0.00    -0.225 NA
ATOM     28  C   UNL     1       9.516 -14.518  25.419  0.00  0.00    +0.102 C 
ATOM     29  C   UNL     1       9.031 -15.269  26.468  0.00  0.00    +0.041 C 
ATOM     30  C   UNL     1       7.655 -15.363  26.631  0.00  0.00    +0.102 C 
ATOM     31  N   UNL     1       6.829 -14.727  25.771  0.00  0.00    -0.225 NA
ENDBRANCH  25  26
BRANCH  24  32
ATOM     32  N   UNL     1       5.464 -12.899  21.695  0.00  0.00    -0.352 N 
ATOM     33  H1  UNL     1       5.132 -12.025  22.005  0.00  0.00    +0.143 HD
ATOM     34  H2  UNL     1       5.242 -13.217  20.790  0.00  0.00    +0.143 HD
ENDBRANCH  24  32
BRANCH  24  35
ATOM     35  C   UNL     1       6.755 -14.996  22.095  0.00  0.00    +0.351 C 
ATOM     36  O   UNL     1       6.040 -15.965  21.752  0.00  0.00    -0.244 OA
BRANCH  35  37
ATOM     37  OXT UNL     1       8.146 -15.254  21.968  0.00  0.00    -0.476 OA
ATOM     38  HXT UNL     1       8.768 -14.593  22.199  0.00  0.00    +0.295 HD
ENDBRANCH  35  37
ENDBRANCH  24  35
ENDBRANCH   1  25
TORSDOF 6
