REMARK  Name = =
REMARK  9 active torsions:
REMARK  status: ('A' for Active; 'I' for Inactive)
REMARK    1  A    between atoms: C_1  and  C_29
REMARK    2  A    between atoms: C_3  and  C_18
REMARK    3  A    between atoms: C_21  and  S_24
REMARK    4  A    between atoms: S_24  and  C_25
REMARK    5  A    between atoms: C_25  and  N_27
REMARK    6  A    between atoms: CA_28  and  N_36
REMARK    7  A    between atoms: CA_28  and  C_37
REMARK    8  A    between atoms: C_29  and  C_30
REMARK    9  A    between atoms: C_37  and  OXT_39
REMARK                            x       y       z     vdW  Elec       q    Type
REMARK                         _______ _______ _______ _____ _____    ______ ____
ROOT
ATOM      1  C   UNL     1       4.747  -7.696  22.616  0.00  0.00    +0.032 C 
ATOM      2  C   UNL     1       3.320  -7.199  22.902  0.00  0.00    +0.013 C 
ATOM      3  C   UNL     1       2.223  -8.099  22.539  0.00  0.00    +0.040 C 
ATOM      4  C   UNL     1       2.501  -9.554  22.644  0.00  0.00    -0.027 C 
ATOM      5  C   UNL     1       1.405 -10.449  23.023  0.00  0.00    -0.030 C 
ATOM      6  C   UNL     1       1.461 -11.146  24.303  0.00  0.00    -0.027 C 
ATOM      7  C   UNL     1       0.223 -11.843  24.627  0.00  0.00    +0.022 C 
ATOM      8  C   UNL     1      -0.033 -12.949  23.620  0.00  0.00    +0.004 C 
ATOM      9  C   UNL     1       0.234 -14.235  24.362  0.00  0.00    +0.000 C 
ATOM     10  C   UNL     1       0.548 -13.889  25.776  0.00  0.00    +0.000 C 
ATOM     11  C   UNL     1       0.080 -12.490  25.943  0.00  0.00    +0.004 C 
ATOM     12  C   UNL     1       1.018 -12.842  22.509  0.00  0.00    +0.005 C 
ATOM     13  C   UNL     1       0.998 -11.431  21.941  0.00  0.00    +0.026 C 
ATOM     14  C   UNL     1       2.548 -11.016  25.234  0.00  0.00    -0.005 C 
ATOM     15  C   UNL     1       3.743 -10.369  24.625  0.00  0.00    -0.005 C 
ATOM     16  C   UNL     1       3.695  -9.738  23.497  0.00  0.00    -0.026 C 
ATOM     17  C   UNL     1       4.943  -9.092  22.934  0.00  0.00    +0.031 C 
ENDROOT
BRANCH   3  18
ATOM     18  C   UNL     1       1.528  -7.805  21.248  0.00  0.00    -0.045 C 
ATOM     19  C   UNL     1       2.065  -7.932  20.054  0.00  0.00    -0.033 C 
ATOM     20  C   UNL     1       1.389  -7.646  18.780  0.00  0.00    +0.037 C 
ATOM     21  C   UNL     1       0.120  -6.839  18.876  0.00  0.00    +0.058 C 
ATOM     22  C   UNL     1      -0.052  -6.220  20.246  0.00  0.00    +0.016 C 
ATOM     23  C   UNL     1       0.120  -7.321  21.279  0.00  0.00    +0.023 C 
BRANCH  21  24
ATOM     24  S   UNL     1       0.088  -5.522  17.626  0.00  0.00    -0.093 S 
BRANCH  24  25
ATOM     25  C   UNL     1      -1.554  -5.351  16.994  0.00  0.00    +0.105 C 
ATOM     26  S   UNL     1      -2.718  -6.404  17.378  0.00  0.00    -0.028 S 
BRANCH  25  27
ATOM     27  N   UNL     1      -1.886  -4.285  16.110  0.00  0.00    -0.347 N 
ATOM     28  H   UNL     1      -2.804  -4.200  15.764  0.00  0.00    +0.143 HD
ATOM     29  H   UNL     1      -1.198  -3.633  15.844  0.00  0.00    +0.143 HD
ENDBRANCH  25  27
ENDBRANCH  24  25
ENDBRANCH  21  24
ENDBRANCH   3  18
BRANCH   1  31
ATOM     30  CA  UNL     1       6.275  -6.491  24.300  0.00  0.00    +0.117 C 
ATOM     31  C   UNL     1       5.612  -6.682  23.207  0.00  0.00    +0.033 C 
BRANCH  31  32
ATOM     32  C   UNL     1       5.920  -5.543  22.213  0.00  0.00    +0.160 C 
ATOM     33  N   UNL     1       5.230  -4.417  22.299  0.00  0.00    -0.225 NA
ATOM     34  C   UNL     1       5.492  -3.384  21.441  0.00  0.00    +0.102 C 
ATOM     35  C   UNL     1       6.472  -3.540  20.505  0.00  0.00    +0.041 C 
ATOM     36  C   UNL     1       7.182  -4.726  20.430  0.00  0.00    +0.102 C 
ATOM     37  N   UNL     1       6.861  -5.719  21.326  0.00  0.00    -0.225 NA
ENDBRANCH  31  32
BRANCH  30  38
ATOM     38  N   UNL     1       7.149  -5.255  24.291  0.00  0.00    -0.352 N 
ATOM     39  H1  UNL     1       7.691  -5.029  25.082  0.00  0.00    +0.143 HD
ATOM     40  H2  UNL     1       7.176  -4.677  23.495  0.00  0.00    +0.143 HD
ENDBRANCH  30  38
BRANCH  30  41
ATOM     41  C   UNL     1       6.301  -7.125  25.567  0.00  0.00    +0.351 C 
ATOM     42  O   UNL     1       7.436  -7.066  26.220  0.00  0.00    -0.244 OA
BRANCH  41  43
ATOM     43  OXT UNL     1       5.354  -7.802  26.271  0.00  0.00    -0.476 OA
ATOM     44  HXT UNL     1       4.496  -7.915  25.913  0.00  0.00    +0.295 HD
ENDBRANCH  41  43
ENDBRANCH  30  41
ENDBRANCH   1  31
TORSDOF 9
