MODEL 1
REMARK VINA RESULT:    -9.083      0.000      0.000
REMARK INTER + INTRA:         -12.752
REMARK INTER:                 -11.738
REMARK INTRA:                  -1.014
REMARK UNBOUND:                -1.014
REMARK  Name = =
REMARK  6 active torsions:
REMARK  status: ('A' for Active; 'I' for Inactive)
REMARK    1  A    between atoms: C_1  and  N_31
REMARK    2  A    between atoms: C_9  and  C_16
REMARK    3  A    between atoms: N_31  and  N_32
REMARK    4  A    between atoms: N_31  and  O_37
REMARK    5  A    between atoms: N_32  and  S_33
REMARK    6  A    between atoms: S_33  and  N_36
REMARK                            x       y       z     vdW  Elec       q    Type
REMARK                         _______ _______ _______ _____ _____    ______ ____
ROOT
ATOM      1  C   UNL     1      49.946 165.623  40.669  0.00  0.00    +0.167 C 
ATOM      2  C   UNL     1      50.831 164.630  41.026  0.00  0.00    +0.116 C 
ATOM      3  C   UNL     1      52.202 164.852  41.046  0.00  0.00    +0.160 C 
ATOM      4  C   UNL     1      52.665 166.096  40.699  0.00  0.00    +0.038 C 
ATOM      5  C   UNL     1      51.817 167.113  40.337  0.00  0.00    +0.000 C 
ATOM      6  C   UNL     1      50.463 166.855  40.330  0.00  0.00    -0.000 C 
ATOM      7  O   UNL     1      53.016 163.859  41.399  0.00  0.00    -0.454 OA
ATOM      8  C   UNL     1      52.524 162.695  41.718  0.00  0.00    +0.151 C 
ATOM      9  C   UNL     1      53.344 161.654  42.086  0.00  0.00    +0.145 C 
ATOM     10  C   UNL     1      52.810 160.414  42.426  0.00  0.00    +0.184 C 
ATOM     11  O   UNL     1      53.600 159.499  42.754  0.00  0.00    -0.291 OA
ATOM     12  C   UNL     1      51.462 160.157  42.418  0.00  0.00    +0.040 C 
ATOM     13  C   UNL     1      50.615 161.176  42.056  0.00  0.00    +0.025 C 
ATOM     14  C   UNL     1      51.077 162.428  41.707  0.00  0.00    +0.112 C 
ATOM     15  N   UNL     1      50.285 163.437  41.351  0.00  0.00    -0.242 NA
ENDROOT
BRANCH   9  16
ATOM     16  C   UNL     1      54.779 161.900  42.103  0.00  0.00    +0.021 C 
ATOM     17  C   UNL     1      55.660 161.276  41.265  0.00  0.00    +0.151 C 
ATOM     18  C   UNL     1      57.042 161.490  41.255  0.00  0.00    +0.082 C 
ATOM     19  C   UNL     1      57.505 162.401  42.171  0.00  0.00    +0.045 C 
ATOM     20  C   UNL     1      56.663 163.052  43.032  0.00  0.00    +0.008 C 
ATOM     21  C   UNL     1      55.307 162.814  43.009  0.00  0.00    -0.001 C 
ATOM     22  S   UNL     1      59.266 162.735  42.226  0.00  0.00    -0.084 S 
ATOM     23  C   UNL     1      60.025 161.724  40.985  0.00  0.00    +0.043 C 
ATOM     24  C   UNL     1      59.252 160.899  40.219  0.00  0.00    +0.054 C 
ATOM     25  C   UNL     1      59.941 160.137  39.262  0.00  0.00    +0.015 C 
ATOM     26  C   UNL     1      61.297 160.195  39.087  0.00  0.00    +0.001 C 
ATOM     27  C   UNL     1      62.062 161.039  39.876  0.00  0.00    +0.001 C 
ATOM     28  C   UNL     1      61.379 161.795  40.824  0.00  0.00    +0.008 C 
ATOM     29  N   UNL     1      57.855 160.783  40.338  0.00  0.00    -0.310 N 
ATOM     30  F   UNL     1      55.148 160.387  40.381  0.00  0.00    -0.203 F 
ATOM     31  H   UNL     1      57.404 160.154  39.729  0.00  0.00    +0.152 HD
ENDBRANCH   9  16
BRANCH   1  32
ATOM     32  N   UNL     1      48.557 165.436  40.637  0.00  0.00    -0.085 NA
BRANCH  32  33
ATOM     33  N   UNL     1      48.002 165.077  41.847  0.00  0.00    -0.088 NA
ATOM     34  H   UNL     1      47.606 165.896  42.308  0.00  0.00    +0.171 HD
BRANCH  33  35
ATOM     35  S   UNL     1      46.745 163.914  41.505  0.00  0.00    +0.107 S 
ATOM     36  O   UNL     1      46.558 163.787  40.006  0.00  0.00    -0.140 OA
ATOM     37  O   UNL     1      45.429 164.371  42.058  0.00  0.00    -0.140 OA
BRANCH  35  38
ATOM     38  N   UNL     1      47.123 162.369  42.120  0.00  0.00    -0.192 NA
ATOM     39  H   UNL     1      48.067 162.111  41.835  0.00  0.00    +0.145 HD
ATOM     40  H   UNL     1      46.459 161.687  41.756  0.00  0.00    +0.145 HD
ENDBRANCH  35  38
ENDBRANCH  33  35
ENDBRANCH  32  33
BRANCH  32  41
ATOM     41  O   UNL     1      47.875 166.448  40.091  0.00  0.00    -0.295 OA
ATOM     42  H   UNL     1      48.020 167.253  40.612  0.00  0.00    +0.238 HD
ENDBRANCH  32  41
ENDBRANCH   1  32
TORSDOF 6
ENDMDL
