REMARK  Name = =
REMARK  2 active torsions:
REMARK  status: ('A' for Active; 'I' for Inactive)
REMARK    1  A    between atoms: S_1  and  S_2
REMARK    2  A    between atoms: S_1  and  S_3
REMARK                            x       y       z     vdW  Elec       q    Type
REMARK                         _______ _______ _______ _____ _____    ______ ____
ROOT
ATOM      1  S   UNL     1      -6.041  -2.473  32.889  0.00  0.00    -0.031 S 
ENDROOT
BRANCH   1   2
ATOM      2  S   UNL     1      -4.657  -3.266  31.489  0.00  0.00    -0.099 S 
ATOM      3  H   UNL     1      -4.340  -4.542  31.838  0.00  0.00    +0.115 HD
ENDBRANCH   1   2
BRANCH   1   4
ATOM      4  S   UNL     1      -6.591  -0.484  32.422  0.00  0.00    -0.099 S 
ATOM      5  H   UNL     1      -7.476  -0.029  33.349  0.00  0.00    +0.115 HD
ENDBRANCH   1   4
TORSDOF 2
