REMARK  Name = =
REMARK  10 active torsions:
REMARK  status: ('A' for Active; 'I' for Inactive)
REMARK    1  A    between atoms: C_1  and  C_10
REMARK    2  A    between atoms: C_1  and  S_18
REMARK    3  A    between atoms: C_4  and  C_15
REMARK    4  A    between atoms: C_5  and  S_25
REMARK    5  A    between atoms: C_15  and  O_17
REMARK    6  A    between atoms: S_18  and  C_19
REMARK    7  A    between atoms: S_18  and  S_23
REMARK    8  A    between atoms: N_21  and  N_22
REMARK    9  A    between atoms: S_23  and  S_24
REMARK   10  A    between atoms: S_25  and  N_26
REMARK                            x       y       z     vdW  Elec       q    Type
REMARK                         _______ _______ _______ _____ _____    ______ ____
ROOT
ATOM      1  C   UNL     1     -11.589  -0.721  28.775  0.00  0.00    +0.139 C 
ATOM      2  C   UNL     1     -12.795  -1.052  29.523  0.00  0.00    +0.103 C 
ATOM      3  N   UNL     1     -13.209   0.383  29.440  0.00  0.00    -0.252 N 
ATOM      4  C   UNL     1     -14.383   0.391  30.269  0.00  0.00    +0.133 C 
ATOM      5  C   UNL     1     -14.268  -0.511  31.216  0.00  0.00    +0.043 C 
ATOM      6  C   UNL     1     -12.877  -1.184  30.984  0.00  0.00    +0.057 C 
ATOM      7  C   UNL     1     -12.133   0.676  28.606  0.00  0.00    +0.240 C 
ATOM      8  O   UNL     1     -11.739   1.681  27.959  0.00  0.00    -0.274 OA
ENDROOT
BRANCH   1  10
ATOM      9  N   UNL     1     -12.899  -0.834  26.770  0.00  0.00    -0.293 NA
ATOM     10  C   UNL     1     -11.721  -1.371  27.369  0.00  0.00    +0.103 C 
ATOM     11  C   UNL     1     -11.880  -2.855  27.626  0.00  0.00    +0.159 C 
ATOM     12  O   UNL     1     -13.173  -3.297  27.280  0.00  0.00    -0.351 OA
ATOM     13  C   UNL     1     -13.281  -3.061  25.892  0.00  0.00    +0.159 C 
ATOM     14  C   UNL     1     -13.376  -1.581  25.642  0.00  0.00    +0.101 C 
ATOM     15  H   UNL     1     -12.696   0.117  26.462  0.00  0.00    +0.123 HD
ENDBRANCH   1  10
BRANCH   4  16
ATOM     16  C   UNL     1     -15.493   1.286  29.950  0.00  0.00    +0.352 C 
ATOM     17  O   UNL     1     -15.313   2.252  29.114  0.00  0.00    -0.244 OA
BRANCH  16  18
ATOM     18  O   UNL     1     -16.759   1.223  30.448  0.00  0.00    -0.476 OA
ATOM     19  H   UNL     1     -16.988   0.554  31.063  0.00  0.00    +0.295 HD
ENDBRANCH  16  18
ENDBRANCH   4  16
BRANCH   1  20
ATOM     20  S   UNL     1     -10.042  -0.831  29.314  0.00  0.00    -0.098 S 
ATOM     21  H   UNL     1      -9.425  -1.682  28.451  0.00  0.00    +0.104 HD
BRANCH  20  22
ATOM     22  C   UNL     1      -9.758  -1.649  30.748  0.00  0.00    +0.276 C 
ATOM     23  O   UNL     1      -9.679  -2.920  30.772  0.00  0.00    -0.263 OA
ATOM     24  N   UNL     1      -9.585  -1.006  32.004  0.00  0.00    -0.245 N 
ATOM     25  H   UNL     1      -9.634  -0.024  32.050  0.00  0.00    +0.169 HD
BRANCH  24  26
ATOM     26  N   UNL     1      -9.343  -1.742  33.192  0.00  0.00    -0.254 NA
ATOM     27  H   UNL     1      -9.321  -2.739  32.976  0.00  0.00    +0.140 HD
ATOM     28  H   UNL     1     -10.087  -1.556  33.865  0.00  0.00    +0.140 HD
ENDBRANCH  24  26
ENDBRANCH  20  22
BRANCH  20  29
ATOM     29  S   UNL     1      -9.271   0.827  29.247  0.00  0.00    -0.040 S 
BRANCH  29  30
ATOM     30  S   UNL     1      -9.056   1.893  30.831  0.00  0.00    -0.100 S 
ATOM     31  H   UNL     1      -8.460   3.072  30.507  0.00  0.00    +0.115 HD
ENDBRANCH  29  30
ENDBRANCH  20  29
ENDBRANCH   1  20
BRANCH   5  32
ATOM     32  S   UNL     1     -15.290  -1.025  32.514  0.00  0.00    -0.015 S 
BRANCH  32  33
ATOM     33  N   UNL     1     -16.559  -0.017  33.009  0.00  0.00    -0.189 N 
ATOM     34  C   UNL     1     -17.891  -0.267  33.189  0.00  0.00    +0.097 C 
ATOM     35  C   UNL     1     -18.534   0.839  33.652  0.00  0.00    +0.083 C 
ATOM     36  N   UNL     1     -17.609   1.796  33.767  0.00  0.00    -0.265 N 
ATOM     37  C   UNL     1     -16.425   1.291  33.384  0.00  0.00    +0.321 C 
ATOM     38  O   UNL     1     -15.357   1.956  33.380  0.00  0.00    -0.251 OA
ATOM     39  H   UNL     1     -17.768   2.716  34.080  0.00  0.00    +0.157 HD
ENDBRANCH  32  33
ENDBRANCH   5  32
TORSDOF 10
