REMARK  Name = =
REMARK  1 active torsions:
REMARK  status: ('A' for Active; 'I' for Inactive)
REMARK    1  A    between atoms: S_1  and  N_4
REMARK                            x       y       z     vdW  Elec       q    Type
REMARK                         _______ _______ _______ _____ _____    ______ ____
ROOT
ATOM      1  S   UNL     1      -4.155  -3.345  30.712  0.00  0.00    +0.017 S 
ATOM      2  O   UNL     1      -4.671  -3.966  32.003  0.00  0.00    -0.161 OA
ATOM      3  O   UNL     1      -4.414  -4.284  29.575  0.00  0.00    -0.161 OA
ATOM      4  H   UNL     1      -4.778  -2.182  30.383  0.00  0.00    +0.229 HD
ENDROOT
BRANCH   1   5
ATOM      5  N   UNL     1      -2.495  -3.045  30.976  0.00  0.00    -0.211 NA
ATOM      6  H   UNL     1      -2.027  -3.917  31.223  0.00  0.00    +0.144 HD
ATOM      7  H   UNL     1      -2.388  -2.374  31.737  0.00  0.00    +0.144 HD
ENDBRANCH   1   5
TORSDOF 1
