REMARK  Name = =
REMARK  0 active torsions:
REMARK  status: ('A' for Active; 'I' for Inactive)
REMARK                            x       y       z     vdW  Elec       q    Type
REMARK                         _______ _______ _______ _____ _____    ______ ____
ROOT
ATOM      1  C   UNL     1      -4.298  -3.685  32.884  0.00  0.00    -0.000 C 
ATOM      2  C   UNL     1      -4.428  -5.006  33.255  0.00  0.00    -0.003 C 
ATOM      3  C   UNL     1      -3.830  -5.997  32.457  0.00  0.00    -0.008 C 
ATOM      4  C   UNL     1      -3.127  -5.670  31.327  0.00  0.00    +0.046 C 
ATOM      5  C   UNL     1      -3.008  -4.338  30.971  0.00  0.00    +0.014 C 
ATOM      6  C   UNL     1      -3.591  -3.349  31.746  0.00  0.00    +0.001 C 
ATOM      7  N   UNL     1      -2.521  -6.657  30.516  0.00  0.00    -0.284 N 
ATOM      8  C   UNL     1      -2.651  -8.019  30.892  0.00  0.00    +0.226 C 
ATOM      9  O   UNL     1      -2.552  -8.962  30.044  0.00  0.00    -0.275 OA
ATOM     10  C   UNL     1      -2.909  -8.295  32.331  0.00  0.00    +0.090 C 
ATOM     11  C   UNL     1      -3.989  -7.398  32.882  0.00  0.00    +0.037 C 
ATOM     12  H   UNL     1      -2.019  -6.405  29.707  0.00  0.00    +0.155 HD
ENDROOT
TORSDOF 0
