REMARK  Name = =
REMARK  1 active torsions:
REMARK  status: ('A' for Active; 'I' for Inactive)
REMARK    1  A    between atoms: C_11  and  N_12
REMARK                            x       y       z     vdW  Elec       q    Type
REMARK                         _______ _______ _______ _____ _____    ______ ____
ROOT
ATOM      1  C   UNL     1      -1.024  -2.717  29.317  0.00  0.00    -0.000 C 
ATOM      2  C   UNL     1      -1.149  -3.896  30.004  0.00  0.00    -0.002 C 
ATOM      3  C   UNL     1      -0.856  -5.142  29.433  0.00  0.00    +0.006 C 
ATOM      4  C   UNL     1      -0.434  -5.160  28.149  0.00  0.00    +0.048 C 
ATOM      5  C   UNL     1      -0.286  -3.989  27.393  0.00  0.00    +0.014 C 
ATOM      6  C   UNL     1      -0.586  -2.802  28.006  0.00  0.00    +0.001 C 
ATOM      7  N   UNL     1      -0.131  -6.427  27.525  0.00  0.00    -0.284 N 
ATOM      8  C   UNL     1      -0.316  -7.581  28.352  0.00  0.00    +0.228 C 
ATOM      9  O   UNL     1       0.389  -8.584  28.130  0.00  0.00    -0.275 OA
ATOM     10  C   UNL     1      -1.352  -7.525  29.449  0.00  0.00    +0.106 C 
ATOM     11  C   UNL     1      -1.006  -6.334  30.258  0.00  0.00    +0.091 C 
ATOM     12  H   UNL     1       0.182  -6.493  26.594  0.00  0.00    +0.155 HD
ENDROOT
BRANCH  11  13
ATOM     13  N   UNL     1      -1.896  -6.096  31.369  0.00  0.00    -0.267 NA
ATOM     14  C   UNL     1      -1.793  -7.139  32.379  0.00  0.00    +0.091 C 
ATOM     15  C   UNL     1      -2.413  -6.532  33.638  0.00  0.00    +0.106 C 
ATOM     16  N   UNL     1      -3.819  -6.352  33.347  0.00  0.00    -0.215 NA
ATOM     17  C   UNL     1      -4.082  -5.571  32.171  0.00  0.00    +0.106 C 
ATOM     18  C   UNL     1      -3.277  -5.970  30.966  0.00  0.00    +0.091 C 
ENDBRANCH  11  13
TORSDOF 1
