REMARK  Name = =
REMARK  2 active torsions:
REMARK  status: ('A' for Active; 'I' for Inactive)
REMARK    1  A    between atoms: N_1  and  S_12
REMARK    2  A    between atoms: S_12  and  N_15
REMARK                            x       y       z     vdW  Elec       q    Type
REMARK                         _______ _______ _______ _____ _____    ______ ____
ROOT
ATOM      1  N   UNL     1      -2.927  -3.843  30.299  0.00  0.00    -0.121 N 
ATOM      2  C   UNL     1      -3.706  -2.802  30.667  0.00  0.00    +0.181 A 
ATOM      3  N   UNL     1      -3.674  -1.478  30.308  0.00  0.00    -0.195 NA
ATOM      4  C   UNL     1      -4.562  -0.609  30.808  0.00  0.00    +0.216 A 
ATOM      5  N   UNL     1      -5.477  -1.083  31.670  0.00  0.00    -0.198 NA
ATOM      6  C   UNL     1      -5.559  -2.347  32.053  0.00  0.00    +0.149 A 
ATOM      7  C   UNL     1      -4.651  -3.265  31.551  0.00  0.00    +0.147 A 
ATOM      8  N   UNL     1      -4.434  -4.572  31.703  0.00  0.00    -0.220 NA
ATOM      9  C   UNL     1      -3.384  -4.916  30.940  0.00  0.00    +0.191 C 
ATOM     10  N   UNL     1      -4.576   0.780  30.470  0.00  0.00    -0.327 N 
ATOM     11  N   UNL     1      -6.518  -2.853  32.959  0.00  0.00    -0.341 N 
ATOM     12  H   UNL     1      -3.911   1.140  29.840  0.00  0.00    +0.145 HD
ATOM     13  H   UNL     1      -5.251   1.377  30.868  0.00  0.00    +0.145 HD
ATOM     14  H   UNL     1      -7.191  -2.251  33.351  0.00  0.00    +0.144 HD
ATOM     15  H   UNL     1      -6.513  -3.808  33.198  0.00  0.00    +0.144 HD
ENDROOT
BRANCH   1  16
ATOM     16  S   UNL     1      -1.599  -3.713  29.190  0.00  0.00    +0.116 S 
ATOM     17  O   UNL     1      -1.182  -5.054  28.723  0.00  0.00    -0.138 OA
ATOM     18  O   UNL     1      -0.501  -2.966  29.906  0.00  0.00    -0.138 OA
BRANCH  16  19
ATOM     19  N   UNL     1      -2.174  -2.822  27.817  0.00  0.00    -0.190 NA
ATOM     20  H   UNL     1      -2.468  -1.892  28.114  0.00  0.00    +0.146 HD
ATOM     21  H   UNL     1      -2.966  -3.312  27.401  0.00  0.00    +0.146 HD
ENDBRANCH  16  19
ENDBRANCH   1  16
TORSDOF 2
