REMARK  Name = =
REMARK  3 active torsions:
REMARK  status: ('A' for Active; 'I' for Inactive)
REMARK    1  A    between atoms: N_1  and  N_2
REMARK    2  A    between atoms: N_1  and  S_20
REMARK    3  A    between atoms: S_20  and  N_23
REMARK                            x       y       z     vdW  Elec       q    Type
REMARK                         _______ _______ _______ _____ _____    ______ ____
ROOT
ATOM      1  N   UNL     1      -1.172  -2.818  28.811  0.00  0.00    -0.107 NA
ATOM      2  H   UNL     1      -0.177  -2.829  29.033  0.00  0.00    +0.169 HD
ENDROOT
BRANCH   1   3
ATOM      3  N   UNL     1      -1.305  -2.858  27.429  0.00  0.00    -0.202 NA
ATOM      4  C   UNL     1      -0.546  -1.684  26.926  0.00  0.00    +0.083 C 
ATOM      5  C   UNL     1       0.817  -1.664  27.419  0.00  0.00    +0.045 C 
ATOM      6  C   UNL     1       1.549  -2.881  27.002  0.00  0.00    +0.065 C 
ATOM      7  C   UNL     1       2.978  -2.986  27.488  0.00  0.00    +0.174 C 
ATOM      8  O   UNL     1       3.590  -3.542  26.286  0.00  0.00    -0.479 OA
ATOM      9  C   UNL     1       2.938  -3.088  25.155  0.00  0.00    +0.134 C 
ATOM     10  C   UNL     1       1.715  -2.674  25.547  0.00  0.00    +0.011 C 
ATOM     11  C   UNL     1       0.718  -2.145  24.804  0.00  0.00    -0.022 C 
ATOM     12  C   UNL     1       1.011  -2.018  23.435  0.00  0.00    -0.004 C 
ATOM     13  C   UNL     1       2.229  -2.414  22.931  0.00  0.00    +0.003 C 
ATOM     14  C   UNL     1       3.205  -2.952  23.780  0.00  0.00    +0.037 C 
ATOM     15  C   UNL     1      -0.563  -1.688  25.405  0.00  0.00    +0.044 C 
ATOM     16  C   UNL     1       3.526  -1.582  27.636  0.00  0.00    +0.070 C 
ATOM     17  C   UNL     1       2.694  -0.701  28.487  0.00  0.00    -0.027 C 
ATOM     18  C   UNL     1       1.357  -0.767  28.353  0.00  0.00    -0.029 C 
ATOM     19  C   UNL     1       0.801  -4.156  27.212  0.00  0.00    +0.027 C 
ATOM     20  C   UNL     1      -0.672  -4.021  26.901  0.00  0.00    +0.091 C 
ENDBRANCH   1   3
BRANCH   1  21
ATOM     21  S   UNL     1      -1.908  -4.095  29.639  0.00  0.00    +0.132 S 
ATOM     22  O   UNL     1      -2.573  -5.095  28.741  0.00  0.00    -0.136 OA
ATOM     23  O   UNL     1      -0.815  -4.860  30.376  0.00  0.00    -0.136 OA
BRANCH  21  24
ATOM     24  N   UNL     1      -3.078  -3.580  30.789  0.00  0.00    -0.120 N 
ATOM     25  C   UNL     1      -3.635  -2.356  30.784  0.00  0.00    +0.181 A 
ATOM     26  N   UNL     1      -3.519  -1.254  30.022  0.00  0.00    -0.195 NA
ATOM     27  C   UNL     1      -4.212  -0.122  30.238  0.00  0.00    +0.216 A 
ATOM     28  N   UNL     1      -5.071  -0.090  31.276  0.00  0.00    -0.198 NA
ATOM     29  C   UNL     1      -5.254  -1.142  32.093  0.00  0.00    +0.149 A 
ATOM     30  C   UNL     1      -4.531  -2.285  31.847  0.00  0.00    +0.147 A 
ATOM     31  N   UNL     1      -4.485  -3.474  32.459  0.00  0.00    -0.220 NA
ATOM     32  C   UNL     1      -3.589  -4.270  31.805  0.00  0.00    +0.191 C 
ATOM     33  N   UNL     1      -4.005   0.979  29.364  0.00  0.00    -0.327 N 
ATOM     34  N   UNL     1      -6.177  -1.014  33.156  0.00  0.00    -0.341 N 
ATOM     35  H   UNL     1      -3.365   0.903  28.620  0.00  0.00    +0.145 HD
ATOM     36  H   UNL     1      -4.502   1.818  29.503  0.00  0.00    +0.145 HD
ATOM     37  H   UNL     1      -6.667  -0.170  33.283  0.00  0.00    +0.144 HD
ATOM     38  H   UNL     1      -6.330  -1.769  33.769  0.00  0.00    +0.144 HD
ENDBRANCH  21  24
ENDBRANCH   1  21
TORSDOF 3
