REMARK  Name = =
REMARK  2 active torsions:
REMARK  status: ('A' for Active; 'I' for Inactive)
REMARK    1  A    between atoms: C_1  and  C_12
REMARK    2  A    between atoms: C_11  and  N_22
REMARK                            x       y       z     vdW  Elec       q    Type
REMARK                         _______ _______ _______ _____ _____    ______ ____
ROOT
ATOM      1  C   UNL     1      -1.242  -3.467  28.910  0.00  0.00    +0.001 C 
ATOM      2  C   UNL     1      -1.643  -4.365  29.925  0.00  0.00    -0.002 C 
ATOM      3  C   UNL     1      -2.709  -4.092  30.735  0.00  0.00    +0.006 C 
ATOM      4  C   UNL     1      -3.440  -2.937  30.617  0.00  0.00    +0.048 C 
ATOM      5  C   UNL     1      -3.032  -2.055  29.606  0.00  0.00    +0.014 C 
ATOM      6  C   UNL     1      -1.964  -2.309  28.775  0.00  0.00    +0.001 C 
ATOM      7  N   UNL     1      -4.512  -2.567  31.491  0.00  0.00    -0.284 N 
ATOM      8  C   UNL     1      -4.772  -3.511  32.531  0.00  0.00    +0.228 C 
ATOM      9  O   UNL     1      -5.854  -3.664  33.100  0.00  0.00    -0.275 OA
ATOM     10  C   UNL     1      -3.605  -4.389  32.951  0.00  0.00    +0.106 C 
ATOM     11  C   UNL     1      -3.198  -5.114  31.730  0.00  0.00    +0.091 C 
ATOM     12  H   UNL     1      -5.026  -1.734  31.384  0.00  0.00    +0.155 HD
ENDROOT
BRANCH   1  13
ATOM     13  C   UNL     1      -0.120  -3.832  28.059  0.00  0.00    +0.014 C 
ATOM     14  C   UNL     1       0.244  -5.186  28.040  0.00  0.00    +0.041 C 
ATOM     15  C   UNL     1       1.303  -5.622  27.284  0.00  0.00    +0.176 C 
ATOM     16  C   UNL     1       2.040  -4.750  26.520  0.00  0.00    +0.177 C 
ATOM     17  C   UNL     1       1.672  -3.401  26.540  0.00  0.00    +0.052 C 
ATOM     18  C   UNL     1       0.599  -2.951  27.306  0.00  0.00    +0.061 C 
ATOM     19 CL   UNL     1       0.223  -1.235  27.263  0.00  0.00    -0.082 Cl
ATOM     20  O   UNL     1       3.039  -5.484  25.871  0.00  0.00    -0.435 OA
ATOM     21  C   UNL     1       3.260  -6.603  26.745  0.00  0.00    +0.429 C 
ATOM     22  O   UNL     1       1.887  -6.890  27.077  0.00  0.00    -0.435 OA
ENDBRANCH   1  13
BRANCH  11  23
ATOM     23  N   UNL     1      -2.403  -6.265  31.797  0.00  0.00    -0.267 NA
ATOM     24  C   UNL     1      -2.970  -7.354  31.020  0.00  0.00    +0.091 C 
ATOM     25  C   UNL     1      -4.382  -7.690  31.388  0.00  0.00    +0.106 C 
ATOM     26  N   UNL     1      -4.627  -7.498  32.781  0.00  0.00    -0.215 NA
ATOM     27  C   UNL     1      -3.388  -7.768  33.499  0.00  0.00    +0.106 C 
ATOM     28  C   UNL     1      -2.289  -6.790  33.134  0.00  0.00    +0.091 C 
ENDBRANCH  11  23
TORSDOF 2
