REMARK  Name = =
REMARK  5 active torsions:
REMARK  status: ('A' for Active; 'I' for Inactive)
REMARK    1  A    between atoms: N_1  and  N_2
REMARK    2  A    between atoms: N_1  and  S_22
REMARK    3  A    between atoms: C_13  and  C_20
REMARK    4  A    between atoms: S_22  and  N_25
REMARK    5  A    between atoms: C_30  and  N_35
REMARK                            x       y       z     vdW  Elec       q    Type
REMARK                         _______ _______ _______ _____ _____    ______ ____
ROOT
ATOM      1  N   UNL     1       0.216  -0.942  27.899  0.00  0.00    -0.107 NA
ATOM      2  H   UNL     1       0.825  -1.101  28.702  0.00  0.00    +0.169 HD
ENDROOT
BRANCH   1   3
ATOM      3  N   UNL     1      -0.860  -1.744  28.058  0.00  0.00    -0.202 NA
ATOM      4  C   UNL     1      -0.729  -2.581  29.223  0.00  0.00    +0.083 C 
ATOM      5  C   UNL     1      -1.431  -3.894  29.076  0.00  0.00    +0.045 C 
ATOM      6  C   UNL     1      -0.761  -4.610  27.924  0.00  0.00    +0.065 C 
ATOM      7  C   UNL     1      -1.157  -6.046  27.740  0.00  0.00    +0.174 C 
ATOM      8  O   UNL     1       0.069  -6.558  27.108  0.00  0.00    -0.479 OA
ATOM      9  C   UNL     1       1.118  -5.965  27.814  0.00  0.00    +0.135 C 
ATOM     10  C   UNL     1       0.654  -4.799  28.345  0.00  0.00    +0.011 C 
ATOM     11  C   UNL     1       1.327  -3.905  29.115  0.00  0.00    -0.022 C 
ATOM     12  C   UNL     1       2.650  -4.195  29.400  0.00  0.00    -0.004 C 
ATOM     13  C   UNL     1       3.211  -5.374  28.891  0.00  0.00    +0.003 C 
ATOM     14  C   UNL     1       2.450  -6.235  28.115  0.00  0.00    +0.041 C 
ATOM     15  C   UNL     1       0.679  -2.713  29.678  0.00  0.00    +0.044 C 
ATOM     16  C   UNL     1      -1.343  -6.791  28.997  0.00  0.00    +0.070 C 
ATOM     17  C   UNL     1      -1.394  -6.030  30.253  0.00  0.00    -0.027 C 
ATOM     18  C   UNL     1      -1.434  -4.714  30.289  0.00  0.00    -0.029 C 
ATOM     19  C   UNL     1      -0.935  -3.783  26.696  0.00  0.00    +0.027 C 
ATOM     20  C   UNL     1      -1.434  -2.394  26.944  0.00  0.00    +0.091 C 
BRANCH  14  21
ATOM     21  C   UNL     1       3.057  -7.444  27.604  0.00  0.00    +0.045 C 
ATOM     22  S   UNL     1       3.099  -8.773  28.525  0.00  0.00    -0.050 S 
ENDBRANCH  14  21
ENDBRANCH   1   3
BRANCH   1  23
ATOM     23  S   UNL     1       1.174  -1.093  26.523  0.00  0.00    +0.132 S 
ATOM     24  O   UNL     1       1.552   0.313  26.058  0.00  0.00    -0.136 OA
ATOM     25  O   UNL     1       0.444  -1.700  25.381  0.00  0.00    -0.136 OA
BRANCH  23  26
ATOM     26  N   UNL     1       2.689  -1.887  26.772  0.00  0.00    -0.120 N 
ATOM     27  C   UNL     1       3.169  -2.899  26.012  0.00  0.00    +0.181 A 
ATOM     28  N   UNL     1       2.675  -3.537  24.928  0.00  0.00    -0.195 NA
ATOM     29  C   UNL     1       3.335  -4.530  24.321  0.00  0.00    +0.216 A 
ATOM     30  N   UNL     1       4.530  -4.893  24.818  0.00  0.00    -0.198 NA
ATOM     31  C   UNL     1       5.102  -4.322  25.885  0.00  0.00    +0.149 A 
ATOM     32  C   UNL     1       4.396  -3.290  26.501  0.00  0.00    +0.147 A 
ATOM     33  N   UNL     1       4.626  -2.503  27.546  0.00  0.00    -0.220 NA
ATOM     34  C   UNL     1       3.606  -1.663  27.710  0.00  0.00    +0.191 C 
ATOM     35  N   UNL     1       2.783  -5.194  23.164  0.00  0.00    -0.327 N 
ATOM     36  H   UNL     1       3.282  -5.923  22.730  0.00  0.00    +0.145 HD
ATOM     37  H   UNL     1       1.907  -4.918  22.809  0.00  0.00    +0.145 HD
BRANCH  31  38
ATOM     38  N   UNL     1       6.361  -4.687  26.429  0.00  0.00    -0.341 N 
ATOM     39  H   UNL     1       6.884  -5.412  26.017  0.00  0.00    +0.144 HD
ATOM     40  H   UNL     1       6.711  -4.215  27.219  0.00  0.00    +0.144 HD
ENDBRANCH  31  38
ENDBRANCH  23  26
ENDBRANCH   1  23
TORSDOF 5
