REMARK  Name = =
REMARK  3 active torsions:
REMARK  status: ('A' for Active; 'I' for Inactive)
REMARK    1  A    between atoms: C_1  and  C_11
REMARK    2  A    between atoms: C_5  and  S_28
REMARK    3  A    between atoms: C_21  and  N_22
REMARK                            x       y       z     vdW  Elec       q    Type
REMARK                         _______ _______ _______ _____ _____    ______ ____
ROOT
ATOM      1  C   UNL     1       0.040  -4.323  28.319  0.00  0.00    +0.014 C 
ATOM      2  C   UNL     1      -0.025  -2.988  27.935  0.00  0.00    +0.041 C 
ATOM      3  C   UNL     1      -1.099  -2.218  28.366  0.00  0.00    +0.177 C 
ATOM      4  C   UNL     1      -2.093  -2.761  29.163  0.00  0.00    +0.182 C 
ATOM      5  C   UNL     1      -2.030  -4.085  29.545  0.00  0.00    +0.062 C 
ATOM      6  C   UNL     1      -0.951  -4.824  29.101  0.00  0.00    +0.065 C 
ATOM      7 CL   UNL     1      -0.868  -6.519  29.595  0.00  0.00    -0.082 Cl
ATOM      8  O   UNL     1      -3.016  -1.762  29.427  0.00  0.00    -0.434 OA
ATOM      9  C   UNL     1      -2.556  -0.524  28.890  0.00  0.00    +0.429 C 
ATOM     10  O   UNL     1      -1.413  -0.882  28.141  0.00  0.00    -0.435 OA
ENDROOT
BRANCH   1  11
ATOM     11  C   UNL     1       1.170  -5.142  27.861  0.00  0.00    +0.001 C 
ATOM     12  C   UNL     1       1.287  -5.481  26.537  0.00  0.00    -0.002 C 
ATOM     13  C   UNL     1       2.348  -6.261  26.077  0.00  0.00    +0.006 C 
ATOM     14  C   UNL     1       3.290  -6.698  26.970  0.00  0.00    +0.048 C 
ATOM     15  C   UNL     1       3.164  -6.350  28.312  0.00  0.00    +0.014 C 
ATOM     16  C   UNL     1       2.120  -5.581  28.760  0.00  0.00    +0.001 C 
ATOM     17  N   UNL     1       4.390  -7.541  26.581  0.00  0.00    -0.284 N 
ATOM     18  C   UNL     1       4.443  -7.908  25.185  0.00  0.00    +0.228 C 
ATOM     19  O   UNL     1       5.523  -8.139  24.639  0.00  0.00    -0.275 OA
ATOM     20  C   UNL     1       3.101  -7.967  24.528  0.00  0.00    +0.106 C 
ATOM     21  C   UNL     1       2.498  -6.595  24.644  0.00  0.00    +0.091 C 
ATOM     22  H   UNL     1       5.066  -7.849  27.228  0.00  0.00    +0.155 HD
BRANCH  21  23
ATOM     23  N   UNL     1       3.456  -5.639  24.114  0.00  0.00    -0.267 NA
ATOM     24  C   UNL     1       3.061  -4.275  24.424  0.00  0.00    +0.091 C 
ATOM     25  C   UNL     1       3.731  -3.252  23.566  0.00  0.00    +0.106 C 
ATOM     26  N   UNL     1       4.987  -3.669  23.033  0.00  0.00    -0.215 NA
ATOM     27  C   UNL     1       4.999  -4.960  22.428  0.00  0.00    +0.106 C 
ATOM     28  C   UNL     1       3.751  -5.791  22.728  0.00  0.00    +0.091 C 
ENDBRANCH  21  23
ENDBRANCH   1  11
BRANCH   5  29
ATOM     29  S   UNL     1      -3.272  -4.750  30.535  0.00  0.00    -0.127 S 
ATOM     30  C   UNL     1      -2.915  -6.363  31.360  0.00  0.00    +0.134 C 
ATOM     31  C   UNL     1      -3.771  -6.191  32.535  0.00  0.00    +0.239 C 
ATOM     32  O   UNL     1      -4.530  -7.132  32.957  0.00  0.00    -0.274 OA
ATOM     33  N   UNL     1      -3.640  -4.916  33.090  0.00  0.00    -0.247 N 
ATOM     34  C   UNL     1      -3.631  -3.869  32.146  0.00  0.00    +0.264 C 
ATOM     35  O   UNL     1      -3.797  -2.647  32.210  0.00  0.00    -0.264 OA
ATOM     36  H   UNL     1      -4.227  -4.728  29.567  0.00  0.00    +0.097 HD
ATOM     37  H   UNL     1      -3.561  -4.761  34.059  0.00  0.00    +0.158 HD
ENDBRANCH   5  29
TORSDOF 3
