REMARK  Name = =
REMARK  4 active torsions:
REMARK  status: ('A' for Active; 'I' for Inactive)
REMARK    1  A    between atoms: C_1  and  C_12
REMARK    2  A    between atoms: C_11  and  C_29
REMARK    3  A    between atoms: C_11  and  N_35
REMARK    4  A    between atoms: C_16  and  S_22
REMARK                            x       y       z     vdW  Elec       q    Type
REMARK                         _______ _______ _______ _____ _____    ______ ____
ROOT
ATOM      1  C   UNL     1       1.991  -4.376  28.158  0.00  0.00    +0.001 C 
ATOM      2  C   UNL     1       0.955  -5.272  28.444  0.00  0.00    -0.001 C 
ATOM      3  C   UNL     1       0.835  -5.926  29.652  0.00  0.00    +0.010 C 
ATOM      4  C   UNL     1       1.792  -5.673  30.616  0.00  0.00    +0.048 C 
ATOM      5  C   UNL     1       2.822  -4.781  30.328  0.00  0.00    +0.014 C 
ATOM      6  C   UNL     1       2.939  -4.129  29.118  0.00  0.00    +0.001 C 
ATOM      7  N   UNL     1       1.746  -6.290  31.895  0.00  0.00    -0.284 N 
ATOM      8  C   UNL     1       0.682  -7.178  32.156  0.00  0.00    +0.228 C 
ATOM      9  O   UNL     1       0.405  -7.468  33.343  0.00  0.00    -0.275 OA
ATOM     10  C   UNL     1      -0.088  -7.753  31.064  0.00  0.00    +0.110 C 
ATOM     11  C   UNL     1      -0.286  -6.863  29.864  0.00  0.00    +0.113 C 
ATOM     12  H   UNL     1       2.433  -6.104  32.575  0.00  0.00    +0.155 HD
ENDROOT
BRANCH   1  13
ATOM     13  C   UNL     1       2.035  -3.718  26.868  0.00  0.00    +0.014 C 
ATOM     14  C   UNL     1       1.134  -2.727  26.561  0.00  0.00    +0.041 C 
ATOM     15  C   UNL     1       1.200  -2.108  25.338  0.00  0.00    +0.177 C 
ATOM     16  C   UNL     1       2.154  -2.467  24.419  0.00  0.00    +0.182 C 
ATOM     17  C   UNL     1       3.081  -3.471  24.709  0.00  0.00    +0.062 C 
ATOM     18  C   UNL     1       2.985  -4.069  25.941  0.00  0.00    +0.065 C 
ATOM     19 CL   UNL     1       4.118  -5.334  26.356  0.00  0.00    -0.082 Cl
ATOM     20  O   UNL     1       1.965  -1.674  23.299  0.00  0.00    -0.434 OA
ATOM     21  C   UNL     1       1.259  -0.535  23.700  0.00  0.00    +0.429 C 
ATOM     22  O   UNL     1       0.442  -1.086  24.744  0.00  0.00    -0.435 OA
BRANCH  17  23
ATOM     23  S   UNL     1       4.294  -3.911  23.520  0.00  0.00    -0.127 S 
ATOM     24  C   UNL     1       5.968  -3.482  23.830  0.00  0.00    +0.134 C 
ATOM     25  C   UNL     1       6.578  -4.803  24.083  0.00  0.00    +0.239 C 
ATOM     26  O   UNL     1       7.573  -4.955  24.870  0.00  0.00    -0.274 OA
ATOM     27  N   UNL     1       5.950  -5.845  23.375  0.00  0.00    -0.247 N 
ATOM     28  C   UNL     1       4.565  -5.773  23.340  0.00  0.00    +0.264 C 
ATOM     29  O   UNL     1       3.620  -6.557  23.229  0.00  0.00    -0.264 OA
ATOM     30  H   UNL     1       3.737  -3.238  22.478  0.00  0.00    +0.097 HD
ATOM     31  H   UNL     1       6.455  -6.569  22.938  0.00  0.00    +0.158 HD
ENDBRANCH  17  23
ENDBRANCH   1  13
BRANCH  11  32
ATOM     32  C   UNL     1      -0.265  -7.802  28.675  0.00  0.00    +0.117 C 
ATOM     33  N   UNL     1      -1.192  -7.757  27.723  0.00  0.00    -0.148 NA
ATOM     34  N   UNL     1      -1.179  -8.574  26.688  0.00  0.00    -0.125 NA
ATOM     35  C   UNL     1      -0.218  -9.488  26.562  0.00  0.00    +0.222 C 
ATOM     36  N   UNL     1       0.746  -9.581  27.496  0.00  0.00    -0.220 NA
ATOM     37  C   UNL     1       0.732  -8.748  28.552  0.00  0.00    +0.119 C 
ENDBRANCH  11  32
BRANCH  11  38
ATOM     38  N   UNL     1      -1.542  -6.224  29.980  0.00  0.00    -0.264 NA
ATOM     39  C   UNL     1      -2.584  -6.896  30.658  0.00  0.00    +0.092 C 
ATOM     40  C   UNL     1      -3.264  -5.841  31.551  0.00  0.00    +0.106 C 
ATOM     41  N   UNL     1      -3.825  -4.884  30.586  0.00  0.00    -0.215 NA
ATOM     42  C   UNL     1      -2.801  -4.219  29.827  0.00  0.00    +0.106 C 
ATOM     43  C   UNL     1      -1.889  -5.204  29.077  0.00  0.00    +0.092 C 
ENDBRANCH  11  38
TORSDOF 4
