REMARK  Name = =
REMARK  7 active torsions:
REMARK  status: ('A' for Active; 'I' for Inactive)
REMARK    1  A    between atoms: N_1  and  C_4
REMARK    2  A    between atoms: N_1  and  S_22
REMARK    3  A    between atoms: C_7  and  O_15
REMARK    4  A    between atoms: C_8  and  N_10
REMARK    5  A    between atoms: O_15  and  N_16
REMARK    6  A    between atoms: S_22  and  C_25
REMARK    7  A    between atoms: C_26  and  N_31
REMARK                            x       y       z     vdW  Elec       q    Type
REMARK                         _______ _______ _______ _____ _____    ______ ____
ROOT
ATOM      1  N   UNL     1       5.782  -5.676  26.264  0.00  0.00    -0.130 N 
ATOM      2  C   UNL     1       6.823  -6.523  26.707  0.00  0.00    +0.327 C 
ATOM      3  O   UNL     1       6.640  -7.243  27.717  0.00  0.00    -0.263 OA
ENDROOT
BRANCH   1   4
ATOM      4  C   UNL     1       4.527  -5.643  26.950  0.00  0.00    +0.078 C 
ATOM      5  C   UNL     1       3.975  -6.724  27.566  0.00  0.00    +0.020 C 
ATOM      6  C   UNL     1       2.743  -6.654  28.229  0.00  0.00    +0.042 C 
ATOM      7  C   UNL     1       2.051  -5.465  28.272  0.00  0.00    +0.179 C 
ATOM      8  C   UNL     1       2.629  -4.385  27.642  0.00  0.00    +0.094 C 
ATOM      9  C   UNL     1       3.835  -4.449  26.991  0.00  0.00    +0.035 C 
BRANCH   8  10
ATOM     10  N   UNL     1       1.951  -3.136  27.663  0.00  0.00    -0.261 N 
ATOM     11  C   UNL     1       2.370  -2.089  28.378  0.00  0.00    +0.070 C 
ATOM     12  C   UNL     1       1.480  -1.065  28.159  0.00  0.00    +0.018 C 
ATOM     13  C   UNL     1       0.527  -1.540  27.295  0.00  0.00    +0.018 C 
ATOM     14  C   UNL     1       0.835  -2.839  26.993  0.00  0.00    +0.070 C 
ENDBRANCH   8  10
BRANCH   7  15
ATOM     15  O   UNL     1       0.851  -5.301  28.890  0.00  0.00    -0.400 OA
BRANCH  15  16
ATOM     16  N   UNL     1      -0.380  -5.576  28.387  0.00  0.00    -0.121 NA
ATOM     17  C   UNL     1      -0.574  -6.953  28.033  0.00  0.00    +0.113 C 
ATOM     18  C   UNL     1      -0.747  -7.858  29.223  0.00  0.00    +0.021 C 
ATOM     19  C   UNL     1      -1.659  -7.304  30.266  0.00  0.00    +0.003 C 
ATOM     20  C   UNL     1      -1.370  -5.875  30.588  0.00  0.00    +0.021 C 
ATOM     21  C   UNL     1      -1.390  -5.083  29.301  0.00  0.00    +0.113 C 
ENDBRANCH  15  16
ENDBRANCH   7  15
ENDBRANCH   1   4
BRANCH   1  22
ATOM     22  S   UNL     1       6.093  -4.693  24.864  0.00  0.00    +0.084 S 
ATOM     23  O   UNL     1       7.518  -4.729  24.456  0.00  0.00    -0.149 OA
ATOM     24  O   UNL     1       5.677  -3.298  25.110  0.00  0.00    -0.149 OA
BRANCH  22  25
ATOM     25  C   UNL     1       5.148  -5.326  23.440  0.00  0.00    +0.139 C 
ATOM     26  C   UNL     1       3.995  -4.432  23.200  0.00  0.00    +0.074 C 
ATOM     27  C   UNL     1       2.776  -4.896  23.384  0.00  0.00    +0.131 C 
ATOM     28  N   UNL     1       2.455  -6.221  23.789  0.00  0.00    -0.327 N 
ATOM     29  C   UNL     1       3.519  -7.128  24.010  0.00  0.00    +0.060 C 
ATOM     30  C   UNL     1       4.732  -6.690  23.838  0.00  0.00    +0.037 C 
ATOM     31  H   UNL     1       1.519  -6.500  23.912  0.00  0.00    +0.147 HD
BRANCH  26  32
ATOM     32  N   UNL     1       4.224  -3.083  22.754  0.00  0.00    -0.233 N 
ATOM     33  C   UNL     1       3.707  -1.969  23.252  0.00  0.00    +0.161 C 
ATOM     34  N   UNL     1       2.929  -1.668  24.296  0.00  0.00    -0.207 NA
ATOM     35  C   UNL     1       2.543  -0.414  24.586  0.00  0.00    +0.200 C 
ATOM     36  N   UNL     1       2.954   0.606  23.792  0.00  0.00    -0.221 NA
ATOM     37  C   UNL     1       3.732   0.353  22.738  0.00  0.00    +0.123 C 
ATOM     38  C   UNL     1       4.135  -0.932  22.430  0.00  0.00    +0.134 C 
ATOM     39  N   UNL     1       4.883  -1.469  21.483  0.00  0.00    -0.223 NA
ATOM     40  C   UNL     1       4.959  -2.798  21.652  0.00  0.00    +0.173 C 
ENDBRANCH  26  32
ENDBRANCH  22  25
ENDBRANCH   1  22
TORSDOF 7
