MODEL 1
REMARK VINA RESULT:   -12.716      0.000      0.000
REMARK INTER + INTRA:         -17.391
REMARK INTER:                 -16.433
REMARK INTRA:                  -0.957
REMARK UNBOUND:                -0.957
REMARK  Name = =
REMARK  5 active torsions:
REMARK  status: ('A' for Active; 'I' for Inactive)
REMARK    1  A    between atoms: C_1  and  C_30
REMARK    2  A    between atoms: C_3  and  C_22
REMARK    3  A    between atoms: C_9  and  N_11
REMARK    4  A    between atoms: S_28  and  C_30
REMARK    5  A    between atoms: S_28  and  N_38
REMARK                            x       y       z     vdW  Elec       q    Type
REMARK                         _______ _______ _______ _____ _____    ______ ____
ROOT
ATOM      1  C   UNL     1     -19.661 -40.147  22.922  0.00  0.00    +0.072 C 
ATOM      2  N   UNL     1     -20.771 -39.832  23.577  0.00  0.00    -0.249 NA
ATOM      3  C   UNL     1     -21.022 -40.091  24.870  0.00  0.00    +0.077 C 
ATOM      4  C   UNL     1     -20.057 -40.734  25.582  0.00  0.00    +0.019 C 
ATOM      5  C   UNL     1     -18.854 -41.109  24.988  0.00  0.00    +0.004 C 
ATOM      6  C   UNL     1     -18.674 -40.808  23.664  0.00  0.00    +0.015 C 
ATOM      7  C   UNL     1     -17.479 -41.180  23.069  0.00  0.00    +0.002 C 
ATOM      8  C   UNL     1     -16.486 -41.833  23.768  0.00  0.00    +0.015 C 
ATOM      9  C   UNL     1     -16.666 -42.134  25.095  0.00  0.00    +0.061 C 
ATOM     10  C   UNL     1     -17.855 -41.761  25.676  0.00  0.00    +0.015 C 
ENDROOT
BRANCH   9  11
ATOM     11  N   UNL     1     -15.666 -42.816  25.870  0.00  0.00    -0.201 N 
ATOM     12  C   UNL     1     -14.684 -43.709  25.394  0.00  0.00    +0.259 C 
ATOM     13  O   UNL     1     -14.479 -44.087  24.202  0.00  0.00    -0.269 OA
ATOM     14  C   UNL     1     -13.903 -44.151  26.543  0.00  0.00    +0.059 C 
ATOM     15  C   UNL     1     -14.369 -43.563  27.695  0.00  0.00    +0.059 C 
ATOM     16  C   UNL     1     -13.784 -43.828  28.936  0.00  0.00    +0.005 C 
ATOM     17  C   UNL     1     -12.715 -44.694  29.039  0.00  0.00    +0.000 C 
ATOM     18  C   UNL     1     -12.231 -45.293  27.894  0.00  0.00    +0.000 C 
ATOM     19  C   UNL     1     -12.820 -45.020  26.677  0.00  0.00    +0.005 C 
ATOM     20  C   UNL     1     -15.482 -42.720  27.273  0.00  0.00    +0.259 C 
ATOM     21  O   UNL     1     -16.170 -42.019  28.043  0.00  0.00    -0.269 OA
ENDBRANCH   9  11
BRANCH   3  22
ATOM     22  C   UNL     1     -22.293 -39.678  25.451  0.00  0.00    -0.009 C 
ATOM     23  C   UNL     1     -23.276 -39.111  24.796  0.00  0.00    -0.029 C 
ATOM     24  C   UNL     1     -24.545 -38.709  25.405  0.00  0.00    +0.026 C 
ATOM     25  C   UNL     1     -24.535 -38.485  26.875  0.00  0.00    +0.005 C 
ATOM     26  C   UNL     1     -23.204 -38.728  27.545  0.00  0.00    +0.005 C 
ATOM     27  C   UNL     1     -22.497 -39.921  26.925  0.00  0.00    +0.028 C 
ENDBRANCH   3  22
BRANCH   1  28
ATOM     28  C   UNL     1     -19.383 -39.885  21.550  0.00  0.00    +0.128 C 
BRANCH  28  29
ATOM     29  S   UNL     1     -20.601 -40.017  20.546  0.00  0.00    -0.014 S 
ATOM     30  O   UNL     1     -19.946 -40.738  19.399  0.00  0.00    -0.156 OA
ATOM     31  H   UNL     1     -21.688 -40.650  21.063  0.00  0.00    +0.133 HD
BRANCH  29  39
ATOM     32  N   UNL     1     -23.369 -37.075  20.055  0.00  0.00    -0.247 N 
ATOM     33  C   UNL     1     -24.793 -37.097  20.452  0.00  0.00    +0.169 C 
ATOM     34  N   UNL     1     -25.125 -35.689  20.611  0.00  0.00    -0.279 NA
ATOM     35  C   UNL     1     -24.461 -35.072  19.483  0.00  0.00    +0.092 C 
ATOM     36  C   UNL     1     -23.121 -35.822  19.457  0.00  0.00    +0.113 C 
ATOM     37  C   UNL     1     -22.537 -38.182  20.297  0.00  0.00    +0.324 C 
ATOM     38  O   UNL     1     -23.159 -39.204  20.881  0.00  0.00    -0.251 OA
ATOM     39  N   UNL     1     -21.205 -38.447  20.057  0.00  0.00    -0.154 N 
ATOM     40  C   UNL     1     -20.265 -37.609  19.475  0.00  0.00    +0.320 C 
ATOM     41  O   UNL     1     -20.366 -36.467  19.036  0.00  0.00    -0.264 OA
ATOM     42  H   UNL     1     -24.765 -35.325  21.494  0.00  0.00    +0.125 HD
ENDBRANCH  29  39
ENDBRANCH  28  29
ENDBRANCH   1  28
TORSDOF 5
ENDMDL
