MODEL 1
REMARK VINA RESULT:    -8.119      0.000      0.000
REMARK INTER + INTRA:         -13.177
REMARK INTER:                 -11.679
REMARK INTRA:                  -1.498
REMARK UNBOUND:                -1.498
REMARK  Name = =
REMARK  10 active torsions:
REMARK  status: ('A' for Active; 'I' for Inactive)
REMARK    1  A    between atoms: C_1  and  C_12
REMARK    2  A    between atoms: C_10  and  P_22
REMARK    3  A    between atoms: C_11  and  O_17
REMARK    4  A    between atoms: O_17  and  C_18
REMARK    5  A    between atoms: N_20  and  O_21
REMARK    6  A    between atoms: P_22  and  O_24
REMARK    7  A    between atoms: O_24  and  N_25
REMARK    8  A    between atoms: N_25  and  C_26
REMARK    9  A    between atoms: N_25  and  O_39
REMARK   10  A    between atoms: C_26  and  C_30
REMARK                            x       y       z     vdW  Elec       q    Type
REMARK                         _______ _______ _______ _____ _____    ______ ____
ROOT
ATOM      1  C   UNL     1      57.996 160.835  41.733  0.00  0.00    +0.103 C 
ATOM      2  N   UNL     1      56.924 160.056  42.127  0.00  0.00    -0.243 NA
ATOM      3  C   UNL     1      55.659 160.418  42.100  0.00  0.00    +0.117 C 
ATOM      4  C   UNL     1      55.339 161.677  41.644  0.00  0.00    +0.169 C 
ATOM      5  N   UNL     1      54.055 162.103  41.591  0.00  0.00    -0.206 NA
ATOM      6  C   UNL     1      53.103 161.255  42.000  0.00  0.00    +0.196 C 
ATOM      7  N   UNL     1      53.397 160.015  42.451  0.00  0.00    -0.243 NA
ATOM      8  C   UNL     1      54.655 159.558  42.518  0.00  0.00    +0.176 C 
ATOM      9  N   UNL     1      56.349 162.465  41.251  0.00  0.00    -0.187 NA
ATOM     10  C   UNL     1      57.675 162.067  41.286  0.00  0.00    +0.142 C 
ENDROOT
BRANCH   1  12
ATOM     11  C   UNL     1      59.566 159.366  40.880  0.00  0.00    +0.297 C 
ATOM     12  C   UNL     1      59.329 160.313  41.824  0.00  0.00    +0.069 C 
ATOM     13  C   UNL     1      60.442 160.510  42.681  0.00  0.00    +0.038 C 
ATOM     14  C   UNL     1      61.734 160.625  41.902  0.00  0.00    +0.052 C 
ATOM     15  C   UNL     1      61.976 159.199  41.363  0.00  0.00    +0.209 C 
ATOM     16  O   UNL     1      60.775 158.699  40.819  0.00  0.00    -0.448 OA
BRANCH  11  17
ATOM     17  O   UNL     1      58.547 159.053  39.936  0.00  0.00    -0.377 OA
BRANCH  17  18
ATOM     18  C   UNL     1      58.733 159.223  38.594  0.00  0.00    +0.431 C 
ATOM     19  O   UNL     1      59.084 158.234  37.907  0.00  0.00    -0.224 OA
ATOM     20  N   UNL     1      58.544 160.474  37.951  0.00  0.00    -0.162 N 
ATOM     21  H   UNL     1      58.269 161.245  38.498  0.00  0.00    +0.186 HD
BRANCH  20  22
ATOM     22  O   UNL     1      58.724 160.658  36.629  0.00  0.00    -0.293 OA
ATOM     23  H   UNL     1      57.949 160.328  36.148  0.00  0.00    +0.241 HD
ENDBRANCH  20  22
ENDBRANCH  17  18
ENDBRANCH  11  17
ENDBRANCH   1  12
BRANCH  10  24
ATOM     24  P   UNL     1      58.922 163.175  40.758  0.00  0.00    +0.265 P 
ATOM     25  O   UNL     1      59.065 164.460  41.507  0.00  0.00    -0.286 OA
ATOM     26  H   UNL     1      58.078 163.101  39.668  0.00  0.00    +0.136 HD
BRANCH  24  27
ATOM     27  O   UNL     1      59.130 163.280  39.112  0.00  0.00    -0.185 OA
BRANCH  27  28
ATOM     28  N   UNL     1      59.729 164.403  38.691  0.00  0.00    -0.121 N 
BRANCH  28  29
ATOM     29  C   UNL     1      60.857 164.435  37.823  0.00  0.00    +0.116 C 
ATOM     30  C   UNL     1      62.065 164.396  38.350  0.00  0.00    +0.131 C 
ATOM     31 CL   UNL     1      62.308 164.305  40.097  0.00  0.00    -0.068 Cl
ATOM     32 CL   UNL     1      63.478 164.432  37.325  0.00  0.00    -0.068 Cl
BRANCH  29  33
ATOM     33  C   UNL     1      60.718 164.513  36.353  0.00  0.00    +0.087 C 
ATOM     34  C   UNL     1      60.609 165.881  35.848  0.00  0.00    -0.002 C 
ATOM     35  C   UNL     1      59.752 165.865  34.770  0.00  0.00    +0.041 C 
ATOM     36  N   UNL     1      59.297 164.516  34.572  0.00  0.00    -0.332 N 
ATOM     37  C   UNL     1      59.448 163.854  35.874  0.00  0.00    +0.098 C 
ATOM     38  C   UNL     1      59.447 167.017  34.068  0.00  0.00    +0.014 C 
ATOM     39  C   UNL     1      59.987 168.234  34.419  0.00  0.00    +0.001 C 
ATOM     40  C   UNL     1      60.851 168.276  35.496  0.00  0.00    -0.000 C 
ATOM     41  C   UNL     1      61.135 167.118  36.174  0.00  0.00    -0.003 C 
ATOM     42  H   UNL     1      58.956 164.118  33.738  0.00  0.00    +0.147 HD
ENDBRANCH  29  33
ENDBRANCH  28  29
BRANCH  28  43
ATOM     43  O   UNL     1      59.278 165.640  39.080  0.00  0.00    -0.262 OA
ATOM     44  H   UNL     1      58.449 165.842  38.618  0.00  0.00    +0.247 HD
ENDBRANCH  28  43
ENDBRANCH  27  28
ENDBRANCH  24  27
ENDBRANCH  10  24
TORSDOF 10
ENDMDL
