REMARK  Name = =
REMARK  10 active torsions:
REMARK  status: ('A' for Active; 'I' for Inactive)
REMARK    1  A    between atoms: C_1  and  C_12
REMARK    2  A    between atoms: C_10  and  P_22
REMARK    3  A    between atoms: C_11  and  O_17
REMARK    4  A    between atoms: O_17  and  C_18
REMARK    5  A    between atoms: N_20  and  O_21
REMARK    6  A    between atoms: P_22  and  O_24
REMARK    7  A    between atoms: O_24  and  N_25
REMARK    8  A    between atoms: N_25  and  C_26
REMARK    9  A    between atoms: N_25  and  O_39
REMARK   10  A    between atoms: C_26  and  C_30
REMARK                            x       y       z     vdW  Elec       q    Type
REMARK                         _______ _______ _______ _____ _____    ______ ____
ROOT
ATOM      1  C   UNL     1      52.752 154.130  26.452  0.00  0.00    +0.103 C 
ATOM      2  N   UNL     1      53.523 154.258  25.311  0.00  0.00    -0.243 NA
ATOM      3  C   UNL     1      54.089 155.367  24.885  0.00  0.00    +0.117 C 
ATOM      4  C   UNL     1      53.919 156.521  25.616  0.00  0.00    +0.169 C 
ATOM      5  N   UNL     1      54.479 157.691  25.228  0.00  0.00    -0.206 NA
ATOM      6  C   UNL     1      55.206 157.687  24.104  0.00  0.00    +0.196 C 
ATOM      7  N   UNL     1      55.384 156.565  23.372  0.00  0.00    -0.243 NA
ATOM      8  C   UNL     1      54.846 155.389  23.724  0.00  0.00    +0.176 C 
ATOM      9  N   UNL     1      53.179 156.441  26.731  0.00  0.00    -0.187 NA
ATOM     10  C   UNL     1      52.591 155.264  27.164  0.00  0.00    +0.142 C 
ENDROOT
BRANCH   1  12
ATOM     11  C   UNL     1      52.887 151.830  26.242  0.00  0.00    +0.297 C 
ATOM     12  C   UNL     1      52.189 152.856  26.794  0.00  0.00    +0.069 C 
ATOM     13  C   UNL     1      51.061 152.407  27.527  0.00  0.00    +0.038 C 
ATOM     14  C   UNL     1      51.409 151.247  28.434  0.00  0.00    +0.052 C 
ATOM     15  C   UNL     1      51.664 150.074  27.463  0.00  0.00    +0.209 C 
ATOM     16  O   UNL     1      52.486 150.518  26.407  0.00  0.00    -0.448 OA
BRANCH  11  17
ATOM     17  O   UNL     1      54.053 152.114  25.475  0.00  0.00    -0.377 OA
BRANCH  17  18
ATOM     18  C   UNL     1      55.286 152.217  26.053  0.00  0.00    +0.431 C 
ATOM     19  O   UNL     1      55.383 152.047  27.292  0.00  0.00    -0.224 OA
ATOM     20  N   UNL     1      56.456 152.509  25.305  0.00  0.00    -0.162 N 
ATOM     21  H   UNL     1      56.370 152.641  24.333  0.00  0.00    +0.186 HD
BRANCH  20  22
ATOM     22  O   UNL     1      57.679 152.614  25.860  0.00  0.00    -0.293 OA
ATOM     23  H   UNL     1      57.615 152.461  26.816  0.00  0.00    +0.241 HD
ENDBRANCH  20  22
ENDBRANCH  17  18
ENDBRANCH  11  17
ENDBRANCH   1  12
BRANCH  10  24
ATOM     24  P   UNL     1      51.636 155.267  28.630  0.00  0.00    +0.265 P 
ATOM     25  O   UNL     1      51.292 153.943  29.231  0.00  0.00    -0.286 OA
ATOM     26  H   UNL     1      50.794 155.843  27.700  0.00  0.00    +0.136 HD
BRANCH  24  27
ATOM     27  O   UNL     1      50.436 156.416  28.696  0.00  0.00    -0.185 OA
BRANCH  27  28
ATOM     28  N   UNL     1      50.387 157.113  29.840  0.00  0.00    -0.121 N 
BRANCH  28  29
ATOM     29  C   UNL     1      50.497 158.530  29.922  0.00  0.00    +0.116 C 
ATOM     30  C   UNL     1      51.690 159.082  29.818  0.00  0.00    +0.131 C 
ATOM     31 CL   UNL     1      53.142 158.105  29.581  0.00  0.00    -0.068 Cl
ATOM     32 CL   UNL     1      51.873 160.816  29.913  0.00  0.00    -0.068 Cl
BRANCH  29  33
ATOM     33  C   UNL     1      49.319 159.401  30.122  0.00  0.00    +0.087 C 
ATOM     34  C   UNL     1      49.355 160.154  31.375  0.00  0.00    -0.002 C 
ATOM     35  C   UNL     1      48.063 160.255  31.843  0.00  0.00    +0.041 C 
ATOM     36  N   UNL     1      47.193 159.575  30.923  0.00  0.00    -0.332 N 
ATOM     37  C   UNL     1      48.042 158.603  30.222  0.00  0.00    +0.098 C 
ATOM     38  C   UNL     1      47.768 160.921  33.019  0.00  0.00    +0.014 C 
ATOM     39  C   UNL     1      48.754 161.512  33.775  0.00  0.00    +0.001 C 
ATOM     40  C   UNL     1      50.058 161.426  33.326  0.00  0.00    -0.000 C 
ATOM     41  C   UNL     1      50.322 160.759  32.157  0.00  0.00    -0.003 C 
ATOM     42  H   UNL     1      46.230 159.729  30.790  0.00  0.00    +0.147 HD
ENDBRANCH  29  33
ENDBRANCH  28  29
BRANCH  28  43
ATOM     43  O   UNL     1      50.220 156.486  31.050  0.00  0.00    -0.262 OA
ATOM     44  H   UNL     1      50.154 155.528  30.911  0.00  0.00    +0.247 HD
ENDBRANCH  28  43
ENDBRANCH  27  28
ENDBRANCH  24  27
ENDBRANCH  10  24
TORSDOF 10
