REMARK  Name = =
REMARK  2 active torsions:
REMARK  status: ('A' for Active; 'I' for Inactive)
REMARK    1  A    between atoms: C_5  and  S_10
REMARK    2  A    between atoms: S_10  and  C_11
REMARK                            x       y       z     vdW  Elec       q    Type
REMARK                         _______ _______ _______ _____ _____    ______ ____
ROOT
ATOM      1  N   UNL     1      -3.006  -3.664  29.469  0.00  0.00    -0.313 N 
ATOM      2  C   UNL     1      -3.915  -4.187  30.418  0.00  0.00    +0.302 C 
ATOM      3  O   UNL     1      -5.040  -3.653  30.517  0.00  0.00    -0.253 OA
ATOM      4  N   UNL     1      -3.515  -5.285  31.211  0.00  0.00    -0.251 N 
ATOM      5  C   UNL     1      -2.226  -5.920  31.119  0.00  0.00    +0.161 C 
ATOM      6  C   UNL     1      -2.407  -7.389  31.042  0.00  0.00    +0.174 C 
ATOM      7  O   UNL     1      -3.232  -7.957  31.954  0.00  0.00    -0.349 OA
ATOM      8  C   UNL     1      -4.338  -7.314  32.349  0.00  0.00    +0.164 C 
ATOM      9  C   UNL     1      -4.418  -5.853  32.201  0.00  0.00    +0.128 C 
ATOM     10  H   UNL     1      -3.267  -2.899  28.907  0.00  0.00    +0.146 HD
ATOM     11  H   UNL     1      -2.112  -4.065  29.370  0.00  0.00    +0.146 HD
ENDROOT
BRANCH   5  12
ATOM     12  S   UNL     1      -1.346  -5.389  29.608  0.00  0.00    -0.052 S 
BRANCH  12  13
ATOM     13  C   UNL     1       0.363  -5.071  29.984  0.00  0.00    +0.209 A 
ATOM     14  N   UNL     1       1.393  -5.936  30.043  0.00  0.00    -0.234 N 
ATOM     15  N   UNL     1       2.489  -5.297  30.354  0.00  0.00    -0.046 NA
ATOM     16  N   UNL     1       2.196  -4.020  30.501  0.00  0.00    -0.022 NA
ATOM     17  N   UNL     1       0.916  -3.860  30.282  0.00  0.00    -0.102 NA
ATOM     18  H   UNL     1       1.330  -6.904  29.877  0.00  0.00    +0.193 HD
ENDBRANCH  12  13
ENDBRANCH   5  12
TORSDOF 2
