REMARK  Name = =
REMARK  5 active torsions:
REMARK  status: ('A' for Active; 'I' for Inactive)
REMARK    1  A    between atoms: C_1  and  C_18
REMARK    2  A    between atoms: C_7  and  C_26
REMARK    3  A    between atoms: C_15  and  S_20
REMARK    4  A    between atoms: S_20  and  C_21
REMARK    5  A    between atoms: C_34  and  C_35
REMARK                            x       y       z     vdW  Elec       q    Type
REMARK                         _______ _______ _______ _____ _____    ______ ____
ROOT
ATOM      1  C   UNL     1       4.565  -9.786  25.361  0.00  0.00    +0.107 C 
ATOM      2  N   UNL     1       3.710 -10.717  25.723  0.00  0.00    -0.244 NA
ATOM      3  C   UNL     1       2.530 -10.457  26.376  0.00  0.00    +0.098 C 
ATOM      4  C   UNL     1       2.224  -9.134  26.674  0.00  0.00    +0.095 C 
ATOM      5  N   UNL     1       3.097  -8.216  26.306  0.00  0.00    -0.241 NA
ATOM      6  C   UNL     1       4.241  -8.455  25.671  0.00  0.00    +0.116 C 
ATOM      7  C   UNL     1       1.012  -8.782  27.294  0.00  0.00    -0.003 C 
ATOM      8  C   UNL     1       0.177  -9.824  27.573  0.00  0.00    -0.003 C 
ATOM      9  C   UNL     1       0.468 -11.160  27.280  0.00  0.00    +0.001 C 
ATOM     10  C   UNL     1       1.654 -11.466  26.679  0.00  0.00    +0.021 C 
ENDROOT
BRANCH   1  18
ATOM     11  N   UNL     1       7.659 -12.090  21.135  0.00  0.00    -0.313 N 
ATOM     12  C   UNL     1       6.886 -12.179  22.292  0.00  0.00    +0.302 C 
ATOM     13  O   UNL     1       5.832 -12.929  22.221  0.00  0.00    -0.253 OA
ATOM     14  N   UNL     1       7.188 -11.511  23.474  0.00  0.00    -0.251 N 
ATOM     15  C   UNL     1       8.312 -10.719  23.805  0.00  0.00    +0.161 C 
ATOM     16  C   UNL     1       8.065  -9.915  25.074  0.00  0.00    +0.174 C 
ATOM     17  O   UNL     1       6.852  -9.363  25.159  0.00  0.00    -0.346 OA
ATOM     18  C   UNL     1       5.783 -10.044  24.625  0.00  0.00    +0.176 C 
ATOM     19  C   UNL     1       6.121 -11.534  24.548  0.00  0.00    +0.131 C 
ATOM     20  H   UNL     1       8.472 -11.535  21.128  0.00  0.00    +0.146 HD
ATOM     21  H   UNL     1       7.392 -12.582  20.325  0.00  0.00    +0.146 HD
BRANCH  15  22
ATOM     22  S   UNL     1       9.902 -11.573  23.964  0.00  0.00    -0.052 S 
BRANCH  22  23
ATOM     23  C   UNL     1       9.845 -12.888  25.121  0.00  0.00    +0.209 A 
ATOM     24  N   UNL     1      10.314 -12.937  26.375  0.00  0.00    -0.234 N 
ATOM     25  N   UNL     1      10.090 -14.107  26.946  0.00  0.00    -0.046 NA
ATOM     26  N   UNL     1       9.456 -14.823  26.012  0.00  0.00    -0.022 NA
ATOM     27  N   UNL     1       9.299 -14.107  24.912  0.00  0.00    -0.102 NA
ATOM     28  H   UNL     1      10.773 -12.188  26.820  0.00  0.00    +0.193 HD
ENDBRANCH  22  23
ENDBRANCH  15  22
ENDBRANCH   1  18
BRANCH   7  29
ATOM     29  C   UNL     1       0.758  -7.385  27.620  0.00  0.00    +0.033 C 
ATOM     30  C   UNL     1      -0.490  -7.152  28.507  0.00  0.00    +0.030 C 
ATOM     31  C   UNL     1      -0.156  -5.811  29.061  0.00  0.00    -0.029 C 
ATOM     32  C   UNL     1       1.205  -5.720  29.191  0.00  0.00    -0.026 C 
ATOM     33  C   UNL     1       1.857  -6.950  28.638  0.00  0.00    +0.031 C 
ATOM     34  C   UNL     1       1.762  -4.537  29.671  0.00  0.00    -0.005 C 
ATOM     35  C   UNL     1       0.968  -3.496  30.003  0.00  0.00    -0.001 C 
ATOM     36  C   UNL     1      -0.427  -3.607  29.861  0.00  0.00    -0.004 C 
ATOM     37  C   UNL     1      -1.004  -4.751  29.392  0.00  0.00    -0.015 C 
BRANCH  37  38
ATOM     38  C   UNL     1      -2.469  -4.975  29.224  0.00  0.00    +0.086 C 
ATOM     39  S   UNL     1      -3.088  -5.559  30.877  0.00  0.00    -0.118 S 
ATOM     40  C   UNL     1      -4.182  -4.131  31.205  0.00  0.00    +0.128 C 
ATOM     41  N   UNL     1      -4.381  -3.655  29.876  0.00  0.00    -0.287 NA
ATOM     42  C   UNL     1      -3.147  -3.629  29.185  0.00  0.00    +0.085 C 
ATOM     43  H   UNL     1      -4.770  -2.713  29.909  0.00  0.00    +0.124 HD
ENDBRANCH  37  38
ENDBRANCH   7  29
TORSDOF 5
