MODEL 1
REMARK VINA RESULT:    -9.139      0.000      0.000
REMARK INTER + INTRA:         -10.529
REMARK INTER:                 -10.208
REMARK INTRA:                  -0.321
REMARK UNBOUND:                -0.321
REMARK  Name = =
REMARK  2 active torsions:
REMARK  status: ('A' for Active; 'I' for Inactive)
REMARK    1  A    between atoms: C_1  and  O_23
REMARK    2  A    between atoms: O_23  and  C_25
REMARK                            x       y       z     vdW  Elec       q    Type
REMARK                         _______ _______ _______ _____ _____    ______ ____
ROOT
ATOM      1  C   UNL     1      49.473 161.708  42.039  0.00  0.00    +0.172 C 
ATOM      2  C   UNL     1      48.089 161.554  42.000  0.00  0.00    +0.138 C 
ATOM      3  N   UNL     1      47.297 162.587  41.685  0.00  0.00    -0.222 NA
ATOM      4  C   UNL     1      47.755 163.791  41.395  0.00  0.00    +0.162 C 
ATOM      5  N   UNL     1      46.982 164.843  41.076  0.00  0.00    -0.208 NA
ATOM      6  C   UNL     1      47.461 166.064  40.782  0.00  0.00    +0.183 C 
ATOM      7  N   UNL     1      48.793 166.248  40.810  0.00  0.00    -0.213 NA
ATOM      8  C   UNL     1      49.637 165.250  41.119  0.00  0.00    +0.142 C 
ATOM      9  C   UNL     1      49.142 163.985  41.423  0.00  0.00    +0.043 C 
ATOM     10  C   UNL     1      49.998 162.982  41.734  0.00  0.00    +0.090 C 
ATOM     11  C   UNL     1      51.430 163.174  41.765  0.00  0.00    +0.252 C 
ATOM     12  O   UNL     1      52.172 162.172  41.530  0.00  0.00    -0.270 OA
ATOM     13  N   UNL     1      52.048 164.419  42.046  0.00  0.00    -0.271 N 
ATOM     14  C   UNL     1      53.469 164.525  42.058  0.00  0.00    +0.099 C 
ATOM     15  C   UNL     1      53.966 165.760  42.779  0.00  0.00    +0.048 C 
ATOM     16  C   UNL     1      53.231 166.963  42.309  0.00  0.00    -0.023 C 
ATOM     17  C   UNL     1      51.876 166.840  42.088  0.00  0.00    -0.006 C 
ATOM     18  C   UNL     1      51.203 167.966  41.650  0.00  0.00    -0.003 C 
ATOM     19  C   UNL     1      51.866 169.157  41.446  0.00  0.00    -0.000 C 
ATOM     20  C   UNL     1      53.237 169.274  41.672  0.00  0.00    -0.000 C 
ATOM     21  C   UNL     1      53.905 168.149  42.107  0.00  0.00    -0.004 C 
ATOM     22  C   UNL     1      51.156 165.543  42.311  0.00  0.00    +0.122 C 
ENDROOT
BRANCH   1  23
ATOM     23  O   UNL     1      50.300 160.751  42.337  0.00  0.00    -0.422 OA
BRANCH  23  25
ATOM     24  O   UNL     1      51.918 159.227  42.851  0.00  0.00    -0.420 OA
ATOM     25  C   UNL     1      50.642 159.482  42.479  0.00  0.00    +0.305 C 
ATOM     26  C   UNL     1      49.810 158.380  42.280  0.00  0.00    +0.120 C 
ATOM     27  C   UNL     1      50.283 157.101  42.460  0.00  0.00    +0.205 C 
ATOM     28  O   UNL     1      49.506 156.123  42.273  0.00  0.00    -0.286 OA
ATOM     29  C   UNL     1      51.595 156.955  42.840  0.00  0.00    +0.083 C 
ATOM     30  C   UNL     1      52.415 158.054  43.034  0.00  0.00    +0.186 C 
ENDBRANCH  23  25
ENDBRANCH   1  23
TORSDOF 2
ENDMDL
