MODEL 1
REMARK VINA RESULT:    -8.115      0.000      0.000
REMARK INTER + INTRA:         -10.948
REMARK INTER:                 -10.250
REMARK INTRA:                  -0.698
REMARK UNBOUND:                -0.698
REMARK  Name = =
REMARK  5 active torsions:
REMARK  status: ('A' for Active; 'I' for Inactive)
REMARK    1  A    between atoms: C_1  and  C_19
REMARK    2  A    between atoms: C_1  and  N_26
REMARK    3  A    between atoms: C_22  and  O_25
REMARK    4  A    between atoms: N_26  and  N_27
REMARK    5  A    between atoms: C_30  and  C_35
REMARK                            x       y       z     vdW  Elec       q    Type
REMARK                         _______ _______ _______ _____ _____    ______ ____
ROOT
ATOM      1  C   UNL     1      52.677 165.759  41.806  0.00  0.00    +0.098 C 
ATOM      2  C   UNL     1      53.299 164.671  42.706  0.00  0.00    +0.020 C 
ATOM      3  C   UNL     1      53.081 163.483  41.784  0.00  0.00    +0.002 C 
ATOM      4  C   UNL     1      53.936 162.371  42.321  0.00  0.00    +0.000 C 
ATOM      5  C   UNL     1      55.355 162.683  42.013  0.00  0.00    +0.000 C 
ATOM      6  C   UNL     1      56.308 161.588  42.349  0.00  0.00    +0.001 C 
ATOM      7  C   UNL     1      55.795 160.250  42.009  0.00  0.00    +0.007 C 
ATOM      8  C   UNL     1      54.549 160.203  41.199  0.00  0.00    +0.000 C 
ATOM      9  C   UNL     1      53.487 161.007  41.943  0.00  0.00    +0.000 C 
ATOM     10  C   UNL     1      56.799 159.206  41.685  0.00  0.00    +0.064 C 
ATOM     11  C   UNL     1      57.994 159.706  40.985  0.00  0.00    +0.151 C 
ATOM     12  O   UNL     1      58.901 158.956  40.675  0.00  0.00    -0.296 OA
ATOM     13  C   UNL     1      58.091 161.142  40.653  0.00  0.00    +0.065 C 
ATOM     14  C   UNL     1      57.697 161.902  41.917  0.00  0.00    +0.008 C 
ATOM     15  C   UNL     1      55.745 164.045  42.427  0.00  0.00    +0.000 C 
ATOM     16  C   UNL     1      54.718 164.912  43.034  0.00  0.00    +0.002 C 
ATOM     17  C   UNL     1      53.574 164.031  40.459  0.00  0.00    +0.002 C 
ATOM     18  C   UNL     1      53.487 165.559  40.574  0.00  0.00    +0.022 C 
ENDROOT
BRANCH   1  19
ATOM     19  C   UNL     1      51.262 165.351  41.666  0.00  0.00    -0.006 C 
ATOM     20  C   UNL     1      50.561 165.897  40.585  0.00  0.00    +0.000 C 
ATOM     21  C   UNL     1      49.245 165.599  40.352  0.00  0.00    +0.036 C 
ATOM     22  C   UNL     1      48.601 164.739  41.211  0.00  0.00    +0.134 C 
ATOM     23  C   UNL     1      49.292 164.186  42.298  0.00  0.00    +0.036 C 
ATOM     24  C   UNL     1      50.614 164.497  42.516  0.00  0.00    +0.000 C 
BRANCH  22  25
ATOM     25  O   UNL     1      47.273 164.434  40.982  0.00  0.00    -0.506 OA
ATOM     26  H   UNL     1      46.634 165.118  40.947  0.00  0.00    +0.292 HD
ENDBRANCH  22  25
ENDBRANCH   1  19
BRANCH   1  27
ATOM     27  N   UNL     1      52.841 167.010  42.473  0.00  0.00    -0.120 NA
BRANCH  27  28
ATOM     28  N   UNL     1      53.447 168.009  41.747  0.00  0.00    -0.150 N 
ATOM     29  C   UNL     1      54.864 168.078  41.691  0.00  0.00    +0.266 C 
ATOM     30  O   UNL     1      55.604 167.581  42.579  0.00  0.00    -0.271 OA
ATOM     31  C   UNL     1      55.474 168.780  40.510  0.00  0.00    +0.174 C 
ATOM     32  N   UNL     1      54.623 169.845  40.020  0.00  0.00    -0.279 NA
ATOM     33  C   UNL     1      53.275 169.459  39.759  0.00  0.00    +0.158 C 
ATOM     34  C   UNL     1      52.691 168.992  41.041  0.00  0.00    +0.262 C 
ATOM     35  O   UNL     1      51.605 169.443  41.459  0.00  0.00    -0.272 OA
ATOM     36  H   UNL     1      55.025 170.200  39.152  0.00  0.00    +0.124 HD
BRANCH  31  37
ATOM     37  C   UNL     1      56.748 169.422  40.898  0.00  0.00    +0.082 C 
ATOM     38  C   UNL     1      57.974 168.950  40.504  0.00  0.00    +0.018 C 
ATOM     39  C   UNL     1      59.152 169.590  40.898  0.00  0.00    +0.022 C 
ATOM     40  C   UNL     1      59.061 170.706  41.693  0.00  0.00    +0.022 C 
ATOM     41  C   UNL     1      57.836 171.171  42.084  0.00  0.00    +0.099 C 
ATOM     42  N   UNL     1      56.730 170.533  41.687  0.00  0.00    -0.246 NA
ATOM     43  C   UNL     1      60.403 169.144  40.515  0.00  0.00    +0.099 C 
ATOM     44  N   UNL     1      60.463 168.056  39.737  0.00  0.00    -0.242 NA
ATOM     45  C   UNL     1      59.360 167.409  39.333  0.00  0.00    +0.099 C 
ATOM     46  C   UNL     1      58.100 167.838  39.705  0.00  0.00    +0.022 C 
ENDBRANCH  31  37
ENDBRANCH  27  28
ENDBRANCH   1  27
TORSDOF 5
ENDMDL
