REMARK  Name = =
REMARK  0 active torsions:
REMARK  status: ('A' for Active; 'I' for Inactive)
REMARK                            x       y       z     vdW  Elec       q    Type
REMARK                         _______ _______ _______ _____ _____    ______ ____
ROOT
ATOM      1  C   UNL     1      43.019 151.707  25.693  0.00  0.00    +0.303 C 
ATOM      2  O   UNL     1      43.983 151.255  25.035  0.00  0.00    -0.265 OA
ATOM      3  N   UNL     1      42.235 150.844  26.493  0.00  0.00    -0.268 N 
ATOM      4  C   UNL     1      41.142 151.445  27.219  0.00  0.00    +0.099 C 
ATOM      5  C   UNL     1      40.417 150.490  28.115  0.00  0.00    +0.048 C 
ATOM      6  C   UNL     1      41.246 149.393  28.612  0.00  0.00    -0.023 C 
ATOM      7  C   UNL     1      42.275 148.879  27.872  0.00  0.00    -0.006 C 
ATOM      8  C   UNL     1      43.032 147.829  28.403  0.00  0.00    -0.003 C 
ATOM      9  C   UNL     1      42.734 147.330  29.651  0.00  0.00    -0.000 C 
ATOM     10  C   UNL     1      41.701 147.834  30.413  0.00  0.00    -0.000 C 
ATOM     11  C   UNL     1      40.965 148.871  29.873  0.00  0.00    -0.004 C 
ATOM     12  C   UNL     1      42.560 149.438  26.546  0.00  0.00    +0.120 C 
ENDROOT
TORSDOF 0
