REMARK  Name = =
REMARK  5 active torsions:
REMARK  status: ('A' for Active; 'I' for Inactive)
REMARK    1  A    between atoms: C_12  and  C_13
REMARK    2  A    between atoms: C_13  and  C_14
REMARK    3  A    between atoms: C_14  and  C_15
REMARK    4  A    between atoms: C_15  and  O_16
REMARK    5  A    between atoms: O_16  and  C_17
REMARK                            x       y       z     vdW  Elec       q    Type
REMARK                         _______ _______ _______ _____ _____    ______ ____
ROOT
ATOM      1  C   UNL     1      43.796 150.834  25.815  0.00  0.00    +0.303 C 
ATOM      2  O   UNL     1      43.432 151.963  25.417  0.00  0.00    -0.265 OA
ATOM      3  N   UNL     1      42.836 149.897  26.204  0.00  0.00    -0.270 N 
ATOM      4  C   UNL     1      41.409 150.191  26.172  0.00  0.00    +0.099 C 
ATOM      5  C   UNL     1      40.902 150.260  27.561  0.00  0.00    +0.048 C 
ATOM      6  C   UNL     1      41.521 149.233  28.420  0.00  0.00    -0.023 C 
ATOM      7  C   UNL     1      42.587 148.470  28.035  0.00  0.00    -0.008 C 
ATOM      8  C   UNL     1      43.078 147.545  28.936  0.00  0.00    -0.003 C 
ATOM      9  C   UNL     1      42.534 147.369  30.192  0.00  0.00    -0.000 C 
ATOM     10  C   UNL     1      41.458 148.134  30.592  0.00  0.00    -0.000 C 
ATOM     11  C   UNL     1      40.963 149.053  29.708  0.00  0.00    -0.004 C 
ATOM     12  C   UNL     1      43.256 148.579  26.677  0.00  0.00    +0.098 C 
ENDROOT
BRANCH  12  13
ATOM     13  C   UNL     1      42.634 147.473  25.863  0.00  0.00    +0.028 C 
BRANCH  13  14
ATOM     14  C   UNL     1      43.028 147.387  24.444  0.00  0.00    +0.050 C 
BRANCH  14  15
ATOM     15  C   UNL     1      44.133 146.436  24.150  0.00  0.00    +0.209 C 
BRANCH  15  16
ATOM     16  O   UNL     1      45.292 146.666  24.911  0.00  0.00    -0.441 OA
BRANCH  16  17
ATOM     17  C   UNL     1      46.476 146.026  24.595  0.00  0.00    +0.418 C 
ATOM     18  O   UNL     1      46.498 145.329  23.537  0.00  0.00    -0.238 OA
ENDBRANCH  16  17
ENDBRANCH  15  16
ENDBRANCH  14  15
ENDBRANCH  13  14
ENDBRANCH  12  13
TORSDOF 5
