REMARK  Name = =
REMARK  1 active torsions:
REMARK  status: ('A' for Active; 'I' for Inactive)
REMARK    1  A    between atoms: C_1  and  C_6
REMARK                            x       y       z     vdW  Elec       q    Type
REMARK                         _______ _______ _______ _____ _____    ______ ____
ROOT
ATOM      1  C   UNL     1      52.414 155.617  27.845  0.00  0.00    +0.143 C 
ATOM      2  N   UNL     1      51.708 155.424  28.879  0.00  0.00    -0.084 NA
ATOM      3  O   UNL     1      51.535 156.548  29.639  0.00  0.00    -0.377 OA
ATOM      4  C   UNL     1      52.414 157.540  29.154  0.00  0.00    +0.245 C 
ATOM      5  C   UNL     1      52.838 157.042  27.794  0.00  0.00    +0.103 C 
ENDROOT
BRANCH   1   6
ATOM      6  C   UNL     1      52.818 154.669  26.798  0.00  0.00    +0.252 C 
ATOM      7  O   UNL     1      53.445 155.000  25.769  0.00  0.00    -0.282 OA
ENDBRANCH   1   6
TORSDOF 1
