REMARK  Name = =
REMARK  1 active torsions:
REMARK  status: ('A' for Active; 'I' for Inactive)
REMARK    1  A    between atoms: C_3  and  C_5
REMARK                            x       y       z     vdW  Elec       q    Type
REMARK                         _______ _______ _______ _____ _____    ______ ____
ROOT
ATOM      1  C   UNL     1      50.845 155.186  28.677  0.00  0.00    +0.111 C 
ATOM      2  N   UNL     1      51.516 154.803  27.434  0.00  0.00    -0.298 N 
ATOM      3  C   UNL     1      52.106 153.532  27.248  0.00  0.00    +0.263 C 
ATOM      4  O   UNL     1      52.072 152.675  28.163  0.00  0.00    -0.269 OA
ATOM      5  H   UNL     1      51.558 155.456  26.699  0.00  0.00    +0.150 HD
ENDROOT
BRANCH   3   6
ATOM      6  C   UNL     1      52.759 153.245  25.953  0.00  0.00    +0.154 C 
ATOM      7  N   UNL     1      52.941 154.082  24.998  0.00  0.00    -0.083 NA
ATOM      8  O   UNL     1      53.588 153.472  23.927  0.00  0.00    -0.377 OA
ATOM      9  C   UNL     1      54.311 152.357  24.479  0.00  0.00    +0.245 C 
ATOM     10  C   UNL     1      53.313 151.935  25.534  0.00  0.00    +0.104 C 
ENDBRANCH   3   6
TORSDOF 1
