REMARK  Name = =
REMARK  4 active torsions:
REMARK  status: ('A' for Active; 'I' for Inactive)
REMARK    1  A    between atoms: C_1  and  C_8
REMARK    2  A    between atoms: C_5  and  S_10
REMARK    3  A    between atoms: S_10  and  C_11
REMARK    4  A    between atoms: C_14  and  O_17
REMARK                            x       y       z     vdW  Elec       q    Type
REMARK                         _______ _______ _______ _____ _____    ______ ____
ROOT
ATOM      1  C   UNL     1      49.881 158.204  29.802  0.00  0.00    +0.164 C 
ATOM      2  N   UNL     1      49.786 159.335  29.197  0.00  0.00    -0.082 NA
ATOM      3  O   UNL     1      48.589 159.948  29.453  0.00  0.00    -0.376 OA
ATOM      4  C   UNL     1      47.676 158.890  29.787  0.00  0.00    +0.256 C 
ATOM      5  C   UNL     1      48.623 157.997  30.562  0.00  0.00    +0.146 C 
ENDROOT
BRANCH   1   8
ATOM      6  C   UNL     1      51.967 155.032  29.236  0.00  0.00    +0.111 C 
ATOM      7  N   UNL     1      50.852 155.963  29.263  0.00  0.00    -0.298 N 
ATOM      8  C   UNL     1      51.003 157.262  29.774  0.00  0.00    +0.264 C 
ATOM      9  O   UNL     1      52.148 157.582  30.208  0.00  0.00    -0.269 OA
ATOM     10  H   UNL     1      49.975 155.678  28.917  0.00  0.00    +0.150 HD
ENDBRANCH   1   8
BRANCH   5  11
ATOM     11  S   UNL     1      48.854 158.687  32.212  0.00  0.00    -0.104 S 
BRANCH  11  12
ATOM     12  C   UNL     1      49.999 160.019  32.124  0.00  0.00    +0.026 C 
ATOM     13  C   UNL     1      50.636 160.301  30.944  0.00  0.00    +0.009 C 
ATOM     14  C   UNL     1      51.538 161.336  30.840  0.00  0.00    +0.037 C 
ATOM     15  C   UNL     1      51.800 162.100  31.950  0.00  0.00    +0.134 C 
ATOM     16  C   UNL     1      51.169 161.837  33.158  0.00  0.00    +0.037 C 
ATOM     17  C   UNL     1      50.264 160.783  33.227  0.00  0.00    +0.009 C 
BRANCH  15  18
ATOM     18  O   UNL     1      52.688 163.149  31.921  0.00  0.00    -0.506 OA
ATOM     19  H   UNL     1      53.136 163.362  31.126  0.00  0.00    +0.292 HD
ENDBRANCH  15  18
ENDBRANCH  11  12
ENDBRANCH   5  11
TORSDOF 4
