REMARK  Name = =
REMARK  7 active torsions:
REMARK  status: ('A' for Active; 'I' for Inactive)
REMARK    1  A    between atoms: C_1  and  C_7
REMARK    2  A    between atoms: C_5  and  S_13
REMARK    3  A    between atoms: N_6  and  C_9
REMARK    4  A    between atoms: C_9  and  C_10
REMARK    5  A    between atoms: C_10  and  O_12
REMARK    6  A    between atoms: S_13  and  C_14
REMARK    7  A    between atoms: C_17  and  O_20
REMARK                            x       y       z     vdW  Elec       q    Type
REMARK                         _______ _______ _______ _____ _____    ______ ____
ROOT
ATOM      1  C   UNL     1      51.025 156.864  29.303  0.00  0.00    +0.164 C 
ATOM      2  N   UNL     1      51.641 155.749  29.643  0.00  0.00    -0.082 NA
ATOM      3  O   UNL     1      52.908 155.711  29.113  0.00  0.00    -0.376 OA
ATOM      4  C   UNL     1      52.747 156.423  27.860  0.00  0.00    +0.256 C 
ATOM      5  C   UNL     1      51.981 157.640  28.482  0.00  0.00    +0.146 C 
ENDROOT
BRANCH   1   7
ATOM      6  N   UNL     1      49.287 158.608  29.758  0.00  0.00    -0.297 N 
ATOM      7  C   UNL     1      49.679 157.212  29.693  0.00  0.00    +0.264 C 
ATOM      8  O   UNL     1      48.771 156.411  30.000  0.00  0.00    -0.269 OA
ATOM      9  H   UNL     1      49.932 159.318  29.536  0.00  0.00    +0.150 HD
BRANCH   6  10
ATOM     10  C   UNL     1      47.936 158.944  30.153  0.00  0.00    +0.119 C 
BRANCH  10  11
ATOM     11  C   UNL     1      47.915 159.587  31.531  0.00  0.00    +0.130 C 
ATOM     12  C   UNL     1      46.500 159.854  31.988  0.00  0.00    +0.034 C 
BRANCH  11  13
ATOM     13  O   UNL     1      48.628 158.829  32.445  0.00  0.00    -0.383 OA
ATOM     14  H   UNL     1      49.527 158.683  32.112  0.00  0.00    +0.210 HD
ENDBRANCH  11  13
ENDBRANCH  10  11
ENDBRANCH   6  10
ENDBRANCH   1   7
BRANCH   5  15
ATOM     15  S   UNL     1      53.174 158.447  29.524  0.00  0.00    -0.104 S 
BRANCH  15  16
ATOM     16  C   UNL     1      52.705 159.955  30.288  0.00  0.00    +0.026 C 
ATOM     17  C   UNL     1      51.507 160.222  30.902  0.00  0.00    +0.009 C 
ATOM     18  C   UNL     1      51.270 161.460  31.507  0.00  0.00    +0.037 C 
ATOM     19  C   UNL     1      52.211 162.466  31.520  0.00  0.00    +0.134 C 
ATOM     20  C   UNL     1      53.412 162.197  30.902  0.00  0.00    +0.037 C 
ATOM     21  C   UNL     1      53.656 160.981  30.304  0.00  0.00    +0.009 C 
BRANCH  19  22
ATOM     22  O   UNL     1      51.930 163.689  32.138  0.00  0.00    -0.506 OA
ATOM     23  H   UNL     1      51.098 163.827  32.546  0.00  0.00    +0.292 HD
ENDBRANCH  19  22
ENDBRANCH  15  16
ENDBRANCH   5  15
TORSDOF 7
