REMARK  Name = =
REMARK  9 active torsions:
REMARK  status: ('A' for Active; 'I' for Inactive)
REMARK    1  A    between atoms: C_1  and  N_2
REMARK    2  A    between atoms: C_1  and  C_18
REMARK    3  A    between atoms: C_3  and  C_5
REMARK    4  A    between atoms: C_9  and  S_10
REMARK    5  A    between atoms: S_10  and  C_11
REMARK    6  A    between atoms: C_14  and  O_17
REMARK    7  A    between atoms: C_18  and  O_30
REMARK    8  A    between atoms: C_23  and  O_29
REMARK    9  A    between atoms: C_26  and  N_28
REMARK                            x       y       z     vdW  Elec       q    Type
REMARK                         _______ _______ _______ _____ _____    ______ ____
ROOT
ATOM      1  C   UNL     1      51.277 154.836  28.207  0.00  0.00    +0.123 C 
ENDROOT
BRANCH   1   2
ATOM      2  C   UNL     1      52.609 155.181  27.637  0.00  0.00    +0.152 C 
ATOM      3  C   UNL     1      52.798 156.575  27.134  0.00  0.00    +0.177 C 
ATOM      4  C   UNL     1      53.177 152.807  27.269  0.00  0.00    -0.002 C 
ATOM      5  C   UNL     1      53.080 154.111  26.749  0.00  0.00    +0.008 C 
ATOM      6  C   UNL     1      53.384 154.360  25.418  0.00  0.00    +0.052 C 
ATOM      7  C   UNL     1      53.787 153.293  24.595  0.00  0.00    +0.133 C 
ATOM      8  C   UNL     1      53.877 152.035  25.111  0.00  0.00    +0.036 C 
ATOM      9  C   UNL     1      53.574 151.802  26.431  0.00  0.00    +0.003 C 
ATOM     10  C   UNL     1      53.348 155.645  24.788  0.00  0.00    +0.196 C 
ATOM     11  O   UNL     1      53.036 156.705  25.311  0.00  0.00    -0.334 OA
BRANCH  10  12
ATOM     12  N   UNL     1      53.708 155.766  23.395  0.00  0.00    -0.296 NA
ATOM     13  H   UNL     1      53.629 156.741  23.107  0.00  0.00    +0.121 HD
ATOM     14  H   UNL     1      53.081 155.193  22.831  0.00  0.00    +0.121 HD
ENDBRANCH  10  12
BRANCH   7  15
ATOM     15  O   UNL     1      54.089 153.529  23.275  0.00  0.00    -0.506 OA
ATOM     16  H   UNL     1      54.358 152.822  22.722  0.00  0.00    +0.292 HD
ENDBRANCH   7  15
BRANCH   2  17
ATOM     17  O   UNL     1      53.481 155.139  28.791  0.00  0.00    -0.379 OA
ATOM     18  H   UNL     1      53.218 155.829  29.420  0.00  0.00    +0.211 HD
ENDBRANCH   2  17
ENDBRANCH   1   2
BRANCH   1  19
ATOM     19  N   UNL     1      50.516 155.881  28.802  0.00  0.00    -0.297 N 
ATOM     20  C   UNL     1      50.962 156.981  29.548  0.00  0.00    +0.264 C 
ATOM     21  O   UNL     1      52.192 157.117  29.766  0.00  0.00    -0.269 OA
ATOM     22  H   UNL     1      49.542 155.824  28.672  0.00  0.00    +0.150 HD
BRANCH  20  23
ATOM     23  C   UNL     1      50.013 157.983  30.084  0.00  0.00    +0.164 C 
ATOM     24  N   UNL     1      48.742 157.912  30.150  0.00  0.00    -0.082 NA
ATOM     25  O   UNL     1      48.170 159.010  30.701  0.00  0.00    -0.376 OA
ATOM     26  C   UNL     1      49.131 160.024  30.849  0.00  0.00    +0.256 C 
ATOM     27  C   UNL     1      50.421 159.277  30.648  0.00  0.00    +0.146 C 
BRANCH  27  28
ATOM     28  S   UNL     1      51.430 160.240  29.485  0.00  0.00    -0.104 S 
BRANCH  28  29
ATOM     29  C   UNL     1      52.792 160.940  30.406  0.00  0.00    +0.026 C 
ATOM     30  C   UNL     1      52.621 161.884  31.394  0.00  0.00    +0.009 C 
ATOM     31  C   UNL     1      53.664 162.425  32.105  0.00  0.00    +0.037 C 
ATOM     32  C   UNL     1      54.956 162.027  31.845  0.00  0.00    +0.134 C 
ATOM     33  C   UNL     1      55.163 161.085  30.863  0.00  0.00    +0.037 C 
ATOM     34  C   UNL     1      54.105 160.554  30.162  0.00  0.00    +0.009 C 
BRANCH  32  35
ATOM     35  O   UNL     1      56.032 162.563  32.554  0.00  0.00    -0.506 OA
ATOM     36  H   UNL     1      55.881 163.204  33.221  0.00  0.00    +0.292 HD
ENDBRANCH  32  35
ENDBRANCH  28  29
ENDBRANCH  27  28
ENDBRANCH  20  23
ENDBRANCH   1  19
TORSDOF 9
