REMARK  Name = =
REMARK  13 active torsions:
REMARK  status: ('A' for Active; 'I' for Inactive)
REMARK    1  A    between atoms: C_1  and  C_4
REMARK    2  A    between atoms: C_1  and  O_19
REMARK    3  A    between atoms: C_1  and  C_20
REMARK    4  A    between atoms: C_3  and  C_12
REMARK    5  A    between atoms: C_5  and  C_9
REMARK    6  A    between atoms: C_6  and  O_18
REMARK    7  A    between atoms: C_12  and  C_14
REMARK    8  A    between atoms: N_16  and  O_17
REMARK    9  A    between atoms: C_20  and  N_21
REMARK   10  A    between atoms: C_22  and  C_24
REMARK   11  A    between atoms: C_28  and  S_29
REMARK   12  A    between atoms: S_29  and  C_30
REMARK   13  A    between atoms: C_33  and  O_36
REMARK                            x       y       z     vdW  Elec       q    Type
REMARK                         _______ _______ _______ _____ _____    ______ ____
ROOT
ATOM      1  C   UNL     1      52.254 157.805  28.934  0.00  0.00    +0.125 C 
ATOM      2  C   UNL     1      53.411 158.727  28.833  0.00  0.00    +0.036 C 
ENDROOT
BRANCH   1   4
ATOM      3  C   UNL     1      50.092 157.189  29.784  0.00  0.00    +0.042 C 
ATOM      4  C   UNL     1      51.103 158.177  29.801  0.00  0.00    +0.014 C 
ATOM      5  C   UNL     1      50.944 159.368  30.395  0.00  0.00    +0.085 C 
ATOM      6  C   UNL     1      49.681 159.641  31.035  0.00  0.00    +0.138 C 
ATOM      7  C   UNL     1      48.707 158.694  31.014  0.00  0.00    +0.037 C 
ATOM      8  C   UNL     1      48.890 157.498  30.412  0.00  0.00    +0.006 C 
BRANCH   5   9
ATOM      9  C   UNL     1      51.827 160.494  30.494  0.00  0.00    +0.245 C 
ATOM     10  O   UNL     1      52.868 160.741  29.928  0.00  0.00    -0.270 OA
ATOM     11  N   UNL     1      51.491 161.580  31.414  0.00  0.00    -0.325 N 
ATOM     12  H   UNL     1      50.669 161.531  31.954  0.00  0.00    +0.145 HD
ATOM     13  H   UNL     1      52.087 162.360  31.494  0.00  0.00    +0.145 HD
ENDBRANCH   5   9
BRANCH   3  14
ATOM     14  C   UNL     1      50.252 155.835  29.280  0.00  0.00    +0.250 C 
ATOM     15  O   UNL     1      49.610 155.378  28.346  0.00  0.00    -0.282 OA
BRANCH  14  16
ATOM     16  C   UNL     1      51.238 154.936  29.924  0.00  0.00    +0.307 C 
ATOM     17  O   UNL     1      51.435 155.021  31.147  0.00  0.00    -0.265 OA
ATOM     18  N   UNL     1      51.956 153.988  29.175  0.00  0.00    -0.191 N 
ATOM     19  H   UNL     1      51.802 153.912  28.206  0.00  0.00    +0.183 HD
BRANCH  18  20
ATOM     20  O   UNL     1      52.847 153.189  29.771  0.00  0.00    -0.295 OA
ATOM     21  H   UNL     1      52.878 153.390  30.719  0.00  0.00    +0.241 HD
ENDBRANCH  18  20
ENDBRANCH  14  16
ENDBRANCH   3  14
BRANCH   6  22
ATOM     22  O   UNL     1      49.416 160.819  31.664  0.00  0.00    -0.505 OA
ATOM     23  H   UNL     1      50.068 161.491  31.695  0.00  0.00    +0.292 HD
ENDBRANCH   6  22
ENDBRANCH   1   4
BRANCH   1  24
ATOM     24  O   UNL     1      52.917 156.759  29.768  0.00  0.00    -0.381 OA
ATOM     25  H   UNL     1      53.176 157.142  30.621  0.00  0.00    +0.211 HD
ENDBRANCH   1  24
BRANCH   1  26
ATOM     26  C   UNL     1      51.858 157.244  27.648  0.00  0.00    +0.121 C 
BRANCH  26  27
ATOM     27  N   UNL     1      52.626 156.317  26.910  0.00  0.00    -0.297 N 
ATOM     28  C   UNL     1      53.265 156.415  25.664  0.00  0.00    +0.264 C 
ATOM     29  O   UNL     1      53.194 157.461  24.972  0.00  0.00    -0.269 OA
ATOM     30  H   UNL     1      52.733 155.443  27.349  0.00  0.00    +0.150 HD
BRANCH  28  31
ATOM     31  C   UNL     1      54.064 155.339  25.056  0.00  0.00    +0.164 C 
ATOM     32  N   UNL     1      54.564 155.401  23.873  0.00  0.00    -0.082 NA
ATOM     33  O   UNL     1      55.251 154.277  23.561  0.00  0.00    -0.376 OA
ATOM     34  C   UNL     1      55.200 153.330  24.593  0.00  0.00    +0.256 C 
ATOM     35  C   UNL     1      54.484 154.056  25.698  0.00  0.00    +0.146 C 
BRANCH  35  36
ATOM     36  S   UNL     1      53.187 153.137  26.475  0.00  0.00    -0.104 S 
BRANCH  36  37
ATOM     37  C   UNL     1      53.059 151.428  26.083  0.00  0.00    +0.026 C 
ATOM     38  C   UNL     1      54.076 150.788  25.383  0.00  0.00    +0.009 C 
ATOM     39  C   UNL     1      53.999 149.428  25.077  0.00  0.00    +0.037 C 
ATOM     40  C   UNL     1      52.882 148.687  25.475  0.00  0.00    +0.134 C 
ATOM     41  C   UNL     1      51.886 149.307  26.156  0.00  0.00    +0.037 C 
ATOM     42  C   UNL     1      51.972 150.657  26.456  0.00  0.00    +0.009 C 
BRANCH  40  43
ATOM     43  O   UNL     1      52.836 147.319  25.148  0.00  0.00    -0.506 OA
ATOM     44  H   UNL     1      53.544 146.926  24.676  0.00  0.00    +0.292 HD
ENDBRANCH  40  43
ENDBRANCH  36  37
ENDBRANCH  35  36
ENDBRANCH  28  31
ENDBRANCH  26  27
ENDBRANCH   1  26
TORSDOF 13
