REMARK  Name = =
REMARK  0 active torsions:
REMARK  status: ('A' for Active; 'I' for Inactive)
REMARK                            x       y       z     vdW  Elec       q    Type
REMARK                         _______ _______ _______ _____ _____    ______ ____
ROOT
ATOM      1  N   UNL     1      -3.122  -5.257  32.540  0.00  0.00    -0.216 NA
ATOM      2  C   UNL     1      -3.179  -5.382  31.125  0.00  0.00    +0.107 C 
ATOM      3  C   UNL     1      -4.399  -4.777  30.492  0.00  0.00    +0.107 C 
ATOM      4  N   UNL     1      -4.571  -3.391  30.733  0.00  0.00    -0.216 NA
ATOM      5  C   UNL     1      -4.317  -2.922  32.042  0.00  0.00    +0.090 C 
ATOM      6  C   UNL     1      -4.934  -3.735  33.143  0.00  0.00    +0.038 C 
ATOM      7  C   UNL     1      -4.400  -5.139  33.187  0.00  0.00    +0.090 C 
ENDROOT
TORSDOF 0
