REMARK  Name = =
REMARK  1 active torsions:
REMARK  status: ('A' for Active; 'I' for Inactive)
REMARK    1  A    between atoms: C_6  and  C_8
REMARK                            x       y       z     vdW  Elec       q    Type
REMARK                         _______ _______ _______ _____ _____    ______ ____
ROOT
ATOM      1  N   UNL     1      -0.084  -6.614  20.735  0.00  0.00    -0.216 NA
ATOM      2  C   UNL     1       0.746  -6.188  19.643  0.00  0.00    +0.107 C 
ATOM      3  C   UNL     1       0.276  -4.957  18.951  0.00  0.00    +0.107 C 
ATOM      4  N   UNL     1      -1.130  -4.725  19.007  0.00  0.00    -0.216 NA
ATOM      5  C   UNL     1      -1.495  -4.415  20.396  0.00  0.00    +0.090 C 
ATOM      6  C   UNL     1      -2.240  -5.639  20.892  0.00  0.00    +0.035 C 
ATOM      7  C   UNL     1      -1.454  -6.829  20.373  0.00  0.00    +0.090 C 
ENDROOT
BRANCH   6   8
ATOM      8  C   UNL     1      -3.648  -5.611  20.367  0.00  0.00    +0.003 C 
ATOM      9  C   UNL     1      -4.335  -4.406  20.975  0.00  0.00    +0.000 C 
ATOM     10  C   UNL     1      -5.670  -4.914  21.492  0.00  0.00    +0.000 C 
ATOM     11  C   UNL     1      -5.371  -6.355  21.867  0.00  0.00    +0.000 C 
ATOM     12  C   UNL     1      -4.460  -6.792  20.747  0.00  0.00    +0.000 C 
ENDBRANCH   6   8
TORSDOF 1
