MODEL 1
REMARK VINA RESULT:    -6.466      0.000      0.000
REMARK INTER + INTRA:          -9.764
REMARK INTER:                  -9.112
REMARK INTRA:                  -0.652
REMARK UNBOUND:                -0.652
REMARK  Name = =
REMARK  7 active torsions:
REMARK  status: ('A' for Active; 'I' for Inactive)
REMARK    1  A    between atoms: C_1  and  C_27
REMARK    2  A    between atoms: C_2  and  C_9
REMARK    3  A    between atoms: C_27  and  C_28
REMARK    4  A    between atoms: C_27  and  N_31
REMARK    5  A    between atoms: N_31  and  C_33
REMARK    6  A    between atoms: C_33  and  N_34
REMARK    7  A    between atoms: N_34  and  N_35
REMARK                            x       y       z     vdW  Elec       q    Type
REMARK                         _______ _______ _______ _____ _____    ______ ____
ROOT
ATOM      1  C   UNL     1      60.677 166.411  36.482  0.00  0.00    -0.001 C 
ATOM      2  C   UNL     1      60.915 166.020  37.807  0.00  0.00    -0.013 C 
ATOM      3  C   UNL     1      60.873 167.000  38.754  0.00  0.00    +0.064 C 
ATOM      4  C   UNL     1      60.613 168.340  38.511  0.00  0.00    +0.068 C 
ATOM      5  C   UNL     1      60.376 168.718  37.219  0.00  0.00    +0.012 C 
ATOM      6  C   UNL     1      60.409 167.763  36.230  0.00  0.00    -0.002 C 
ATOM      7 CL   UNL     1      60.587 169.519  39.833  0.00  0.00    -0.081 Cl
ATOM      8 CL   UNL     1      61.175 166.591  40.406  0.00  0.00    -0.082 Cl
ENDROOT
BRANCH   2   9
ATOM      9  C   UNL     1      61.094 164.585  38.042  0.00  0.00    +0.023 C 
ATOM     10  C   UNL     1      62.141 164.120  38.933  0.00  0.00    +0.004 C 
ATOM     11  C   UNL     1      61.900 163.562  40.277  0.00  0.00    +0.000 C 
ATOM     12  C   UNL     1      62.324 162.082  40.362  0.00  0.00    +0.001 C 
ATOM     13  C   UNL     1      61.303 161.272  41.136  0.00  0.00    +0.012 C 
ATOM     14  C   UNL     1      61.958 160.761  42.371  0.00  0.00    +0.057 C 
ATOM     15  C   UNL     1      61.451 159.473  42.907  0.00  0.00    +0.120 C 
ATOM     16  O   UNL     1      62.400 158.745  42.237  0.00  0.00    -0.356 OA
ATOM     17  C   UNL     1      63.170 159.899  42.117  0.00  0.00    +0.142 C 
ATOM     18  C   UNL     1      60.053 159.142  42.426  0.00  0.00    +0.030 C 
ATOM     19  C   UNL     1      59.980 159.126  40.917  0.00  0.00    +0.010 C 
ATOM     20  C   UNL     1      60.671 160.269  40.253  0.00  0.00    +0.058 C 
ATOM     21  C   UNL     1      59.692 160.908  39.339  0.00  0.00    +0.150 C 
ATOM     22  O   UNL     1      59.638 160.249  38.291  0.00  0.00    -0.296 OA
ATOM     23  C   UNL     1      58.766 162.112  39.345  0.00  0.00    +0.064 C 
ATOM     24  C   UNL     1      59.668 163.254  39.601  0.00  0.00    +0.008 C 
ATOM     25  C   UNL     1      59.771 164.002  38.519  0.00  0.00    +0.005 C 
ATOM     26  C   UNL     1      60.467 163.669  40.784  0.00  0.00    +0.000 C 
ENDBRANCH   2   9
BRANCH   1  27
ATOM     27  C   UNL     1      60.726 165.526  35.308  0.00  0.00    +0.151 C 
BRANCH  27  28
ATOM     28  C   UNL     1      59.373 165.172  34.820  0.00  0.00    +0.173 C 
ATOM     29  O   UNL     1      58.604 165.895  34.245  0.00  0.00    -0.294 OA
ATOM     30  C   UNL     1      58.892 163.756  35.058  0.00  0.00    +0.074 C 
ENDBRANCH  27  28
BRANCH  27  31
ATOM     31  N   UNL     1      61.618 165.982  34.292  0.00  0.00    -0.307 N 
ATOM     32  H   UNL     1      61.188 166.428  33.527  0.00  0.00    +0.149 HD
BRANCH  31  34
ATOM     33  S   UNL     1      63.995 166.248  35.434  0.00  0.00    -0.017 S 
ATOM     34  C   UNL     1      63.010 165.891  34.219  0.00  0.00    +0.151 C 
BRANCH  34  35
ATOM     35  N   UNL     1      63.604 165.473  32.967  0.00  0.00    -0.218 N 
ATOM     36  H   UNL     1      63.142 165.654  32.116  0.00  0.00    +0.176 HD
BRANCH  35  37
ATOM     37  N   UNL     1      64.820 164.822  32.970  0.00  0.00    -0.177 NA
ATOM     38  C   UNL     1      65.586 164.756  31.941  0.00  0.00    +0.140 C 
ENDBRANCH  35  37
ENDBRANCH  34  35
ENDBRANCH  31  34
ENDBRANCH  27  31
ENDBRANCH   1  27
TORSDOF 7
ENDMDL
