REMARK  Name = =
REMARK  7 active torsions:
REMARK  status: ('A' for Active; 'I' for Inactive)
REMARK    1  A    between atoms: S_1  and  S_2
REMARK    2  A    between atoms: S_1  and  S_7
REMARK    3  A    between atoms: S_2  and  S_3
REMARK    4  A    between atoms: S_3  and  C_4
REMARK    5  A    between atoms: C_4  and  O_6
REMARK    6  A    between atoms: S_7  and  C_8
REMARK    7  A    between atoms: C_8  and  O_10
REMARK                            x       y       z     vdW  Elec       q    Type
REMARK                         _______ _______ _______ _____ _____    ______ ____
ROOT
ATOM      1  S   UNL     1     -13.803 -43.626  27.820  0.00  0.00    -0.004 S 
ENDROOT
BRANCH   1   2
ATOM      2  S   UNL     1     -14.355 -41.893  26.710  0.00  0.00    -0.004 S 
BRANCH   2   3
ATOM      3  S   UNL     1     -15.132 -42.401  24.810  0.00  0.00    +0.000 S 
BRANCH   3   4
ATOM      4  C   UNL     1     -16.848 -42.006  24.639  0.00  0.00    +0.209 C 
ATOM      5  S   UNL     1     -17.510 -42.131  23.151  0.00  0.00    -0.003 S 
BRANCH   4   6
ATOM      6  O   UNL     1     -17.671 -41.597  25.675  0.00  0.00    -0.495 OA
ATOM      7  H   UNL     1     -17.326 -41.514  26.542  0.00  0.00    +0.293 HD
ENDBRANCH   4   6
ENDBRANCH   3   4
ENDBRANCH   2   3
ENDBRANCH   1   2
BRANCH   1   8
ATOM      8  S   UNL     1     -11.749 -43.437  28.325  0.00  0.00    +0.000 S 
BRANCH   8   9
ATOM      9  C   UNL     1     -11.631 -43.068  30.049  0.00  0.00    +0.209 C 
ATOM     10  S   UNL     1     -10.176 -42.909  30.744  0.00  0.00    -0.003 S 
BRANCH   9  11
ATOM     11  O   UNL     1     -12.759 -42.913  30.811  0.00  0.00    -0.495 OA
ATOM     12  H   UNL     1     -13.605 -43.003  30.419  0.00  0.00    +0.293 HD
ENDBRANCH   9  11
ENDBRANCH   8   9
ENDBRANCH   1   8
TORSDOF 7
