REMARK  Name = =
REMARK  13 active torsions:
REMARK  status: ('A' for Active; 'I' for Inactive)
REMARK    1  A    between atoms: C_1  and  S_3
REMARK    2  A    between atoms: C_1  and  O_13
REMARK    3  A    between atoms: S_3  and  S_4
REMARK    4  A    between atoms: S_4  and  S_5
REMARK    5  A    between atoms: S_4  and  S_8
REMARK    6  A    between atoms: S_8  and  S_9
REMARK    7  A    between atoms: S_9  and  C_10
REMARK    8  A    between atoms: C_10  and  O_12
REMARK    9  A    between atoms: O_13  and  O_14
REMARK   10  A    between atoms: O_14  and  C_15
REMARK   11  A    between atoms: C_17  and  O_24
REMARK   12  A    between atoms: C_19  and  O_23
REMARK   13  A    between atoms: C_20  and  C_21
REMARK                            x       y       z     vdW  Elec       q    Type
REMARK                         _______ _______ _______ _____ _____    ______ ____
ROOT
ATOM      1  C   UNL     1     -10.378 -43.993  29.430  0.00  0.00    +0.268 C 
ATOM      2  S   UNL     1     -10.002 -45.204  28.402  0.00  0.00    +0.002 S 
ENDROOT
BRANCH   1   3
ATOM      3  S   UNL     1      -9.853 -43.958  31.025  0.00  0.00    +0.001 S 
BRANCH   3   4
ATOM      4  S   UNL     1     -10.145 -43.259  32.223  0.00  0.00    -0.019 S 
ATOM      5  H   UNL     1     -10.540 -44.188  33.134  0.00  0.00    +0.127 HD
BRANCH   4   6
ATOM      6  S   UNL     1     -11.544 -42.204  32.358  0.00  0.00    +0.007 S 
ATOM      7  O   UNL     1     -12.819 -42.961  32.314  0.00  0.00    -0.166 OA
ATOM      8  O   UNL     1     -11.666 -41.385  33.535  0.00  0.00    -0.166 OA
ATOM      9  H   UNL     1     -11.322 -41.391  31.290  0.00  0.00    +0.223 HD
ENDBRANCH   4   6
BRANCH   4  10
ATOM     10  S   UNL     1      -8.823 -42.479  32.492  0.00  0.00    -0.008 S 
BRANCH  10  11
ATOM     11  S   UNL     1      -7.886 -42.046  34.167  0.00  0.00    -0.000 S 
BRANCH  11  12
ATOM     12  C   UNL     1      -8.752 -40.995  35.347  0.00  0.00    +0.209 C 
ATOM     13  S   UNL     1      -8.028 -40.401  36.657  0.00  0.00    -0.003 S 
BRANCH  12  14
ATOM     14  O   UNL     1     -10.083 -40.702  35.103  0.00  0.00    -0.495 OA
ATOM     15  H   UNL     1     -10.507 -41.046  34.341  0.00  0.00    +0.293 HD
ENDBRANCH  12  14
ENDBRANCH  11  12
ENDBRANCH  10  11
ENDBRANCH   4  10
ENDBRANCH   3   4
ENDBRANCH   1   3
BRANCH   1  16
ATOM     16  O   UNL     1     -11.181 -42.970  28.885  0.00  0.00    -0.272 OA
BRANCH  16  17
ATOM     17  O   UNL     1     -11.747 -42.980  27.724  0.00  0.00    -0.285 OA
BRANCH  17  18
ATOM     18  C   UNL     1     -12.958 -42.847  27.170  0.00  0.00    +0.205 C 
ATOM     19  C   UNL     1     -12.967 -42.497  25.799  0.00  0.00    +0.079 C 
ATOM     20  C   UNL     1     -14.169 -42.346  25.170  0.00  0.00    +0.140 C 
ATOM     21  C   UNL     1     -15.353 -42.525  25.830  0.00  0.00    +0.073 C 
ATOM     22  C   UNL     1     -15.371 -42.876  27.201  0.00  0.00    +0.143 C 
ATOM     23  C   UNL     1     -14.163 -43.029  27.839  0.00  0.00    +0.115 C 
BRANCH  23  24
ATOM     24  C   UNL     1     -14.094 -43.384  29.228  0.00  0.00    +0.240 C 
ATOM     25  O   UNL     1     -15.093 -43.641  29.933  0.00  0.00    -0.283 OA
ENDBRANCH  23  24
BRANCH  22  26
ATOM     26  O   UNL     1     -16.585 -43.038  27.794  0.00  0.00    -0.505 OA
ATOM     27  H   UNL     1     -17.369 -42.917  27.296  0.00  0.00    +0.292 HD
ENDBRANCH  22  26
BRANCH  20  28
ATOM     28  O   UNL     1     -14.215 -42.002  23.825  0.00  0.00    -0.505 OA
ATOM     29  H   UNL     1     -13.420 -41.873  23.347  0.00  0.00    +0.292 HD
ENDBRANCH  20  28
ENDBRANCH  17  18
ENDBRANCH  16  17
ENDBRANCH   1  16
TORSDOF 13
