MODEL 1
REMARK VINA RESULT:    -7.801      0.000      0.000
REMARK INTER + INTRA:         -10.529
REMARK INTER:                 -10.082
REMARK INTRA:                  -0.447
REMARK UNBOUND:                -0.447
REMARK  Name = =
REMARK  5 active torsions:
REMARK  status: ('A' for Active; 'I' for Inactive)
REMARK    1  A    between atoms: C_1  and  C_8
REMARK    2  A    between atoms: C_1  and  N_17
REMARK    3  A    between atoms: C_6  and  C_11
REMARK    4  A    between atoms: N_18  and  N_19
REMARK    5  A    between atoms: N_19  and  N_20
REMARK                            x       y       z     vdW  Elec       q    Type
REMARK                         _______ _______ _______ _____ _____    ______ ____
ROOT
ATOM      1  C   UNL     1      48.363 162.473  42.080  0.00  0.00    +0.130 C 
ATOM      2  C   UNL     1      48.593 162.343  40.605  0.00  0.00    +0.026 C 
ATOM      3  C   UNL     1      47.600 163.248  39.923  0.00  0.00    +0.002 C 
ATOM      4  C   UNL     1      46.561 163.634  40.916  0.00  0.00    +0.002 C 
ATOM      5  C   UNL     1      47.030 163.146  42.239  0.00  0.00    +0.026 C 
ENDROOT
BRANCH   1   8
ATOM      6  C   UNL     1      50.686 164.623  41.555  0.00  0.00    +0.242 C 
ATOM      7  N   UNL     1      50.621 163.431  42.053  0.00  0.00    -0.233 NA
ATOM      8  C   UNL     1      49.407 163.311  42.775  0.00  0.00    +0.172 C 
ATOM      9  C   UNL     1      48.975 164.710  43.034  0.00  0.00    +0.233 C 
ATOM     10  O   UNL     1      49.560 165.370  41.895  0.00  0.00    -0.457 OA
BRANCH   6  11
ATOM     11  C   UNL     1      51.790 165.151  40.736  0.00  0.00    +0.175 C 
ATOM     12  C   UNL     1      51.854 166.499  40.521  0.00  0.00    +0.126 C 
ATOM     13  N   UNL     1      52.878 166.982  39.762  0.00  0.00    -0.219 NA
ATOM     14  C   UNL     1      53.793 166.152  39.245  0.00  0.00    +0.222 C 
ATOM     15  N   UNL     1      53.690 164.839  39.482  0.00  0.00    -0.125 NA
ATOM     16  N   UNL     1      52.718 164.322  40.210  0.00  0.00    -0.140 NA
ENDBRANCH   6  11
ENDBRANCH   1   8
BRANCH   1  17
ATOM     17  N   UNL     1      48.306 161.198  42.755  0.00  0.00    -0.160 NA
ATOM     18  N   UNL     1      48.763 160.122  42.288  0.00  0.00    -0.067 NA
BRANCH  18  19
ATOM     19  N   UNL     1      48.699 158.897  42.954  0.00  0.00    -0.159 N 
ATOM     20  H   UNL     1      48.025 158.787  43.664  0.00  0.00    +0.195 HD
BRANCH  19  21
ATOM     21  N   UNL     1      49.533 157.825  42.672  0.00  0.00    -0.160 N 
ATOM     22  C   UNL     1      49.355 156.524  42.958  0.00  0.00    +0.211 C 
ATOM     23  N   UNL     1      50.396 155.792  42.517  0.00  0.00    -0.127 NA
ATOM     24  N   UNL     1      51.234 156.649  41.950  0.00  0.00    -0.127 NA
ATOM     25  C   UNL     1      50.724 157.891  42.036  0.00  0.00    +0.211 C 
ENDBRANCH  19  21
ENDBRANCH  18  19
ENDBRANCH   1  17
TORSDOF 5
ENDMDL
