MODEL 1
REMARK VINA RESULT:    -6.240      0.000      0.000
REMARK INTER + INTRA:         -10.647
REMARK INTER:                  -9.341
REMARK INTRA:                  -1.307
REMARK UNBOUND:                -1.307
REMARK  Name = =
REMARK  10 active torsions:
REMARK  status: ('A' for Active; 'I' for Inactive)
REMARK    1  A    between atoms: P_1  and  C_12
REMARK    2  A    between atoms: P_1  and  N_22
REMARK    3  A    between atoms: C_13  and  N_17
REMARK    4  A    between atoms: N_22  and  O_27
REMARK    5  A    between atoms: C_23  and  C_25
REMARK    6  A    between atoms: O_27  and  C_28
REMARK    7  A    between atoms: C_28  and  C_30
REMARK    8  A    between atoms: C_32  and  O_38
REMARK    9  A    between atoms: C_33  and  O_37
REMARK   10  A    between atoms: C_34  and  O_36
REMARK                            x       y       z     vdW  Elec       q    Type
REMARK                         _______ _______ _______ _____ _____    ______ ____
ROOT
ATOM      1  P   UNL     1      60.608 163.355  39.208  0.00  0.00    +0.347 P 
ATOM      2  O   UNL     1      59.203 163.920  39.016  0.00  0.00    -0.141 OA
ATOM      3  O   UNL     1      61.848 164.348  39.039  0.00  0.00    -0.293 OA
ATOM      4  C   UNL     1      62.963 164.074  39.716  0.00  0.00    +0.156 C 
ATOM      5  C   UNL     1      62.744 164.020  41.225  0.00  0.00    +0.173 C 
ATOM      6  O   UNL     1      63.639 164.892  41.800  0.00  0.00    -0.351 OA
ATOM      7  C   UNL     1      64.753 164.945  40.932  0.00  0.00    +0.145 C 
ATOM      8  C   UNL     1      64.006 165.154  39.609  0.00  0.00    +0.065 C 
ATOM      9  C   UNL     1      61.287 164.392  41.451  0.00  0.00    +0.183 C 
ATOM     10  O   UNL     1      60.416 163.839  40.623  0.00  0.00    -0.290 OA
ENDROOT
BRANCH   1  12
ATOM     11  O   UNL     1      59.807 161.925  37.169  0.00  0.00    -0.438 OA
ATOM     12  C   UNL     1      60.594 163.058  37.563  0.00  0.00    +0.284 C 
ATOM     13  C   UNL     1      60.075 164.193  36.707  0.00  0.00    +0.121 C 
ATOM     14  C   UNL     1      59.529 163.507  35.500  0.00  0.00    +0.130 C 
ATOM     15  C   UNL     1      59.065 162.228  36.040  0.00  0.00    +0.319 C 
ATOM     16  O   UNL     1      58.151 161.497  35.579  0.00  0.00    -0.250 OA
BRANCH  13  17
ATOM     17  N   UNL     1      61.034 165.207  36.451  0.00  0.00    -0.270 NA
ATOM     18  C   UNL     1      61.659 165.200  35.169  0.00  0.00    +0.072 C 
ATOM     19  C   UNL     1      61.142 166.384  34.381  0.00  0.00    +0.019 C 
ATOM     20  C   UNL     1      60.089 167.022  35.239  0.00  0.00    +0.019 C 
ATOM     21  C   UNL     1      60.391 166.493  36.619  0.00  0.00    +0.072 C 
ENDBRANCH  13  17
ENDBRANCH   1  12
BRANCH   1  22
ATOM     22  N   UNL     1      60.653 161.715  39.606  0.00  0.00    -0.041 N 
ATOM     23  C   UNL     1      61.656 160.730  39.478  0.00  0.00    +0.289 C 
ATOM     24  O   UNL     1      61.429 159.533  39.957  0.00  0.00    -0.266 OA
BRANCH  23  25
ATOM     25  C   UNL     1      62.955 160.812  38.878  0.00  0.00    +0.061 C 
ATOM     26  C   UNL     1      64.068 160.519  39.484  0.00  0.00    +0.005 C 
ENDBRANCH  23  25
BRANCH  22  27
ATOM     27  O   UNL     1      59.449 161.224  40.060  0.00  0.00    -0.331 OA
BRANCH  27  28
ATOM     28  C   UNL     1      58.922 161.157  41.291  0.00  0.00    +0.364 C 
ATOM     29  O   UNL     1      59.685 161.100  42.277  0.00  0.00    -0.243 OA
BRANCH  28  30
ATOM     30  C   UNL     1      57.452 161.151  41.468  0.00  0.00    +0.084 C 
ATOM     31  C   UNL     1      56.779 162.327  41.287  0.00  0.00    +0.046 C 
ATOM     32  C   UNL     1      55.390 162.333  41.446  0.00  0.00    +0.171 C 
ATOM     33  C   UNL     1      54.733 161.144  41.784  0.00  0.00    +0.202 C 
ATOM     34  C   UNL     1      55.430 159.972  41.961  0.00  0.00    +0.171 C 
ATOM     35  C   UNL     1      56.821 159.975  41.799  0.00  0.00    +0.046 C 
BRANCH  34  36
ATOM     36  O   UNL     1      54.732 158.833  42.294  0.00  0.00    -0.503 OA
ATOM     37  H   UNL     1      54.262 158.791  43.104  0.00  0.00    +0.292 HD
ENDBRANCH  34  36
BRANCH  33  38
ATOM     38  O   UNL     1      53.367 161.178  41.933  0.00  0.00    -0.501 OA
ATOM     39  H   UNL     1      52.983 161.687  42.619  0.00  0.00    +0.292 HD
ENDBRANCH  33  38
BRANCH  32  40
ATOM     40  O   UNL     1      54.727 163.530  41.260  0.00  0.00    -0.503 OA
ATOM     41  H   UNL     1      53.957 163.722  41.757  0.00  0.00    +0.292 HD
ENDBRANCH  32  40
ENDBRANCH  28  30
ENDBRANCH  27  28
ENDBRANCH  22  27
ENDBRANCH   1  22
TORSDOF 10
ENDMDL
