REMARK  Name = =
REMARK  5 active torsions:
REMARK  status: ('A' for Active; 'I' for Inactive)
REMARK    1  A    between atoms: C_1  and  C_8
REMARK    2  A    between atoms: C_1  and  N_17
REMARK    3  A    between atoms: C_6  and  C_11
REMARK    4  A    between atoms: N_18  and  N_19
REMARK    5  A    between atoms: N_19  and  N_20
REMARK                            x       y       z     vdW  Elec       q    Type
REMARK                         _______ _______ _______ _____ _____    ______ ____
ROOT
ATOM      1  C   UNL     1      51.516 156.315  29.424  0.00  0.00    +0.130 C 
ATOM      2  C   UNL     1      51.433 155.285  30.509  0.00  0.00    +0.026 C 
ATOM      3  C   UNL     1      50.650 154.123  29.955  0.00  0.00    +0.002 C 
ATOM      4  C   UNL     1      49.965 154.572  28.712  0.00  0.00    +0.002 C 
ATOM      5  C   UNL     1      50.493 155.925  28.396  0.00  0.00    +0.026 C 
ENDROOT
BRANCH   1   8
ATOM      6  C   UNL     1      53.174 155.219  26.906  0.00  0.00    +0.242 C 
ATOM      7  N   UNL     1      53.280 155.138  28.192  0.00  0.00    -0.233 NA
ATOM      8  C   UNL     1      52.867 156.371  28.756  0.00  0.00    +0.172 C 
ATOM      9  C   UNL     1      52.940 157.348  27.637  0.00  0.00    +0.233 C 
ATOM     10  O   UNL     1      52.700 156.471  26.520  0.00  0.00    -0.457 OA
BRANCH   6  11
ATOM     11  C   UNL     1      53.505 154.149  25.950  0.00  0.00    +0.175 C 
ATOM     12  C   UNL     1      54.140 154.488  24.788  0.00  0.00    +0.126 C 
ATOM     13  N   UNL     1      54.444 153.494  23.906  0.00  0.00    -0.219 NA
ATOM     14  C   UNL     1      54.125 152.222  24.178  0.00  0.00    +0.222 C 
ATOM     15  N   UNL     1      53.503 151.937  25.328  0.00  0.00    -0.125 NA
ATOM     16  N   UNL     1      53.188 152.863  26.214  0.00  0.00    -0.140 NA
ENDBRANCH   6  11
ENDBRANCH   1   8
BRANCH   1  17
ATOM     17  N   UNL     1      51.202 157.646  29.887  0.00  0.00    -0.160 NA
ATOM     18  N   UNL     1      51.660 158.704  29.382  0.00  0.00    -0.067 NA
BRANCH  18  19
ATOM     19  N   UNL     1      51.346 159.984  29.842  0.00  0.00    -0.159 N 
ATOM     20  H   UNL     1      51.849 160.747  29.475  0.00  0.00    +0.195 HD
BRANCH  19  21
ATOM     21  N   UNL     1      50.365 160.241  30.788  0.00  0.00    -0.160 N 
ATOM     22  C   UNL     1      49.048 159.980  30.725  0.00  0.00    +0.211 C 
ATOM     23  N   UNL     1      48.428 160.383  31.851  0.00  0.00    -0.127 NA
ATOM     24  N   UNL     1      49.371 160.903  32.624  0.00  0.00    -0.127 NA
ATOM     25  C   UNL     1      50.556 160.825  31.992  0.00  0.00    +0.211 C 
ENDBRANCH  19  21
ENDBRANCH  18  19
ENDBRANCH   1  17
TORSDOF 5
