REMARK  Name = =
REMARK  12 active torsions:
REMARK  status: ('A' for Active; 'I' for Inactive)
REMARK    1  A    between atoms: N_1  and  C_5
REMARK    2  A    between atoms: N_1  and  O_37
REMARK    3  A    between atoms: N_4  and  N_23
REMARK    4  A    between atoms: C_5  and  C_12
REMARK    5  A    between atoms: C_12  and  C_19
REMARK    6  A    between atoms: C_19  and  C_22
REMARK    7  A    between atoms: C_24  and  S_30
REMARK    8  A    between atoms: S_30  and  P_31
REMARK    9  A    between atoms: P_31  and  S_32
REMARK   10  A    between atoms: S_32  and  P_33
REMARK   11  A    between atoms: P_33  and  O_35
REMARK   12  A    between atoms: P_33  and  O_36
REMARK                            x       y       z     vdW  Elec       q    Type
REMARK                         _______ _______ _______ _____ _____    ______ ____
ROOT
ATOM      1  N   UNL     1      50.013 159.558  30.185  0.00  0.00    -0.122 N 
ATOM      2  C   UNL     1      50.298 158.177  30.044  0.00  0.00    +0.345 C 
ATOM      3  O   UNL     1      49.902 157.256  30.781  0.00  0.00    -0.249 OA
ATOM      4  N   UNL     1      51.133 157.723  28.946  0.00  0.00    -0.212 N 
ATOM      5  H   UNL     1      51.495 158.376  28.305  0.00  0.00    +0.175 HD
ENDROOT
BRANCH   1   6
ATOM      6  C   UNL     1      49.191 160.110  31.280  0.00  0.00    +0.226 C 
ATOM      7  O   UNL     1      48.112 160.702  30.582  0.00  0.00    -0.436 OA
ATOM      8  C   UNL     1      46.813 160.266  30.508  0.00  0.00    +0.318 C 
ATOM      9  O   UNL     1      45.998 160.676  29.620  0.00  0.00    -0.250 OA
ATOM     10  C   UNL     1      46.318 159.276  31.498  0.00  0.00    +0.110 C 
ATOM     11  C   UNL     1      47.278 159.395  32.695  0.00  0.00    +0.017 C 
ATOM     12  C   UNL     1      48.635 158.991  32.097  0.00  0.00    +0.063 C 
BRANCH   6  13
ATOM     13  C   UNL     1      49.967 161.083  32.104  0.00  0.00    +0.080 C 
ATOM     14  C   UNL     1      49.501 162.498  32.097  0.00  0.00    +0.010 C 
ATOM     15  C   UNL     1      49.664 163.066  33.503  0.00  0.00    +0.001 C 
ATOM     16  C   UNL     1      50.706 162.078  34.067  0.00  0.00    +0.001 C 
ATOM     17  C   UNL     1      49.967 160.806  33.594  0.00  0.00    +0.009 C 
ATOM     18  C   UNL     1      48.672 161.072  34.291  0.00  0.00    +0.001 C 
ATOM     19  C   UNL     1      48.462 162.594  34.294  0.00  0.00    +0.000 C 
BRANCH  13  20
ATOM     20  C   UNL     1      51.388 161.089  31.641  0.00  0.00    +0.051 C 
ATOM     21  C   UNL     1      52.054 159.953  31.455  0.00  0.00    +0.006 C 
BRANCH  20  23
ATOM     22  N   UNL     1      52.640 163.316  31.140  0.00  0.00    -0.191 NA
ATOM     23  C   UNL     1      52.078 162.302  31.358  0.00  0.00    +0.096 C 
ENDBRANCH  20  23
ENDBRANCH  13  20
ENDBRANCH   6  13
ENDBRANCH   1   6
BRANCH   4  24
ATOM     24  N   UNL     1      51.424 156.372  28.794  0.00  0.00    -0.196 N 
ATOM     25  C   UNL     1      52.752 155.918  28.483  0.00  0.00    +0.139 C 
ATOM     26  C   UNL     1      52.875 154.537  27.983  0.00  0.00    +0.058 C 
ATOM     27  C   UNL     1      51.777 153.575  28.051  0.00  0.00    -0.019 C 
ATOM     28  C   UNL     1      50.462 154.032  28.475  0.00  0.00    +0.055 C 
ATOM     29  C   UNL     1      50.393 155.419  28.945  0.00  0.00    +0.265 C 
ATOM     30  O   UNL     1      49.314 155.769  29.528  0.00  0.00    -0.268 OA
BRANCH  25  31
ATOM     31  S   UNL     1      53.406 157.034  27.194  0.00  0.00    -0.156 S 
ATOM     32  H   UNL     1      54.674 157.401  27.522  0.00  0.00    +0.099 HD
BRANCH  31  33
ATOM     33  P   UNL     1      53.425 156.156  25.487  0.00  0.00    +0.046 P 
BRANCH  33  34
ATOM     34  S   UNL     1      52.767 154.144  25.152  0.00  0.00    -0.076 S 
ATOM     35  H   UNL     1      51.886 154.094  24.117  0.00  0.00    +0.108 HD
BRANCH  34  36
ATOM     36  P   UNL     1      54.378 153.162  24.724  0.00  0.00    +0.379 P 
ATOM     37  O   UNL     1      55.038 154.050  23.672  0.00  0.00    -0.247 OA
BRANCH  36  38
ATOM     38  O   UNL     1      53.966 151.714  23.964  0.00  0.00    -0.317 OA
ATOM     39  H   UNL     1      53.542 151.122  24.605  0.00  0.00    +0.221 HD
ENDBRANCH  36  38
BRANCH  36  40
ATOM     40  O   UNL     1      55.332 152.957  26.082  0.00  0.00    -0.317 OA
ATOM     41  H   UNL     1      55.532 153.823  26.470  0.00  0.00    +0.221 HD
ENDBRANCH  36  40
ENDBRANCH  34  36
ENDBRANCH  33  34
ENDBRANCH  31  33
ENDBRANCH  25  31
ENDBRANCH   4  24
BRANCH   1  42
ATOM     42  O   UNL     1      50.472 160.397  29.257  0.00  0.00    -0.288 OA
ATOM     43  H   UNL     1      50.992 159.903  28.604  0.00  0.00    +0.242 HD
ENDBRANCH   1  42
TORSDOF 12
