MODEL 1
REMARK VINA RESULT:   -10.007      0.000      0.000
REMARK INTER + INTRA:         -14.327
REMARK INTER:                 -12.932
REMARK INTRA:                  -1.395
REMARK UNBOUND:                -1.395
REMARK  Name = =
REMARK  5 active torsions:
REMARK  status: ('A' for Active; 'I' for Inactive)
REMARK    1  A    between atoms: C_1  and  C_8
REMARK    2  A    between atoms: C_1  and  C_26
REMARK    3  A    between atoms: C_26  and  N_33
REMARK    4  A    between atoms: N_33  and  C_34
REMARK    5  A    between atoms: C_34  and  C_46
REMARK                            x       y       z     vdW  Elec       q    Type
REMARK                         _______ _______ _______ _____ _____    ______ ____
ROOT
ATOM      1  C   UNL     1     -23.863 -42.123  21.799  0.00  0.00    +0.052 C 
ATOM      2  C   UNL     1     -24.504 -40.819  21.455  0.00  0.00    +0.018 C 
ATOM      3  C   UNL     1     -23.781 -40.214  20.237  0.00  0.00    +0.070 C 
ATOM      4  C   UNL     1     -24.194 -41.074  19.100  0.00  0.00    +0.173 C 
ATOM      5  O   UNL     1     -24.631 -40.602  18.033  0.00  0.00    -0.291 OA
ATOM      6  C   UNL     1     -24.052 -42.502  19.325  0.00  0.00    +0.033 C 
ATOM      7  C   UNL     1     -23.905 -42.928  20.560  0.00  0.00    -0.018 C 
ENDROOT
BRANCH   1   8
ATOM      8  C   UNL     1     -22.402 -41.915  22.077  0.00  0.00    -0.018 C 
ATOM      9  C   UNL     1     -22.003 -41.223  23.228  0.00  0.00    -0.008 C 
ATOM     10  C   UNL     1     -20.679 -40.998  23.501  0.00  0.00    -0.022 C 
ATOM     11  C   UNL     1     -19.683 -41.445  22.653  0.00  0.00    -0.021 C 
ATOM     12  C   UNL     1     -20.045 -42.126  21.516  0.00  0.00    -0.005 C 
ATOM     13  C   UNL     1     -21.399 -42.353  21.243  0.00  0.00    -0.004 C 
ATOM     14  C   UNL     1     -18.238 -41.183  23.007  0.00  0.00    +0.052 C 
ATOM     15  C   UNL     1     -18.147 -41.409  24.509  0.00  0.00    -0.026 C 
ATOM     16  C   UNL     1     -19.105 -40.980  25.314  0.00  0.00    -0.022 C 
ATOM     17  C   UNL     1     -19.057 -41.178  26.759  0.00  0.00    -0.005 C 
ATOM     18  C   UNL     1     -18.030 -41.800  27.282  0.00  0.00    -0.005 C 
ATOM     19  C   UNL     1     -16.927 -42.309  26.477  0.00  0.00    -0.026 C 
ATOM     20  C   UNL     1     -16.992 -42.117  25.053  0.00  0.00    -0.030 C 
ATOM     21  C   UNL     1     -15.720 -41.985  24.305  0.00  0.00    +0.026 C 
ATOM     22  C   UNL     1     -14.554 -42.626  25.069  0.00  0.00    +0.005 C 
ATOM     23  C   UNL     1     -14.439 -41.868  26.353  0.00  0.00    +0.005 C 
ATOM     24  C   UNL     1     -15.644 -42.104  27.192  0.00  0.00    +0.026 C 
ATOM     25  C   UNL     1     -20.268 -40.269  24.709  0.00  0.00    +0.052 C 
ENDBRANCH   1   8
BRANCH   1  26
ATOM     26  C   UNL     1     -24.505 -42.860  22.966  0.00  0.00    +0.079 C 
ATOM     27  C   UNL     1     -25.854 -43.323  22.915  0.00  0.00    +0.073 C 
ATOM     28  N   UNL     1     -26.288 -42.602  24.141  0.00  0.00    -0.272 NA
ATOM     29  C   UNL     1     -27.575 -43.175  24.316  0.00  0.00    +0.072 C 
ATOM     30  C   UNL     1     -28.110 -43.467  23.124  0.00  0.00    +0.019 C 
ATOM     31  C   UNL     1     -27.024 -43.014  22.138  0.00  0.00    +0.019 C 
ATOM     32  C   UNL     1     -25.000 -41.950  24.063  0.00  0.00    +0.089 C 
BRANCH  26  33
ATOM     33  N   UNL     1     -23.603 -43.853  23.417  0.00  0.00    -0.267 NA
ATOM     34  H   UNL     1     -22.920 -43.345  23.979  0.00  0.00    +0.126 HD
BRANCH  33  35
ATOM     35  C   UNL     1     -23.890 -44.990  24.154  0.00  0.00    +0.227 C 
ATOM     36  O   UNL     1     -25.005 -45.705  23.715  0.00  0.00    -0.325 OA
ATOM     37  C   UNL     1     -24.878 -46.427  22.572  0.00  0.00    +0.213 C 
ATOM     38  C   UNL     1     -23.500 -46.505  22.021  0.00  0.00    +0.203 C 
ATOM     39  O   UNL     1     -23.238 -46.508  20.803  0.00  0.00    -0.289 OA
ATOM     40  C   UNL     1     -22.456 -46.580  23.041  0.00  0.00    +0.040 C 
ATOM     41  C   UNL     1     -22.637 -45.837  24.101  0.00  0.00    +0.028 C 
BRANCH  35  47
ATOM     42  N   UNL     1     -23.154 -44.074  26.383  0.00  0.00    -0.276 N 
ATOM     43  C   UNL     1     -21.893 -43.440  26.077  0.00  0.00    +0.094 C 
ATOM     44  C   UNL     1     -20.993 -44.152  27.103  0.00  0.00    +0.023 C 
ATOM     45  C   UNL     1     -21.921 -44.374  28.304  0.00  0.00    +0.023 C 
ATOM     46  C   UNL     1     -23.270 -43.827  27.850  0.00  0.00    +0.094 C 
ATOM     47  C   UNL     1     -24.085 -44.763  25.597  0.00  0.00    +0.269 C 
ATOM     48  O   UNL     1     -25.115 -45.193  26.164  0.00  0.00    -0.270 OA
ENDBRANCH  35  47
ENDBRANCH  33  35
ENDBRANCH  26  33
ENDBRANCH   1  26
TORSDOF 5
ENDMDL
