REMARK  Name = =
REMARK  1 active torsions:
REMARK  status: ('A' for Active; 'I' for Inactive)
REMARK    1  A    between atoms: C_9  and  O_11
REMARK                            x       y       z     vdW  Elec       q    Type
REMARK                         _______ _______ _______ _____ _____    ______ ____
ROOT
ATOM      1  C   UNL     1      -5.147  -4.148  32.074  0.00  0.00    +0.003 C 
ATOM      2  C   UNL     1      -5.592  -2.846  32.009  0.00  0.00    +0.021 C 
ATOM      3  C   UNL     1      -4.766  -1.879  31.464  0.00  0.00    +0.082 C 
ATOM      4  N   UNL     1      -3.549  -2.214  31.005  0.00  0.00    -0.244 NA
ATOM      5  C   UNL     1      -3.095  -3.483  31.060  0.00  0.00    +0.099 C 
ATOM      6  C   UNL     1      -3.894  -4.463  31.596  0.00  0.00    +0.021 C 
ATOM      7  C   UNL     1      -5.230  -0.579  31.408  0.00  0.00    +0.022 C 
ATOM      8  C   UNL     1      -6.482  -0.222  31.877  0.00  0.00    +0.038 C 
ATOM      9  C   UNL     1      -7.265  -1.224  32.411  0.00  0.00    +0.134 C 
ATOM     10  C   UNL     1      -6.850  -2.537  32.490  0.00  0.00    +0.038 C 
ENDROOT
BRANCH   9  11
ATOM     11  O   UNL     1      -8.539  -0.878  32.891  0.00  0.00    -0.506 OA
ATOM     12  H   UNL     1      -8.832   0.011  32.843  0.00  0.00    +0.292 HD
ENDBRANCH   9  11
TORSDOF 1
