REMARK  Name = =
REMARK  5 active torsions:
REMARK  status: ('A' for Active; 'I' for Inactive)
REMARK    1  A    between atoms: O_1  and  C_10
REMARK    2  A    between atoms: O_1  and  O_12
REMARK    3  A    between atoms: O_12  and  C_13
REMARK    4  A    between atoms: C_14  and  O_20
REMARK    5  A    between atoms: C_17  and  O_19
REMARK                            x       y       z     vdW  Elec       q    Type
REMARK                         _______ _______ _______ _____ _____    ______ ____
ROOT
ATOM      1  O   UNL     1      -8.563  -1.055  32.789  0.00  0.00    -0.286 OA
ENDROOT
BRANCH   1  10
ATOM      2  C   UNL     1      -5.117  -4.447  32.751  0.00  0.00    +0.003 C 
ATOM      3  C   UNL     1      -5.590  -3.165  32.435  0.00  0.00    +0.021 C 
ATOM      4  C   UNL     1      -4.702  -2.353  31.763  0.00  0.00    +0.082 C 
ATOM      5  N   UNL     1      -3.452  -2.738  31.416  0.00  0.00    -0.244 NA
ATOM      6  C   UNL     1      -2.991  -3.962  31.714  0.00  0.00    +0.099 C 
ATOM      7  C   UNL     1      -3.840  -4.813  32.386  0.00  0.00    +0.021 C 
ATOM      8  C   UNL     1      -5.149  -1.078  31.440  0.00  0.00    +0.022 C 
ATOM      9  C   UNL     1      -6.416  -0.681  31.789  0.00  0.00    +0.044 C 
ATOM     10  C   UNL     1      -7.310  -1.492  32.464  0.00  0.00    +0.196 C 
ATOM     11  C   UNL     1      -6.862  -2.776  32.789  0.00  0.00    +0.044 C 
ENDBRANCH   1  10
BRANCH   1  12
ATOM     12  O   UNL     1      -9.737  -1.258  32.291  0.00  0.00    -0.283 OA
BRANCH  12  13
ATOM     13  C   UNL     1     -10.303  -1.387  31.073  0.00  0.00    +0.232 C 
ATOM     14  C   UNL     1     -11.677  -1.696  31.075  0.00  0.00    +0.173 C 
ATOM     15  C   UNL     1     -12.373  -1.854  29.912  0.00  0.00    +0.043 C 
ATOM     16  C   UNL     1     -11.754  -1.717  28.701  0.00  0.00    +0.040 C 
ATOM     17  C   UNL     1     -10.406  -1.413  28.666  0.00  0.00    +0.137 C 
ATOM     18  C   UNL     1      -9.718  -1.256  29.854  0.00  0.00    +0.082 C 
BRANCH  17  19
ATOM     19  O   UNL     1      -9.738  -1.264  27.444  0.00  0.00    -0.505 OA
ATOM     20  H   UNL     1     -10.205  -1.371  26.639  0.00  0.00    +0.292 HD
ENDBRANCH  17  19
BRANCH  14  21
ATOM     21  O   UNL     1     -12.376  -1.853  32.266  0.00  0.00    -0.503 OA
ATOM     22  H   UNL     1     -11.933  -1.752  33.086  0.00  0.00    +0.292 HD
ENDBRANCH  14  21
ENDBRANCH  12  13
ENDBRANCH   1  12
TORSDOF 5
