REMARK  Name = =
REMARK  7 active torsions:
REMARK  status: ('A' for Active; 'I' for Inactive)
REMARK    1  A    between atoms: C_1  and  S_11
REMARK    2  A    between atoms: C_9  and  O_15
REMARK    3  A    between atoms: S_11  and  N_14
REMARK    4  A    between atoms: O_15  and  O_16
REMARK    5  A    between atoms: O_16  and  C_17
REMARK    6  A    between atoms: C_18  and  O_24
REMARK    7  A    between atoms: C_21  and  O_23
REMARK                            x       y       z     vdW  Elec       q    Type
REMARK                         _______ _______ _______ _____ _____    ______ ____
ROOT
ATOM      1  C   UNL     1      -4.862  -1.432  20.819  0.00  0.00    +0.125 C 
ATOM      2  C   UNL     1      -6.250  -1.325  20.738  0.00  0.00    +0.039 C 
ATOM      3  C   UNL     1      -6.842  -0.545  19.764  0.00  0.00    +0.083 C 
ATOM      4  N   UNL     1      -6.094   0.126  18.877  0.00  0.00    -0.244 NA
ATOM      5  C   UNL     1      -4.754   0.040  18.933  0.00  0.00    +0.100 C 
ATOM      6  C   UNL     1      -4.115  -0.731  19.892  0.00  0.00    +0.041 C 
ATOM      7  C   UNL     1      -8.234  -0.479  19.737  0.00  0.00    +0.022 C 
ATOM      8  C   UNL     1      -9.022  -1.160  20.640  0.00  0.00    +0.044 C 
ATOM      9  C   UNL     1      -8.417  -1.938  21.610  0.00  0.00    +0.196 C 
ATOM     10  C   UNL     1      -7.037  -2.008  21.642  0.00  0.00    +0.045 C 
ENDROOT
BRANCH   1  11
ATOM     11  S   UNL     1      -4.131  -2.413  22.044  0.00  0.00    +0.057 S 
ATOM     12  O   UNL     1      -2.648  -2.214  22.136  0.00  0.00    -0.153 OA
ATOM     13  O   UNL     1      -4.715  -2.015  23.371  0.00  0.00    -0.153 OA
BRANCH  11  14
ATOM     14  N   UNL     1      -4.547  -4.062  21.779  0.00  0.00    -0.203 NA
ATOM     15  H   UNL     1      -4.166  -4.369  20.884  0.00  0.00    +0.144 HD
ATOM     16  H   UNL     1      -5.562  -4.159  21.768  0.00  0.00    +0.144 HD
ENDBRANCH  11  14
ENDBRANCH   1  11
BRANCH   9  17
ATOM     17  O   UNL     1      -9.140  -2.655  22.554  0.00  0.00    -0.286 OA
BRANCH  17  18
ATOM     18  O   UNL     1     -10.006  -2.170  23.408  0.00  0.00    -0.283 OA
BRANCH  18  19
ATOM     19  C   UNL     1      -9.764  -1.507  24.622  0.00  0.00    +0.232 C 
ATOM     20  C   UNL     1      -9.207  -0.261  24.713  0.00  0.00    +0.173 C 
ATOM     21  C   UNL     1      -8.989   0.353  25.962  0.00  0.00    +0.043 C 
ATOM     22  C   UNL     1      -9.346  -0.322  27.101  0.00  0.00    +0.040 C 
ATOM     23  C   UNL     1      -9.913  -1.587  27.011  0.00  0.00    +0.137 C 
ATOM     24  C   UNL     1     -10.118  -2.168  25.802  0.00  0.00    +0.082 C 
BRANCH  23  25
ATOM     25  O   UNL     1     -10.282  -2.284  28.171  0.00  0.00    -0.505 OA
ATOM     26  H   UNL     1     -10.147  -1.896  29.013  0.00  0.00    +0.292 HD
ENDBRANCH  23  25
BRANCH  20  27
ATOM     27  O   UNL     1      -8.831   0.454  23.584  0.00  0.00    -0.503 OA
ATOM     28  H   UNL     1      -8.957   0.085  22.732  0.00  0.00    +0.292 HD
ENDBRANCH  20  27
ENDBRANCH  18  19
ENDBRANCH  17  18
ENDBRANCH   9  17
TORSDOF 7
