REMARK  Name = =
REMARK  8 active torsions:
REMARK  status: ('A' for Active; 'I' for Inactive)
REMARK    1  A    between atoms: C_1  and  O_8
REMARK    2  A    between atoms: C_2  and  O_7
REMARK    3  A    between atoms: C_5  and  O_24
REMARK    4  A    between atoms: O_8  and  O_9
REMARK    5  A    between atoms: O_9  and  C_18
REMARK    6  A    between atoms: C_10  and  S_20
REMARK    7  A    between atoms: S_20  and  N_23
REMARK    8  A    between atoms: O_24  and  C_25
REMARK                            x       y       z     vdW  Elec       q    Type
REMARK                         _______ _______ _______ _____ _____    ______ ____
ROOT
ATOM      1  C   UNL     1     -10.934  -0.149  24.458  0.00  0.00    +0.232 C 
ATOM      2  C   UNL     1     -12.226   0.297  24.478  0.00  0.00    +0.173 C 
ATOM      3  C   UNL     1     -13.010  -0.033  25.551  0.00  0.00    +0.043 C 
ATOM      4  C   UNL     1     -12.557  -0.795  26.610  0.00  0.00    +0.041 C 
ATOM      5  C   UNL     1     -11.261  -1.235  26.574  0.00  0.00    +0.149 C 
ATOM      6  C   UNL     1     -10.440  -0.907  25.486  0.00  0.00    +0.083 C 
ENDROOT
BRANCH   2   7
ATOM      7  O   UNL     1     -12.770   1.073  23.454  0.00  0.00    -0.503 OA
ATOM      8  H   UNL     1     -12.245   1.306  22.714  0.00  0.00    +0.292 HD
ENDBRANCH   2   7
BRANCH   1   9
ATOM      9  O   UNL     1     -10.128   0.171  23.391  0.00  0.00    -0.283 OA
BRANCH   9  10
ATOM     10  O   UNL     1      -9.129  -0.676  23.039  0.00  0.00    -0.286 OA
BRANCH  10  19
ATOM     11  C   UNL     1      -5.359   1.058  20.717  0.00  0.00    +0.125 C 
ATOM     12  C   UNL     1      -6.609   0.448  20.657  0.00  0.00    +0.039 C 
ATOM     13  C   UNL     1      -7.196   0.115  19.456  0.00  0.00    +0.083 C 
ATOM     14  N   UNL     1      -6.556   0.377  18.298  0.00  0.00    -0.244 NA
ATOM     15  C   UNL     1      -5.341   0.967  18.314  0.00  0.00    +0.100 C 
ATOM     16  C   UNL     1      -4.739   1.308  19.507  0.00  0.00    +0.041 C 
ATOM     17  C   UNL     1      -8.446  -0.493  19.429  0.00  0.00    +0.022 C 
ATOM     18  C   UNL     1      -9.095  -0.759  20.616  0.00  0.00    +0.044 C 
ATOM     19  C   UNL     1      -8.507  -0.426  21.802  0.00  0.00    +0.196 C 
ATOM     20  C   UNL     1      -7.271   0.175  21.821  0.00  0.00    +0.045 C 
BRANCH  11  21
ATOM     21  S   UNL     1      -4.648   1.466  22.255  0.00  0.00    +0.057 S 
ATOM     22  O   UNL     1      -5.525   2.450  22.988  0.00  0.00    -0.153 OA
ATOM     23  O   UNL     1      -3.316   2.112  22.009  0.00  0.00    -0.153 OA
BRANCH  21  24
ATOM     24  N   UNL     1      -4.371   0.058  23.225  0.00  0.00    -0.203 NA
ATOM     25  H   UNL     1      -5.260  -0.407  23.411  0.00  0.00    +0.144 HD
ATOM     26  H   UNL     1      -3.939   0.333  24.107  0.00  0.00    +0.144 HD
ENDBRANCH  21  24
ENDBRANCH  11  21
ENDBRANCH  10  19
ENDBRANCH   9  10
ENDBRANCH   1   9
BRANCH   5  27
ATOM     27  O   UNL     1     -10.677  -2.000  27.559  0.00  0.00    -0.452 OA
BRANCH  27  28
ATOM     28  C   UNL     1     -10.576  -1.715  28.886  0.00  0.00    +0.166 C 
ATOM     29  C   UNL     1      -9.869  -0.590  29.292  0.00  0.00    +0.133 C 
ATOM     30  C   UNL     1      -9.774  -0.311  30.650  0.00  0.00    +0.102 C 
ATOM     31  N   UNL     1     -10.366  -1.134  31.523  0.00  0.00    -0.242 NA
ATOM     32  C   UNL     1     -11.057  -2.228  31.173  0.00  0.00    +0.102 C 
ATOM     33  C   UNL     1     -11.162  -2.520  29.821  0.00  0.00    +0.060 C 
ATOM     34  C   UNL     1      -9.069   0.804  31.051  0.00  0.00    +0.022 C 
ATOM     35  C   UNL     1      -8.468   1.629  30.114  0.00  0.00    +0.022 C 
ATOM     36  C   UNL     1      -8.575   1.331  28.770  0.00  0.00    +0.099 C 
ATOM     37  N   UNL     1      -9.268   0.241  28.430  0.00  0.00    -0.239 NA
ENDBRANCH  27  28
ENDBRANCH   5  27
TORSDOF 8
