REMARK  Name = =
REMARK  5 active torsions:
REMARK  status: ('A' for Active; 'I' for Inactive)
REMARK    1  A    between atoms: C_2  and  N_12
REMARK    2  A    between atoms: C_9  and  O_27
REMARK    3  A    between atoms: C_11  and  O_28
REMARK    4  A    between atoms: C_17  and  N_20
REMARK    5  A    between atoms: O_28  and  C_29
REMARK                            x       y       z     vdW  Elec       q    Type
REMARK                         _______ _______ _______ _____ _____    ______ ____
ROOT
ATOM      1  O   UNL     1       1.199  -3.619  28.167  0.00  0.00    -0.459 OA
ATOM      2  C   UNL     1      -0.107  -3.619  27.617  0.00  0.00    +0.260 C 
ATOM      3  C   UNL     1      -0.439  -2.340  26.883  0.00  0.00    +0.135 C 
ATOM      4  C   UNL     1       0.698  -1.774  26.132  0.00  0.00    +0.184 C 
ATOM      5  O   UNL     1       0.476  -1.003  25.167  0.00  0.00    -0.291 OA
ATOM      6  C   UNL     1       2.060  -2.097  26.496  0.00  0.00    +0.103 C 
ATOM      7  C   UNL     1       2.270  -3.004  27.494  0.00  0.00    +0.149 C 
ATOM      8  C   UNL     1       3.573  -3.298  27.825  0.00  0.00    +0.074 C 
ATOM      9  C   UNL     1       4.629  -2.703  27.175  0.00  0.00    +0.140 C 
ATOM     10  C   UNL     1       4.410  -1.775  26.151  0.00  0.00    +0.074 C 
ATOM     11  C   UNL     1       3.109  -1.470  25.809  0.00  0.00    +0.151 C 
ENDROOT
BRANCH   2  12
ATOM     12  N   UNL     1      -1.103  -3.931  28.622  0.00  0.00    -0.194 N 
ATOM     13  C   UNL     1      -1.673  -2.894  29.406  0.00  0.00    +0.234 C 
ATOM     14  O   UNL     1      -1.087  -1.804  29.523  0.00  0.00    -0.274 OA
ATOM     15  C   UNL     1      -2.989  -3.202  30.061  0.00  0.00    +0.088 C 
ATOM     16  C   UNL     1      -2.856  -4.490  30.845  0.00  0.00    +0.035 C 
ATOM     17  C   UNL     1      -2.529  -5.618  29.920  0.00  0.00    +0.136 C 
ATOM     18  C   UNL     1      -1.552  -5.260  28.867  0.00  0.00    +0.248 C 
ATOM     19  O   UNL     1      -1.108  -6.210  28.162  0.00  0.00    -0.273 OA
BRANCH  17  20
ATOM     20  N   UNL     1      -2.075  -6.806  30.579  0.00  0.00    -0.265 NA
ATOM     21  C   UNL     1      -3.112  -7.586  31.167  0.00  0.00    +0.091 C 
ATOM     22  C   UNL     1      -2.545  -8.917  31.595  0.00  0.00    +0.106 C 
ATOM     23  N   UNL     1      -2.356  -8.885  33.050  0.00  0.00    -0.217 NA
ATOM     24  C   UNL     1      -1.083  -8.233  33.292  0.00  0.00    +0.090 C 
ATOM     25  C   UNL     1      -1.121  -6.777  32.847  0.00  0.00    +0.036 C 
ATOM     26  C   UNL     1      -0.898  -6.667  31.353  0.00  0.00    +0.074 C 
ENDBRANCH  17  20
ENDBRANCH   2  12
BRANCH   9  27
ATOM     27  O   UNL     1       5.948  -2.982  27.488  0.00  0.00    -0.505 OA
ATOM     28  H   UNL     1       6.149  -3.597  28.166  0.00  0.00    +0.292 HD
ENDBRANCH   9  27
BRANCH  11  29
ATOM     29  O   UNL     1       2.775  -0.579  24.826  0.00  0.00    -0.443 OA
BRANCH  29  30
ATOM     30  C   UNL     1       2.958  -0.752  23.482  0.00  0.00    +0.343 C 
ATOM     31  C   UNL     1       4.344  -0.334  23.001  0.00  0.00    +0.092 C 
ATOM     32  C   UNL     1       4.579  -0.751  21.574  0.00  0.00    +0.019 C 
ATOM     33  C   UNL     1       3.400  -0.412  20.696  0.00  0.00    +0.110 C 
ATOM     34  C   UNL     1       2.522   0.514  21.493  0.00  0.00    +0.319 C 
ATOM     35  O   UNL     1       2.288   1.649  21.022  0.00  0.00    -0.250 OA
ATOM     36  O   UNL     1       2.038   0.027  22.697  0.00  0.00    -0.414 OA
ENDBRANCH  29  30
ENDBRANCH  11  29
TORSDOF 5
