REMARK  Name = =
REMARK  4 active torsions:
REMARK  status: ('A' for Active; 'I' for Inactive)
REMARK    1  A    between atoms: C_2  and  N_12
REMARK    2  A    between atoms: C_4  and  C_18
REMARK    3  A    between atoms: C_6  and  C_9
REMARK    4  A    between atoms: C_18  and  O_20
REMARK                            x       y       z     vdW  Elec       q    Type
REMARK                         _______ _______ _______ _____ _____    ______ ____
ROOT
ATOM      1  C   UNL     1      53.899 154.747  25.761  0.00  0.00    +0.020 C 
ATOM      2  C   UNL     1      53.372 153.505  26.149  0.00  0.00    +0.056 C 
ATOM      3  C   UNL     1      52.500 153.525  27.210  0.00  0.00    +0.050 C 
ATOM      4  C   UNL     1      52.140 154.676  27.879  0.00  0.00    +0.088 C 
ATOM      5  C   UNL     1      52.674 155.870  27.472  0.00  0.00    +0.041 C 
ATOM      6  C   UNL     1      53.566 155.917  26.401  0.00  0.00    +0.060 C 
ATOM      7  I   UNL     1      52.166 157.669  28.452  0.00  0.00    -0.042 I 
ATOM      8  I   UNL     1      51.679 151.697  27.838  0.00  0.00    -0.041 I 
ENDROOT
BRANCH   6   9
ATOM      9  C   UNL     1      54.127 157.190  25.977  0.00  0.00    +0.243 C 
ATOM     10  O   UNL     1      53.982 157.503  24.747  0.00  0.00    -0.270 OA
ATOM     11  N   UNL     1      54.807 158.065  26.852  0.00  0.00    -0.325 N 
ATOM     12  H   UNL     1      54.919 157.824  27.800  0.00  0.00    +0.145 HD
ATOM     13  H   UNL     1      55.169 158.916  26.514  0.00  0.00    +0.145 HD
ENDBRANCH   6   9
BRANCH   2  14
ATOM     14  N   UNL     1      53.743 152.316  25.460  0.00  0.00    -0.276 N 
ATOM     15  C   UNL     1      55.006 151.713  25.531  0.00  0.00    +0.304 C 
ATOM     16  O   UNL     1      55.888 152.261  26.261  0.00  0.00    -0.265 OA
ATOM     17  H   UNL     1      53.063 151.886  24.892  0.00  0.00    +0.155 HD
ENDBRANCH   2  14
BRANCH   4  18
ATOM     18  C   UNL     1      51.197 154.628  29.015  0.00  0.00    +0.339 C 
ATOM     19  O   UNL     1      49.992 154.884  28.782  0.00  0.00    -0.245 OA
BRANCH  18  20
ATOM     20  O   UNL     1      51.629 154.314  30.276  0.00  0.00    -0.477 OA
ATOM     21  H   UNL     1      52.534 154.126  30.428  0.00  0.00    +0.295 HD
ENDBRANCH  18  20
ENDBRANCH   4  18
TORSDOF 4
REMARK  Name = =
REMARK  4 active torsions:
REMARK  status: ('A' for Active; 'I' for Inactive)
REMARK    1  A    between atoms: C_2  and  N_12
REMARK    2  A    between atoms: C_4  and  C_18
REMARK    3  A    between atoms: C_6  and  C_9
REMARK    4  A    between atoms: C_18  and  O_20
REMARK                            x       y       z     vdW  Elec       q    Type
REMARK                         _______ _______ _______ _____ _____    ______ ____
ROOT
ATOM      1  I   UNL     1      55.246 154.781  24.134  0.00  0.00    -0.107 I 
ATOM      2  H   UNL     1      56.807 154.781  24.134  0.00  0.00    +0.107 HD
ENDROOT
TORSDOF 0
REMARK  Name = =
REMARK  4 active torsions:
REMARK  status: ('A' for Active; 'I' for Inactive)
REMARK    1  A    between atoms: C_2  and  N_12
REMARK    2  A    between atoms: C_4  and  C_18
REMARK    3  A    between atoms: C_6  and  C_9
REMARK    4  A    between atoms: C_18  and  O_20
REMARK                            x       y       z     vdW  Elec       q    Type
REMARK                         _______ _______ _______ _____ _____    ______ ____
ROOT
ATOM      1  C   UNL     1      54.366 153.559  22.663  0.00  0.00    +0.109 C 
ATOM      2  N   UNL     1      54.840 153.548  21.466  0.00  0.00    -0.295 NA
ATOM      3  H   UNL     1      55.356 154.318  21.134  0.00  0.00    +0.187 HD
ENDROOT
TORSDOF 0
