REMARK  Name = =
REMARK  0 active torsions:
REMARK  status: ('A' for Active; 'I' for Inactive)
REMARK                            x       y       z     vdW  Elec       q    Type
REMARK                         _______ _______ _______ _____ _____    ______ ____
ROOT
ATOM      1  C   UNL     1      51.642 155.293  29.271  0.00  0.00    +0.000 C 
ATOM      2  C   UNL     1      51.780 156.777  29.180  0.00  0.00    +0.000 C 
ATOM      3  C   UNL     1      53.013 157.185  28.396  0.00  0.00    +0.000 C 
ATOM      4  C   UNL     1      52.761 156.735  26.954  0.00  0.00    +0.000 C 
ATOM      5  C   UNL     1      53.196 155.297  26.896  0.00  0.00    +0.000 C 
ATOM      6  C   UNL     1      52.008 154.413  26.946  0.00  0.00    +0.000 C 
ATOM      7  C   UNL     1      51.067 154.643  28.062  0.00  0.00    +0.000 C 
ENDROOT
TORSDOF 0
