REMARK  Name = =
REMARK  3 active torsions:
REMARK  status: ('A' for Active; 'I' for Inactive)
REMARK    1  A    between atoms: C_1  and  O_8
REMARK    2  A    between atoms: C_5  and  C_10
REMARK    3  A    between atoms: C_6  and  O_9
REMARK                            x       y       z     vdW  Elec       q    Type
REMARK                         _______ _______ _______ _____ _____    ______ ____
ROOT
ATOM      1  C   UNL     1      52.294 156.452  28.657  0.00  0.00    +0.122 C 
ATOM      2  C   UNL     1      52.900 156.775  27.535  0.00  0.00    +0.075 C 
ATOM      3  C   UNL     1      53.210 155.788  26.542  0.00  0.00    +0.204 C 
ATOM      4  O   UNL     1      53.790 156.043  25.449  0.00  0.00    -0.286 OA
ATOM      5  C   UNL     1      52.849 154.398  26.776  0.00  0.00    +0.111 C 
ATOM      6  C   UNL     1      52.243 154.104  27.909  0.00  0.00    +0.125 C 
ATOM      7  C   UNL     1      51.901 155.082  28.962  0.00  0.00    +0.127 C 
ENDROOT
BRANCH   1   8
ATOM      8  O   UNL     1      52.015 157.470  29.598  0.00  0.00    -0.509 OA
ATOM      9  H   UNL     1      51.584 157.259  30.403  0.00  0.00    +0.292 HD
ENDBRANCH   1   8
BRANCH   6  10
ATOM     10  O   UNL     1      51.913 152.768  28.098  0.00  0.00    -0.509 OA
ATOM     11  H   UNL     1      52.123 152.136  27.439  0.00  0.00    +0.292 HD
ENDBRANCH   6  10
BRANCH   5  12
ATOM     12  C   UNL     1      53.151 153.352  25.778  0.00  0.00    +0.240 C 
ATOM     13  O   UNL     1      54.057 153.542  24.927  0.00  0.00    -0.283 OA
ENDBRANCH   5  12
TORSDOF 3
