REMARK  Name = =
REMARK  5 active torsions:
REMARK  status: ('A' for Active; 'I' for Inactive)
REMARK    1  A    between atoms: C_1  and  O_11
REMARK    2  A    between atoms: C_5  and  C_9
REMARK    3  A    between atoms: C_6  and  O_8
REMARK    4  A    between atoms: O_11  and  C_13
REMARK    5  A    between atoms: C_14  and  C_18
REMARK                            x       y       z     vdW  Elec       q    Type
REMARK                         _______ _______ _______ _____ _____    ______ ____
ROOT
ATOM      1  C   UNL     1      51.352 156.523  28.692  0.00  0.00    +0.134 C 
ATOM      2  C   UNL     1      52.174 156.757  27.680  0.00  0.00    +0.076 C 
ATOM      3  C   UNL     1      52.920 155.716  27.014  0.00  0.00    +0.204 C 
ATOM      4  O   UNL     1      53.685 155.943  26.071  0.00  0.00    -0.286 OA
ATOM      5  C   UNL     1      52.711 154.356  27.532  0.00  0.00    +0.111 C 
ATOM      6  C   UNL     1      51.893 154.132  28.537  0.00  0.00    +0.125 C 
ATOM      7  C   UNL     1      51.138 155.184  29.211  0.00  0.00    +0.128 C 
ENDROOT
BRANCH   6   8
ATOM      8  O   UNL     1      51.759 152.776  28.967  0.00  0.00    -0.509 OA
ATOM      9  H   UNL     1      52.242 152.098  28.537  0.00  0.00    +0.292 HD
ENDBRANCH   6   8
BRANCH   5  10
ATOM     10  C   UNL     1      53.419 153.228  26.917  0.00  0.00    +0.240 C 
ATOM     11  O   UNL     1      53.102 152.070  27.208  0.00  0.00    -0.283 OA
ENDBRANCH   5  10
BRANCH   1  12
ATOM     12  O   UNL     1      50.665 157.575  29.287  0.00  0.00    -0.457 OA
BRANCH  12  14
ATOM     13  C   UNL     1      52.378 159.106  29.993  0.00  0.00    +0.038 C 
ATOM     14  C   UNL     1      51.076 158.680  29.901  0.00  0.00    +0.154 C 
ATOM     15  C   UNL     1      50.134 159.493  30.512  0.00  0.00    +0.103 C 
ATOM     16  C   UNL     1      50.442 160.642  31.169  0.00  0.00    +0.013 C 
ATOM     17  C   UNL     1      51.775 161.048  31.244  0.00  0.00    +0.001 C 
ATOM     18  C   UNL     1      52.754 160.266  30.646  0.00  0.00    +0.003 C 
BRANCH  15  19
ATOM     19  C   UNL     1      48.727 159.124  30.419  0.00  0.00    +0.103 C 
ATOM     20  N   UNL     1      47.644 158.841  30.327  0.00  0.00    -0.191 NA
ENDBRANCH  15  19
ENDBRANCH  12  14
ENDBRANCH   1  12
TORSDOF 5
