REMARK  Name = =
REMARK  1 active torsions:
REMARK  status: ('A' for Active; 'I' for Inactive)
REMARK    1  A    between atoms: C_3  and  N_8
REMARK                            x       y       z     vdW  Elec       q    Type
REMARK                         _______ _______ _______ _____ _____    ______ ____
ROOT
ATOM      1  C   UNL     1      50.964 155.306  29.331  0.00  0.00    +0.002 C 
ATOM      2  C   UNL     1      51.632 156.524  29.904  0.00  0.00    +0.022 C 
ATOM      3  C   UNL     1      51.552 157.710  28.989  0.00  0.00    +0.100 C 
ATOM      4  C   UNL     1      52.772 157.806  28.083  0.00  0.00    +0.022 C 
ATOM      5  C   UNL     1      52.833 156.652  27.114  0.00  0.00    +0.002 C 
ATOM      6  C   UNL     1      52.972 155.333  27.824  0.00  0.00    +0.000 C 
ATOM      7  C   UNL     1      51.645 154.728  28.147  0.00  0.00    +0.000 C 
ENDROOT
BRANCH   3   8
ATOM      8  N   UNL     1      51.480 158.966  29.713  0.00  0.00    -0.173 N 
ATOM      9  N   UNL     1      52.488 159.675  30.144  0.00  0.00    -0.052 NA
ATOM     10  N   UNL     1      52.081 160.767  30.767  0.00  0.00    -0.025 NA
ATOM     11  N   UNL     1      50.774 160.755  30.730  0.00  0.00    -0.108 NA
ATOM     12  C   UNL     1      50.376 159.647  30.081  0.00  0.00    +0.210 C 
ENDBRANCH   3   8
TORSDOF 1
