REMARK  Name = =
REMARK  7 active torsions:
REMARK  status: ('A' for Active; 'I' for Inactive)
REMARK    1  A    between atoms: C_1  and  C_7
REMARK    2  A    between atoms: C_2  and  O_14
REMARK    3  A    between atoms: C_3  and  C_12
REMARK    4  A    between atoms: C_8  and  N_9
REMARK    5  A    between atoms: O_14  and  C_15
REMARK    6  A    between atoms: C_19  and  C_23
REMARK    7  A    between atoms: C_20  and  O_22
REMARK                            x       y       z     vdW  Elec       q    Type
REMARK                         _______ _______ _______ _____ _____    ______ ____
ROOT
ATOM      1  C   UNL     1      52.346 156.012  29.102  0.00  0.00    +0.036 C 
ATOM      2  C   UNL     1      51.042 155.812  29.586  0.00  0.00    +0.154 C 
ATOM      3  C   UNL     1      50.189 154.856  29.097  0.00  0.00    +0.103 C 
ATOM      4  C   UNL     1      50.660 154.049  28.067  0.00  0.00    +0.013 C 
ATOM      5  C   UNL     1      51.931 154.216  27.569  0.00  0.00    +0.001 C 
ATOM      6  C   UNL     1      52.775 155.205  28.095  0.00  0.00    +0.003 C 
ENDROOT
BRANCH   1   7
ATOM      7  C   UNL     1      53.130 157.078  29.734  0.00  0.00    +0.019 C 
ATOM      8  C   UNL     1      53.663 158.037  29.036  0.00  0.00    +0.064 C 
BRANCH   8   9
ATOM      9  N   UNL     1      54.433 159.122  29.469  0.00  0.00    -0.276 N 
ATOM     10  C   UNL     1      55.727 159.025  30.000  0.00  0.00    +0.304 C 
ATOM     11  O   UNL     1      56.343 157.955  30.147  0.00  0.00    -0.265 OA
ATOM     12  H   UNL     1      54.037 160.020  29.395  0.00  0.00    +0.155 HD
ENDBRANCH   8   9
ENDBRANCH   1   7
BRANCH   3  13
ATOM     13  C   UNL     1      48.854 154.674  29.614  0.00  0.00    +0.103 C 
ATOM     14  N   UNL     1      47.777 154.518  30.013  0.00  0.00    -0.191 NA
ENDBRANCH   3  13
BRANCH   2  15
ATOM     15  O   UNL     1      50.548 156.611  30.620  0.00  0.00    -0.457 OA
BRANCH  15  16
ATOM     16  C   UNL     1      50.040 157.889  30.306  0.00  0.00    +0.134 C 
ATOM     17  C   UNL     1      48.750 157.999  30.070  0.00  0.00    +0.076 C 
ATOM     18  C   UNL     1      48.167 159.289  29.741  0.00  0.00    +0.204 C 
ATOM     19  O   UNL     1      46.936 159.432  29.509  0.00  0.00    -0.286 OA
ATOM     20  C   UNL     1      49.000 160.467  29.671  0.00  0.00    +0.111 C 
ATOM     21  C   UNL     1      50.290 160.308  29.916  0.00  0.00    +0.125 C 
ATOM     22  C   UNL     1      50.947 159.045  30.252  0.00  0.00    +0.128 C 
BRANCH  21  23
ATOM     23  O   UNL     1      51.113 161.451  29.850  0.00  0.00    -0.509 OA
ATOM     24  H   UNL     1      50.741 162.285  29.639  0.00  0.00    +0.292 HD
ENDBRANCH  21  23
BRANCH  20  25
ATOM     25  C   UNL     1      48.471 161.787  29.346  0.00  0.00    +0.240 C 
ATOM     26  O   UNL     1      47.262 162.008  29.160  0.00  0.00    -0.283 OA
ENDBRANCH  20  25
ENDBRANCH  15  16
ENDBRANCH   2  15
TORSDOF 7
