REMARK  Name = =
REMARK  3 active torsions:
REMARK  status: ('A' for Active; 'I' for Inactive)
REMARK    1  A    between atoms: C_1  and  C_13
REMARK    2  A    between atoms: C_3  and  N_8
REMARK    3  A    between atoms: C_14  and  N_15
REMARK                            x       y       z     vdW  Elec       q    Type
REMARK                         _______ _______ _______ _____ _____    ______ ____
ROOT
ATOM      1  C   UNL     1      50.601 159.195  30.662  0.00  0.00    +0.025 C 
ATOM      2  C   UNL     1      51.488 158.144  30.120  0.00  0.00    +0.026 C 
ATOM      3  C   UNL     1      52.479 158.594  29.105  0.00  0.00    +0.100 C 
ATOM      4  C   UNL     1      53.704 159.116  29.869  0.00  0.00    +0.022 C 
ATOM      5  C   UNL     1      53.523 160.622  29.955  0.00  0.00    +0.002 C 
ATOM      6  C   UNL     1      52.408 160.922  30.910  0.00  0.00    +0.000 C 
ATOM      7  C   UNL     1      51.047 160.607  30.380  0.00  0.00    +0.004 C 
ENDROOT
BRANCH   3   8
ATOM      8  N   UNL     1      52.897 157.537  28.236  0.00  0.00    -0.173 N 
ATOM      9  N   UNL     1      54.029 157.533  27.552  0.00  0.00    -0.052 NA
ATOM     10  N   UNL     1      54.157 156.442  26.837  0.00  0.00    -0.025 NA
ATOM     11  N   UNL     1      53.078 155.725  27.066  0.00  0.00    -0.108 NA
ATOM     12  C   UNL     1      52.291 156.377  27.921  0.00  0.00    +0.210 C 
ENDBRANCH   3   8
BRANCH   1  13
ATOM     13  C   UNL     1      49.240 159.052  30.026  0.00  0.00    -0.010 C 
ATOM     14  C   UNL     1      48.200 158.657  30.693  0.00  0.00    +0.060 C 
BRANCH  14  15
ATOM     15  N   UNL     1      46.902 158.482  30.237  0.00  0.00    -0.276 N 
ATOM     16  C   UNL     1      46.538 158.503  28.888  0.00  0.00    +0.304 C 
ATOM     17  O   UNL     1      47.332 158.678  27.960  0.00  0.00    -0.265 OA
ATOM     18  H   UNL     1      46.194 158.334  30.905  0.00  0.00    +0.155 HD
ENDBRANCH  14  15
ENDBRANCH   1  13
TORSDOF 3
