REMARK  Name = =
REMARK  4 active torsions:
REMARK  status: ('A' for Active; 'I' for Inactive)
REMARK    1  A    between atoms: C_1  and  C_17
REMARK    2  A    between atoms: C_1  and  C_24
REMARK    3  A    between atoms: C_3  and  N_19
REMARK    4  A    between atoms: C_25  and  N_26
REMARK                            x       y       z     vdW  Elec       q    Type
REMARK                         _______ _______ _______ _____ _____    ______ ____
ROOT
ATOM      1  C   UNL     1      50.823 159.216  29.963  0.00  0.00    +0.090 C 
ATOM      2  C   UNL     1      50.286 159.800  31.256  0.00  0.00    +0.035 C 
ATOM      3  C   UNL     1      48.799 159.879  31.319  0.00  0.00    +0.100 C 
ATOM      4  C   UNL     1      48.293 158.623  31.966  0.00  0.00    +0.022 C 
ATOM      5  C   UNL     1      48.514 157.389  31.117  0.00  0.00    +0.002 C 
ATOM      6  C   UNL     1      49.941 157.042  30.943  0.00  0.00    +0.001 C 
ATOM      7  C   UNL     1      50.733 157.750  29.908  0.00  0.00    +0.013 C 
ENDROOT
BRANCH   1  17
ATOM      8  N   UNL     1      52.738 160.880  30.318  0.00  0.00    -0.281 N 
ATOM      9  C   UNL     1      54.120 161.301  30.263  0.00  0.00    +0.075 C 
ATOM     10  C   UNL     1      54.785 160.819  31.524  0.00  0.00    +0.020 C 
ATOM     11  C   UNL     1      56.132 161.455  31.752  0.00  0.00    +0.002 C 
ATOM     12  C   UNL     1      56.062 162.960  31.786  0.00  0.00    +0.000 C 
ATOM     13  C   UNL     1      55.312 163.500  30.614  0.00  0.00    +0.002 C 
ATOM     14  C   UNL     1      54.048 162.790  30.279  0.00  0.00    +0.020 C 
ATOM     15  C   UNL     1      52.944 163.034  31.281  0.00  0.00    +0.023 C 
ATOM     16  C   UNL     1      51.957 161.958  30.873  0.00  0.00    +0.093 C 
ATOM     17  C   UNL     1      52.275 159.609  29.891  0.00  0.00    +0.229 C 
ATOM     18  O   UNL     1      53.045 158.734  29.428  0.00  0.00    -0.275 OA
ENDBRANCH   1  17
BRANCH   3  19
ATOM     19  N   UNL     1      48.454 160.982  32.189  0.00  0.00    -0.173 N 
ATOM     20  N   UNL     1      48.271 162.235  31.818  0.00  0.00    -0.052 NA
ATOM     21  N   UNL     1      47.963 162.971  32.898  0.00  0.00    -0.025 NA
ATOM     22  N   UNL     1      47.948 162.189  33.963  0.00  0.00    -0.108 NA
ATOM     23  C   UNL     1      48.254 160.959  33.514  0.00  0.00    +0.210 C 
ENDBRANCH   3  19
BRANCH   1  24
ATOM     24  C   UNL     1      50.179 159.950  28.823  0.00  0.00    -0.002 C 
ATOM     25  C   UNL     1      49.047 159.623  28.289  0.00  0.00    +0.060 C 
BRANCH  25  26
ATOM     26  N   UNL     1      48.353 160.230  27.226  0.00  0.00    -0.276 N 
ATOM     27  C   UNL     1      48.344 161.611  26.964  0.00  0.00    +0.304 C 
ATOM     28  O   UNL     1      48.973 162.413  27.686  0.00  0.00    -0.265 OA
ATOM     29  H   UNL     1      47.838 159.646  26.623  0.00  0.00    +0.155 HD
ENDBRANCH  25  26
ENDBRANCH   1  24
TORSDOF 4
