REMARK  Name = =
REMARK  8 active torsions:
REMARK  status: ('A' for Active; 'I' for Inactive)
REMARK    1  A    between atoms: C_1  and  C_7
REMARK    2  A    between atoms: C_2  and  O_19
REMARK    3  A    between atoms: C_3  and  C_17
REMARK    4  A    between atoms: C_7  and  C_11
REMARK    5  A    between atoms: C_8  and  N_14
REMARK    6  A    between atoms: O_19  and  C_20
REMARK    7  A    between atoms: C_24  and  C_28
REMARK    8  A    between atoms: C_25  and  O_27
REMARK                            x       y       z     vdW  Elec       q    Type
REMARK                         _______ _______ _______ _____ _____    ______ ____
ROOT
ATOM      1  C   UNL     1      53.252 154.350  27.086  0.00  0.00    +0.034 C 
ATOM      2  C   UNL     1      52.315 154.820  28.019  0.00  0.00    +0.154 C 
ATOM      3  C   UNL     1      52.326 154.270  29.265  0.00  0.00    +0.103 C 
ATOM      4  C   UNL     1      53.209 153.304  29.634  0.00  0.00    +0.013 C 
ATOM      5  C   UNL     1      54.161 152.810  28.745  0.00  0.00    +0.001 C 
ATOM      6  C   UNL     1      54.146 153.358  27.489  0.00  0.00    +0.003 C 
ENDROOT
BRANCH   1   7
ATOM      7  C   UNL     1      53.249 154.768  25.708  0.00  0.00    +0.014 C 
ATOM      8  C   UNL     1      52.962 153.961  24.724  0.00  0.00    +0.061 C 
BRANCH   7  11
ATOM      9  C   UNL     1      54.477 158.045  25.984  0.00  0.00    +0.235 C 
ATOM     10  N   UNL     1      53.865 157.022  26.518  0.00  0.00    -0.183 NA
ATOM     11  C   UNL     1      53.307 156.238  25.463  0.00  0.00    +0.128 C 
ATOM     12  C   UNL     1      54.262 156.571  24.315  0.00  0.00    +0.166 C 
ATOM     13  O   UNL     1      54.375 158.007  24.589  0.00  0.00    -0.335 OA
ENDBRANCH   7  11
BRANCH   8  14
ATOM     14  N   UNL     1      52.879 152.565  24.739  0.00  0.00    -0.276 N 
ATOM     15  C   UNL     1      54.030 151.701  24.765  0.00  0.00    +0.304 C 
ATOM     16  O   UNL     1      55.171 152.283  24.769  0.00  0.00    -0.265 OA
ATOM     17  H   UNL     1      51.986 152.151  24.731  0.00  0.00    +0.155 HD
ENDBRANCH   8  14
ENDBRANCH   1   7
BRANCH   3  18
ATOM     18  C   UNL     1      51.283 154.705  30.165  0.00  0.00    +0.103 C 
ATOM     19  N   UNL     1      50.451 155.071  30.900  0.00  0.00    -0.191 NA
ENDBRANCH   3  18
BRANCH   2  20
ATOM     20  O   UNL     1      51.415 155.838  27.621  0.00  0.00    -0.457 OA
BRANCH  20  21
ATOM     21  C   UNL     1      51.238 156.886  28.550  0.00  0.00    +0.134 C 
ATOM     22  C   UNL     1      52.213 157.728  28.759  0.00  0.00    +0.075 C 
ATOM     23  C   UNL     1      52.111 158.831  29.687  0.00  0.00    +0.199 C 
ATOM     24  O   UNL     1      53.073 159.600  29.841  0.00  0.00    -0.287 OA
ATOM     25  C   UNL     1      50.870 159.031  30.433  0.00  0.00    +0.079 C 
ATOM     26  C   UNL     1      49.859 158.125  30.195  0.00  0.00    +0.120 C 
ATOM     27  C   UNL     1      49.974 157.030  29.279  0.00  0.00    +0.128 C 
BRANCH  26  28
ATOM     28  O   UNL     1      48.644 158.323  30.916  0.00  0.00    -0.509 OA
ATOM     29  H   UNL     1      48.566 159.039  31.516  0.00  0.00    +0.292 HD
ENDBRANCH  26  28
BRANCH  25  30
ATOM     30  C   UNL     1      50.513 160.038  31.364  0.00  0.00    +0.214 C 
ATOM     31  O   UNL     1      51.967 160.636  31.535  0.00  0.00    -0.215 OA
ENDBRANCH  25  30
ENDBRANCH  20  21
ENDBRANCH   2  20
TORSDOF 8
