REMARK  Name = =
REMARK  10 active torsions:
REMARK  status: ('A' for Active; 'I' for Inactive)
REMARK    1  A    between atoms: C_1  and  C_2
REMARK    2  A    between atoms: C_1  and  C_3
REMARK    3  A    between atoms: C_1  and  C_24
REMARK    4  A    between atoms: C_2  and  N_37
REMARK    5  A    between atoms: C_4  and  O_11
REMARK    6  A    between atoms: C_5  and  C_9
REMARK    7  A    between atoms: O_11  and  C_12
REMARK    8  A    between atoms: C_16  and  C_20
REMARK    9  A    between atoms: C_17  and  O_19
REMARK   10  A    between atoms: C_22  and  C_28
REMARK                            x       y       z     vdW  Elec       q    Type
REMARK                         _______ _______ _______ _____ _____    ______ ____
ROOT
ATOM      1  C   UNL     1      51.749 155.838  27.764  0.00  0.00    +0.071 C 
ENDROOT
BRANCH   1   2
ATOM      2  C   UNL     1      52.727 156.117  26.582  0.00  0.00    +0.016 C 
ATOM      3  C   UNL     1      53.667 155.293  26.204  0.00  0.00    +0.150 C 
ATOM      4  C   UNL     1      54.270 155.215  25.042  0.00  0.00    +0.103 C 
ATOM      5  C   UNL     1      53.932 156.200  24.026  0.00  0.00    +0.013 C 
ATOM      6  C   UNL     1      52.942 157.177  24.346  0.00  0.00    +0.001 C 
ATOM      7  C   UNL     1      52.394 157.027  25.663  0.00  0.00    -0.001 C 
BRANCH   4   8
ATOM      8  C   UNL     1      55.354 154.383  24.635  0.00  0.00    +0.103 C 
ATOM      9  N   UNL     1      56.313 153.668  24.294  0.00  0.00    -0.191 NA
ENDBRANCH   4   8
BRANCH   3  10
ATOM     10  O   UNL     1      54.261 154.339  27.181  0.00  0.00    -0.457 OA
BRANCH  10  11
ATOM     11  C   UNL     1      54.260 153.050  26.548  0.00  0.00    +0.134 C 
ATOM     12  C   UNL     1      55.254 152.371  26.100  0.00  0.00    +0.076 C 
ATOM     13  C   UNL     1      55.341 151.048  25.452  0.00  0.00    +0.204 C 
ATOM     14  O   UNL     1      56.082 150.361  25.010  0.00  0.00    -0.286 OA
ATOM     15  C   UNL     1      53.826 150.412  25.344  0.00  0.00    +0.111 C 
ATOM     16  C   UNL     1      53.018 151.188  25.825  0.00  0.00    +0.125 C 
ATOM     17  C   UNL     1      52.818 152.455  26.417  0.00  0.00    +0.128 C 
BRANCH  16  18
ATOM     18  O   UNL     1      51.607 150.481  25.770  0.00  0.00    -0.509 OA
ATOM     19  H   UNL     1      51.528 149.621  25.407  0.00  0.00    +0.292 HD
ENDBRANCH  16  18
BRANCH  15  20
ATOM     20  C   UNL     1      53.694 149.072  24.970  0.00  0.00    +0.240 C 
ATOM     21  O   UNL     1      53.013 148.156  24.897  0.00  0.00    -0.283 OA
ENDBRANCH  15  20
ENDBRANCH  10  11
ENDBRANCH   3  10
ENDBRANCH   1   2
BRANCH   1  24
ATOM     22  C   UNL     1      49.879 157.431  30.267  0.00  0.00    +0.226 C 
ATOM     23  N   UNL     1      50.623 157.596  29.218  0.00  0.00    -0.237 NA
ATOM     24  C   UNL     1      51.482 156.640  28.874  0.00  0.00    +0.155 C 
ATOM     25  C   UNL     1      51.557 155.895  30.284  0.00  0.00    +0.231 C 
ATOM     26  O   UNL     1      50.188 156.190  30.720  0.00  0.00    -0.460 OA
BRANCH  22  28
ATOM     27  O   UNL     1      48.480 159.313  29.656  0.00  0.00    -0.317 OA
ATOM     28  C   UNL     1      48.954 158.523  30.693  0.00  0.00    +0.222 C 
ATOM     29  C   UNL     1      49.727 159.430  31.642  0.00  0.00    +0.178 C 
ATOM     30  O   UNL     1      49.046 160.452  32.156  0.00  0.00    -0.351 OA
ATOM     31  C   UNL     1      49.625 161.726  32.183  0.00  0.00    +0.142 C 
ATOM     32  C   UNL     1      51.113 161.741  32.337  0.00  0.00    +0.035 C 
ATOM     33  C   UNL     1      51.850 160.648  31.619  0.00  0.00    +0.035 C 
ATOM     34  C   UNL     1      50.912 159.869  30.745  0.00  0.00    +0.148 C 
ATOM     35  O   UNL     1      50.291 160.784  29.875  0.00  0.00    -0.327 OA
ATOM     36  C   UNL     1      49.433 160.106  29.020  0.00  0.00    +0.294 C 
ENDBRANCH  22  28
ENDBRANCH   1  24
BRANCH   1  37
ATOM     37  C   UNL     1      51.412 154.600  27.620  0.00  0.00    +0.096 C 
BRANCH  37  38
ATOM     38  N   UNL     1      50.977 153.278  27.650  0.00  0.00    -0.297 N 
ATOM     39  C   UNL     1      51.618 152.479  28.795  0.00  0.00    +0.300 C 
ATOM     40  O   UNL     1      52.411 152.971  29.530  0.00  0.00    -0.265 OA
ATOM     41  H   UNL     1      50.332 152.898  27.010  0.00  0.00    +0.150 HD
ENDBRANCH  37  38
ENDBRANCH   1  37
TORSDOF 10
