REMARK  Name = =
REMARK  4 active torsions:
REMARK  status: ('A' for Active; 'I' for Inactive)
REMARK    1  A    between atoms: C_1  and  O_10
REMARK    2  A    between atoms: C_5  and  O_9
REMARK    3  A    between atoms: O_10  and  S_11
REMARK    4  A    between atoms: S_11  and  O_14
REMARK                            x       y       z     vdW  Elec       q    Type
REMARK                         _______ _______ _______ _____ _____    ______ ____
ROOT
ATOM      1  C   UNL     1      53.744 153.843  26.461  0.00  0.00    +0.216 C 
ATOM      2  C   UNL     1      54.453 153.679  25.356  0.00  0.00    +0.088 C 
ATOM      3  C   UNL     1      54.737 154.820  24.491  0.00  0.00    +0.232 C 
ATOM      4  O   UNL     1      55.416 154.678  23.429  0.00  0.00    -0.283 OA
ATOM      5  C   UNL     1      54.267 156.168  24.789  0.00  0.00    +0.176 C 
ATOM      6  C   UNL     1      53.557 156.323  25.897  0.00  0.00    +0.085 C 
ATOM      7  C   UNL     1      53.269 155.187  26.766  0.00  0.00    +0.235 C 
ATOM      8  O   UNL     1      52.593 155.334  27.822  0.00  0.00    -0.283 OA
ENDROOT
BRANCH   5   9
ATOM      9  O   UNL     1      54.552 157.245  23.943  0.00  0.00    -0.503 OA
ATOM     10  H   UNL     1      55.056 157.109  23.165  0.00  0.00    +0.292 HD
ENDBRANCH   5   9
BRANCH   1  11
ATOM     11  O   UNL     1      53.460 152.769  27.301  0.00  0.00    -0.337 OA
BRANCH  11  12
ATOM     12  S   UNL     1      52.059 151.840  27.103  0.00  0.00    +0.146 S 
ATOM     13  O   UNL     1      50.978 152.621  26.400  0.00  0.00    -0.035 OA
ATOM     14  O   UNL     1      51.522 151.441  28.449  0.00  0.00    -0.035 OA
BRANCH  12  15
ATOM     15  O   UNL     1      52.458 150.484  26.175  0.00  0.00    -0.241 OA
ATOM     16  H   UNL     1      53.154 149.978  26.624  0.00  0.00    +0.246 HD
ENDBRANCH  12  15
ENDBRANCH  11  12
ENDBRANCH   1  11
TORSDOF 4
