REMARK  Name = =
REMARK  6 active torsions:
REMARK  status: ('A' for Active; 'I' for Inactive)
REMARK    1  A    between atoms: C_1  and  O_19
REMARK    2  A    between atoms: C_2  and  C_9
REMARK    3  A    between atoms: C_5  and  O_18
REMARK    4  A    between atoms: N_11  and  C_12
REMARK    5  A    between atoms: O_19  and  S_20
REMARK    6  A    between atoms: S_20  and  O_23
REMARK                            x       y       z     vdW  Elec       q    Type
REMARK                         _______ _______ _______ _____ _____    ______ ____
ROOT
ATOM      1  C   UNL     1      52.557 154.014  27.220  0.00  0.00    +0.220 C 
ATOM      2  C   UNL     1      53.004 153.043  26.419  0.00  0.00    +0.135 C 
ATOM      3  C   UNL     1      52.586 151.668  26.692  0.00  0.00    +0.237 C 
ATOM      4  O   UNL     1      52.976 150.727  25.973  0.00  0.00    -0.283 OA
ATOM      5  C   UNL     1      51.691 151.330  27.816  0.00  0.00    +0.176 C 
ATOM      6  C   UNL     1      51.267 152.293  28.584  0.00  0.00    +0.085 C 
ATOM      7  C   UNL     1      51.673 153.663  28.328  0.00  0.00    +0.236 C 
ATOM      8  O   UNL     1      51.260 154.607  29.076  0.00  0.00    -0.283 OA
ENDROOT
BRANCH   2   9
ATOM      9  C   UNL     1      53.885 153.419  25.322  0.00  0.00    +0.256 C 
ATOM     10  O   UNL     1      55.004 153.942  25.655  0.00  0.00    -0.270 OA
ATOM     11  N   UNL     1      53.653 153.276  23.955  0.00  0.00    -0.280 N 
ATOM     12  H   UNL     1      52.796 152.868  23.695  0.00  0.00    +0.155 HD
BRANCH  11  13
ATOM     13  C   UNL     1      54.519 153.655  22.899  0.00  0.00    +0.051 C 
ATOM     14  C   UNL     1      54.172 153.220  21.606  0.00  0.00    +0.015 C 
ATOM     15  C   UNL     1      54.942 153.552  20.523  0.00  0.00    +0.001 C 
ATOM     16  C   UNL     1      56.076 154.321  20.670  0.00  0.00    +0.000 C 
ATOM     17  C   UNL     1      56.427 154.752  21.918  0.00  0.00    +0.001 C 
ATOM     18  C   UNL     1      55.653 154.420  23.021  0.00  0.00    +0.015 C 
ENDBRANCH  11  13
ENDBRANCH   2   9
BRANCH   5  19
ATOM     19  O   UNL     1      51.302 150.021  28.063  0.00  0.00    -0.503 OA
ATOM     20  H   UNL     1      51.608 149.329  27.510  0.00  0.00    +0.292 HD
ENDBRANCH   5  19
BRANCH   1  21
ATOM     21  O   UNL     1      52.945 155.313  26.972  0.00  0.00    -0.337 OA
BRANCH  21  22
ATOM     22  S   UNL     1      52.820 156.578  28.070  0.00  0.00    +0.146 S 
ATOM     23  O   UNL     1      51.434 157.193  28.001  0.00  0.00    -0.035 OA
ATOM     24  O   UNL     1      53.796 157.657  27.680  0.00  0.00    -0.035 OA
BRANCH  22  25
ATOM     25  O   UNL     1      53.193 156.109  29.638  0.00  0.00    -0.241 OA
ATOM     26  H   UNL     1      52.581 155.412  29.921  0.00  0.00    +0.246 HD
ENDBRANCH  22  25
ENDBRANCH  21  22
ENDBRANCH   1  21
TORSDOF 6
