REMARK  Name = =
REMARK  7 active torsions:
REMARK  status: ('A' for Active; 'I' for Inactive)
REMARK    1  A    between atoms: C_1  and  O_24
REMARK    2  A    between atoms: C_2  and  C_9
REMARK    3  A    between atoms: C_5  and  O_23
REMARK    4  A    between atoms: N_11  and  C_12
REMARK    5  A    between atoms: N_11  and  N_18
REMARK    6  A    between atoms: O_24  and  S_25
REMARK    7  A    between atoms: S_25  and  O_28
REMARK                            x       y       z     vdW  Elec       q    Type
REMARK                         _______ _______ _______ _____ _____    ______ ____
ROOT
ATOM      1  C   UNL     1      53.507 151.972  26.028  0.00  0.00    +0.220 C 
ATOM      2  C   UNL     1      53.604 153.225  25.520  0.00  0.00    +0.137 C 
ATOM      3  C   UNL     1      53.864 153.374  24.108  0.00  0.00    +0.237 C 
ATOM      4  O   UNL     1      53.975 154.472  23.507  0.00  0.00    -0.283 OA
ATOM      5  C   UNL     1      54.009 152.145  23.296  0.00  0.00    +0.176 C 
ATOM      6  C   UNL     1      53.913 150.936  23.800  0.00  0.00    +0.085 C 
ATOM      7  C   UNL     1      53.649 150.767  25.236  0.00  0.00    +0.236 C 
ATOM      8  O   UNL     1      53.555 149.612  25.732  0.00  0.00    -0.283 OA
ENDROOT
BRANCH   2   9
ATOM      9  C   UNL     1      53.436 154.361  26.389  0.00  0.00    +0.273 C 
ATOM     10  O   UNL     1      53.169 154.001  27.633  0.00  0.00    -0.268 OA
ATOM     11  N   UNL     1      53.498 155.732  26.192  0.00  0.00    -0.194 N 
BRANCH  11  12
ATOM     12  C   UNL     1      53.127 156.526  27.368  0.00  0.00    +0.070 C 
ATOM     13  C   UNL     1      51.987 156.146  28.085  0.00  0.00    +0.016 C 
ATOM     14  C   UNL     1      51.623 156.864  29.192  0.00  0.00    +0.001 C 
ATOM     15  C   UNL     1      52.365 157.949  29.601  0.00  0.00    +0.000 C 
ATOM     16  C   UNL     1      53.480 158.308  28.887  0.00  0.00    +0.001 C 
ATOM     17  C   UNL     1      53.874 157.594  27.754  0.00  0.00    +0.016 C 
ENDBRANCH  11  12
BRANCH  11  18
ATOM     18  N   UNL     1      53.831 156.424  25.113  0.00  0.00    -0.181 NA
ATOM     19  C   UNL     1      53.082 157.592  24.794  0.00  0.00    +0.164 C 
ATOM     20  N   UNL     1      54.040 158.487  24.188  0.00  0.00    -0.281 NA
ATOM     21  C   UNL     1      55.342 158.090  24.774  0.00  0.00    +0.089 C 
ATOM     22  C   UNL     1      55.178 156.585  24.705  0.00  0.00    +0.111 C 
ATOM     23  H   UNL     1      54.051 158.371  23.175  0.00  0.00    +0.125 HD
ENDBRANCH  11  18
ENDBRANCH   2   9
BRANCH   5  24
ATOM     24  O   UNL     1      54.263 152.306  21.919  0.00  0.00    -0.503 OA
ATOM     25  H   UNL     1      54.361 151.553  21.370  0.00  0.00    +0.292 HD
ENDBRANCH   5  24
BRANCH   1  26
ATOM     26  O   UNL     1      53.258 151.794  27.377  0.00  0.00    -0.337 OA
BRANCH  26  27
ATOM     27  S   UNL     1      51.710 151.737  28.051  0.00  0.00    +0.146 S 
ATOM     28  O   UNL     1      50.764 152.709  27.407  0.00  0.00    -0.035 OA
ATOM     29  O   UNL     1      51.799 152.073  29.517  0.00  0.00    -0.035 OA
BRANCH  27  30
ATOM     30  O   UNL     1      51.010 150.224  27.924  0.00  0.00    -0.241 OA
ATOM     31  H   UNL     1      51.592 149.563  28.330  0.00  0.00    +0.246 HD
ENDBRANCH  27  30
ENDBRANCH  26  27
ENDBRANCH   1  26
TORSDOF 7
