MODEL 1
REMARK VINA RESULT:    -8.332      0.000      0.000
REMARK INTER + INTRA:         -14.138
REMARK INTER:                 -13.447
REMARK INTRA:                  -0.691
REMARK UNBOUND:                -0.691
REMARK  Name = =
REMARK  12 active torsions:
REMARK  status: ('A' for Active; 'I' for Inactive)
REMARK    1  A    between atoms: C_4  and  O_24
REMARK    2  A    between atoms: C_6  and  O_34
REMARK    3  A    between atoms: C_7  and  N_17
REMARK    4  A    between atoms: C_10  and  N_25
REMARK    5  A    between atoms: C_15  and  C_28
REMARK    6  A    between atoms: N_17  and  O_20
REMARK    7  A    between atoms: O_20  and  C_21
REMARK    8  A    between atoms: C_21  and  O_23
REMARK    9  A    between atoms: N_25  and  C_26
REMARK   10  A    between atoms: C_28  and  C_30
REMARK   11  A    between atoms: N_32  and  O_33
REMARK   12  A    between atoms: O_34  and  S_35
REMARK                            x       y       z     vdW  Elec       q    Type
REMARK                         _______ _______ _______ _____ _____    ______ ____
ROOT
ATOM      1  C   UNL     1      -0.444  -4.801  29.921  0.00  0.00    +0.024 C 
ATOM      2  C   UNL     1       0.912  -4.753  30.091  0.00  0.00    +0.001 C 
ATOM      3  C   UNL     1       1.594  -3.680  29.528  0.00  0.00    +0.034 C 
ATOM      4  C   UNL     1       0.945  -2.694  28.818  0.00  0.00    +0.137 C 
ATOM      5  C   UNL     1      -0.417  -2.747  28.648  0.00  0.00    +0.076 C 
ATOM      6  C   UNL     1      -1.100  -3.812  29.208  0.00  0.00    +0.171 C 
ATOM      7  C   UNL     1       0.990  -6.006  30.860  0.00  0.00    +0.133 C 
ATOM      8  C   UNL     1      -0.506  -6.068  30.723  0.00  0.00    +0.116 C 
ATOM      9  C   UNL     1      -1.290  -5.895  31.939  0.00  0.00    +0.017 C 
ATOM     10  C   UNL     1      -2.247  -6.727  32.267  0.00  0.00    +0.106 C 
ATOM     11  N   UNL     1      -2.628  -7.831  31.477  0.00  0.00    -0.298 N 
ATOM     12  C   UNL     1      -1.933  -8.040  30.275  0.00  0.00    +0.096 C 
ATOM     13  C   UNL     1      -0.943  -7.214  29.918  0.00  0.00    +0.140 C 
ATOM     14  C   UNL     1       1.681  -7.070  30.029  0.00  0.00    +0.079 C 
ATOM     15  C   UNL     1       1.073  -7.147  28.642  0.00  0.00    +0.233 C 
ATOM     16  O   UNL     1      -0.302  -7.464  28.713  0.00  0.00    -0.473 OA
ATOM     17  H   UNL     1      -3.355  -8.434  31.757  0.00  0.00    +0.153 HD
ENDROOT
BRANCH   7  18
ATOM     18  N   UNL     1       1.570  -5.867  32.146  0.00  0.00    -0.108 N 
ATOM     19  C   UNL     1       1.525  -6.937  33.072  0.00  0.00    +0.337 C 
ATOM     20  O   UNL     1       1.043  -8.062  32.897  0.00  0.00    -0.262 OA
BRANCH  18  21
ATOM     21  O   UNL     1       2.194  -4.717  32.594  0.00  0.00    -0.310 OA
BRANCH  21  22
ATOM     22  C   UNL     1       3.004  -4.790  33.719  0.00  0.00    +0.531 C 
ATOM     23  O   UNL     1       4.200  -5.161  33.660  0.00  0.00    -0.201 OA
BRANCH  22  24
ATOM     24  O   UNL     1       2.540  -4.456  34.987  0.00  0.00    -0.448 OA
ATOM     25  H   UNL     1       3.138  -4.146  35.638  0.00  0.00    +0.299 HD
ENDBRANCH  22  24
ENDBRANCH  21  22
ENDBRANCH  18  21
ENDBRANCH   7  18
BRANCH   4  26
ATOM     26  O   UNL     1       1.695  -1.660  28.287  0.00  0.00    -0.505 OA
ATOM     27  H   UNL     1       1.984  -1.700  27.397  0.00  0.00    +0.292 HD
ENDBRANCH   4  26
BRANCH  10  28
ATOM     28  N   UNL     1      -3.012  -6.534  33.490  0.00  0.00    -0.240 N 
ATOM     29  H   UNL     1      -2.975  -7.180  34.232  0.00  0.00    +0.165 HD
BRANCH  28  30
ATOM     30  C   UNL     1      -3.792  -5.397  33.554  0.00  0.00    +0.172 C 
ATOM     31  N   UNL     1      -4.443  -4.420  33.607  0.00  0.00    -0.174 NA
ENDBRANCH  28  30
ENDBRANCH  10  28
BRANCH  15  32
ATOM     32  C   UNL     1       1.732  -8.231  27.868  0.00  0.00    +0.267 C 
ATOM     33  O   UNL     1       2.984  -8.307  27.876  0.00  0.00    -0.283 OA
BRANCH  32  34
ATOM     34  C   UNL     1       0.983  -9.205  27.098  0.00  0.00    +0.306 C 
ATOM     35  O   UNL     1       1.227 -10.436  27.174  0.00  0.00    -0.265 OA
ATOM     36  N   UNL     1      -0.050  -8.762  26.237  0.00  0.00    -0.191 N 
ATOM     37  H   UNL     1      -0.267  -7.805  26.154  0.00  0.00    +0.183 HD
BRANCH  36  38
ATOM     38  O   UNL     1      -0.738  -9.707  25.524  0.00  0.00    -0.295 OA
ATOM     39  H   UNL     1      -1.674  -9.459  25.478  0.00  0.00    +0.241 HD
ENDBRANCH  36  38
ENDBRANCH  32  34
ENDBRANCH  15  32
BRANCH   6  40
ATOM     40  O   UNL     1      -2.460  -3.896  29.058  0.00  0.00    -0.363 OA
BRANCH  40  41
ATOM     41  S   UNL     1      -3.589  -3.047  29.972  0.00  0.00    +0.009 S 
ATOM     42  O   UNL     1      -2.968  -2.665  31.284  0.00  0.00    -0.065 OA
ATOM     43  O   UNL     1      -4.792  -3.896  30.281  0.00  0.00    -0.065 OA
ATOM     44  H   UNL     1      -3.972  -1.957  29.255  0.00  0.00    +0.227 HD
ENDBRANCH  40  41
ENDBRANCH   6  40
TORSDOF 12
ENDMDL
