REMARK  Name = =
REMARK  0 active torsions:
REMARK  status: ('A' for Active; 'I' for Inactive)
REMARK                            x       y       z     vdW  Elec       q    Type
REMARK                         _______ _______ _______ _____ _____    ______ ____
ROOT
ATOM      1  C   UNL     1      52.499 157.570  28.697  0.00  0.00    -0.009 C 
ATOM      2  C   UNL     1      51.461 157.889  29.445  0.00  0.00    -0.045 C 
ATOM      3  C   UNL     1      51.171 159.306  29.686  0.00  0.00    +0.018 C 
ATOM      4  C   UNL     1      49.737 159.600  29.997  0.00  0.00    +0.004 C 
ATOM      5  C   UNL     1      49.786 160.869  30.815  0.00  0.00    +0.000 C 
ATOM      6  C   UNL     1      51.214 161.155  31.131  0.00  0.00    +0.000 C 
ATOM      7  C   UNL     1      52.021 159.952  30.727  0.00  0.00    +0.004 C 
ATOM      8  C   UNL     1      49.009 158.494  30.676  0.00  0.00    +0.001 C 
ATOM      9  C   UNL     1      49.174 157.237  29.847  0.00  0.00    +0.004 C 
ATOM     10  C   UNL     1      50.626 156.800  30.017  0.00  0.00    +0.022 C 
ENDROOT
TORSDOF 0
