REMARK  Name = =
REMARK  1 active torsions:
REMARK  status: ('A' for Active; 'I' for Inactive)
REMARK    1  A    between atoms: C_1  and  N_11
REMARK                            x       y       z     vdW  Elec       q    Type
REMARK                         _______ _______ _______ _____ _____    ______ ____
ROOT
ATOM      1  C   UNL     1      52.152 157.082  29.270  0.00  0.00    +0.053 C 
ATOM      2  C   UNL     1      50.919 157.281  29.709  0.00  0.00    -0.029 C 
ATOM      3  C   UNL     1      50.405 158.663  29.672  0.00  0.00    +0.028 C 
ATOM      4  C   UNL     1      49.047 158.874  30.161  0.00  0.00    +0.026 C 
ATOM      5  C   UNL     1      49.061 160.020  31.140  0.00  0.00    -0.031 C 
ATOM      6  C   UNL     1      50.480 160.422  31.330  0.00  0.00    -0.030 C 
ATOM      7  C   UNL     1      51.307 159.668  30.312  0.00  0.00    +0.030 C 
ATOM      8  C   UNL     1      48.310 157.696  30.678  0.00  0.00    +0.005 C 
ATOM      9  C   UNL     1      48.660 156.396  30.029  0.00  0.00    +0.005 C 
ATOM     10  C   UNL     1      50.139 156.120  30.205  0.00  0.00    +0.023 C 
ENDROOT
BRANCH   1  11
ATOM     11  N   UNL     1      52.981 158.130  28.775  0.00  0.00    -0.302 N 
ATOM     12  C   UNL     1      54.222 158.162  29.515  0.00  0.00    +0.123 C 
ATOM     13  C   UNL     1      55.251 159.010  28.797  0.00  0.00    +0.164 C 
ATOM     14  O   UNL     1      55.645 158.427  27.606  0.00  0.00    -0.350 OA
ATOM     15  C   UNL     1      54.703 157.538  27.128  0.00  0.00    +0.164 C 
ATOM     16  C   UNL     1      53.278 158.008  27.381  0.00  0.00    +0.123 C 
ENDBRANCH   1  11
TORSDOF 1
