REMARK  Name = =
REMARK  3 active torsions:
REMARK  status: ('A' for Active; 'I' for Inactive)
REMARK    1  A    between atoms: C_1  and  N_11
REMARK    2  A    between atoms: C_1  and  C_17
REMARK    3  A    between atoms: C_18  and  C_19
REMARK                            x       y       z     vdW  Elec       q    Type
REMARK                         _______ _______ _______ _____ _____    ______ ____
ROOT
ATOM      1  C   UNL     1      51.850 156.943  28.714  0.00  0.00    +0.040 C 
ATOM      2  C   UNL     1      50.847 157.559  29.394  0.00  0.00    -0.031 C 
ATOM      3  C   UNL     1      50.892 158.990  29.697  0.00  0.00    +0.020 C 
ATOM      4  C   UNL     1      50.445 159.297  31.104  0.00  0.00    +0.004 C 
ATOM      5  C   UNL     1      50.025 160.733  31.039  0.00  0.00    +0.000 C 
ATOM      6  C   UNL     1      49.343 160.858  29.719  0.00  0.00    +0.000 C 
ATOM      7  C   UNL     1      50.076 159.881  28.838  0.00  0.00    +0.004 C 
ATOM      8  C   UNL     1      49.298 158.464  31.551  0.00  0.00    +0.001 C 
ATOM      9  C   UNL     1      48.674 157.639  30.488  0.00  0.00    +0.004 C 
ATOM     10  C   UNL     1      49.688 156.768  29.833  0.00  0.00    +0.023 C 
ENDROOT
BRANCH   1  11
ATOM     11  N   UNL     1      52.962 157.671  28.284  0.00  0.00    -0.303 N 
ATOM     12  C   UNL     1      53.352 157.626  26.944  0.00  0.00    +0.123 C 
ATOM     13  C   UNL     1      54.869 157.677  26.749  0.00  0.00    +0.164 C 
ATOM     14  O   UNL     1      55.394 158.731  27.445  0.00  0.00    -0.350 OA
ATOM     15  C   UNL     1      55.088 158.789  28.774  0.00  0.00    +0.164 C 
ATOM     16  C   UNL     1      53.950 157.950  29.238  0.00  0.00    +0.123 C 
ENDBRANCH   1  11
BRANCH   1  17
ATOM     17  C   UNL     1      51.758 155.506  28.436  0.00  0.00    +0.014 C 
ATOM     18  C   UNL     1      52.426 154.909  27.494  0.00  0.00    +0.001 C 
BRANCH  18  19
ATOM     19  C   UNL     1      52.323 153.485  27.233  0.00  0.00    +0.000 C 
ATOM     20  C   UNL     1      51.735 152.618  28.125  0.00  0.00    +0.000 C 
ATOM     21  C   UNL     1      51.648 151.261  27.853  0.00  0.00    +0.000 C 
ATOM     22  C   UNL     1      52.152 150.766  26.680  0.00  0.00    +0.000 C 
ATOM     23  C   UNL     1      52.742 151.635  25.784  0.00  0.00    +0.000 C 
ATOM     24  C   UNL     1      52.833 152.979  26.043  0.00  0.00    +0.000 C 
ENDBRANCH  18  19
ENDBRANCH   1  17
TORSDOF 3
