REMARK  Name = =
REMARK  8 active torsions:
REMARK  status: ('A' for Active; 'I' for Inactive)
REMARK    1  A    between atoms: C_1  and  C_3
REMARK    2  A    between atoms: C_1  and  O_25
REMARK    3  A    between atoms: C_2  and  C_19
REMARK    4  A    between atoms: C_3  and  N_13
REMARK    5  A    between atoms: O_25  and  C_26
REMARK    6  A    between atoms: C_26  and  P_28
REMARK    7  A    between atoms: P_28  and  O_30
REMARK    8  A    between atoms: P_28  and  O_31
REMARK                            x       y       z     vdW  Elec       q    Type
REMARK                         _______ _______ _______ _____ _____    ______ ____
ROOT
ATOM      1  C   UNL     1      51.386 157.230  29.161  0.00  0.00    +0.162 C 
ATOM      2  C   UNL     1      50.111 157.233  29.521  0.00  0.00    +0.039 C 
ENDROOT
BRANCH   1   3
ATOM      3  C   UNL     1      51.838 156.079  28.363  0.00  0.00    +0.075 C 
ATOM      4  C   UNL     1      52.592 156.133  27.305  0.00  0.00    -0.028 C 
ATOM      5  C   UNL     1      52.922 154.806  26.639  0.00  0.00    +0.020 C 
ATOM      6  C   UNL     1      52.648 154.900  25.150  0.00  0.00    +0.004 C 
ATOM      7  C   UNL     1      53.303 153.609  24.673  0.00  0.00    +0.000 C 
ATOM      8  C   UNL     1      54.651 153.697  25.378  0.00  0.00    +0.000 C 
ATOM      9  C   UNL     1      54.352 154.439  26.682  0.00  0.00    +0.004 C 
ATOM     10  C   UNL     1      53.365 156.062  24.570  0.00  0.00    +0.001 C 
ATOM     11  C   UNL     1      52.762 157.346  25.168  0.00  0.00    +0.004 C 
ATOM     12  C   UNL     1      53.229 157.281  26.639  0.00  0.00    +0.023 C 
BRANCH   3  13
ATOM     13  N   UNL     1      51.382 154.831  28.840  0.00  0.00    -0.301 N 
ATOM     14  C   UNL     1      51.643 154.482  30.172  0.00  0.00    +0.123 C 
ATOM     15  C   UNL     1      50.748 153.285  30.513  0.00  0.00    +0.164 C 
ATOM     16  O   UNL     1      51.023 152.177  29.768  0.00  0.00    -0.350 OA
ATOM     17  C   UNL     1      51.622 152.417  28.560  0.00  0.00    +0.164 C 
ATOM     18  C   UNL     1      51.229 153.766  27.945  0.00  0.00    +0.123 C 
ENDBRANCH   3  13
ENDBRANCH   1   3
BRANCH   2  19
ATOM     19  C   UNL     1      49.332 158.141  30.269  0.00  0.00    +0.003 C 
ATOM     20  C   UNL     1      49.736 158.403  31.594  0.00  0.00    +0.000 C 
ATOM     21  C   UNL     1      49.047 159.246  32.432  0.00  0.00    +0.000 C 
ATOM     22  C   UNL     1      47.907 159.873  31.975  0.00  0.00    +0.000 C 
ATOM     23  C   UNL     1      47.480 159.642  30.686  0.00  0.00    +0.000 C 
ATOM     24  C   UNL     1      48.206 158.782  29.873  0.00  0.00    +0.000 C 
ENDBRANCH   2  19
BRANCH   1  25
ATOM     25  O   UNL     1      52.231 158.269  29.524  0.00  0.00    -0.415 OA
BRANCH  25  26
ATOM     26  C   UNL     1      51.824 159.594  29.673  0.00  0.00    +0.426 C 
ATOM     27  O   UNL     1      50.756 159.952  29.133  0.00  0.00    -0.236 OA
BRANCH  26  28
ATOM     28  P   UNL     1      52.763 160.786  30.596  0.00  0.00    +0.435 P 
ATOM     29  O   UNL     1      52.394 162.206  30.190  0.00  0.00    -0.247 OA
BRANCH  28  30
ATOM     30  O   UNL     1      54.415 160.567  30.422  0.00  0.00    -0.316 OA
ATOM     31  H   UNL     1      54.650 159.662  30.681  0.00  0.00    +0.220 HD
ENDBRANCH  28  30
BRANCH  28  32
ATOM     32  O   UNL     1      52.278 160.650  32.231  0.00  0.00    -0.316 OA
ATOM     33  H   UNL     1      51.319 160.782  32.296  0.00  0.00    +0.220 HD
ENDBRANCH  28  32
ENDBRANCH  26  28
ENDBRANCH  25  26
ENDBRANCH   1  25
TORSDOF 8
