REMARK  Name = =
REMARK  7 active torsions:
REMARK  status: ('A' for Active; 'I' for Inactive)
REMARK    1  A    between atoms: C_1  and  C_3
REMARK    2  A    between atoms: C_1  and  O_25
REMARK    3  A    between atoms: C_2  and  C_19
REMARK    4  A    between atoms: C_3  and  N_13
REMARK    5  A    between atoms: O_25  and  C_26
REMARK    6  A    between atoms: O_29  and  O_36
REMARK    7  A    between atoms: N_32  and  N_33
REMARK                            x       y       z     vdW  Elec       q    Type
REMARK                         _______ _______ _______ _____ _____    ______ ____
ROOT
ATOM      1  C   UNL     1      51.318 158.504  29.401  0.00  0.00    +0.074 C 
ATOM      2  C   UNL     1      50.172 158.421  30.017  0.00  0.00    -0.028 C 
ATOM      3  C   UNL     1      49.710 159.646  30.810  0.00  0.00    +0.020 C 
ATOM      4  C   UNL     1      48.369 160.127  30.386  0.00  0.00    +0.004 C 
ATOM      5  C   UNL     1      47.642 160.589  31.628  0.00  0.00    +0.000 C 
ATOM      6  C   UNL     1      48.500 160.209  32.811  0.00  0.00    +0.000 C 
ATOM      7  C   UNL     1      49.554 159.252  32.248  0.00  0.00    +0.004 C 
ATOM      8  C   UNL     1      47.577 159.132  29.593  0.00  0.00    +0.001 C 
ATOM      9  C   UNL     1      47.778 157.713  30.071  0.00  0.00    +0.004 C 
ATOM     10  C   UNL     1      49.231 157.305  30.105  0.00  0.00    +0.023 C 
ENDROOT
BRANCH   1  11
ATOM     11  N   UNL     1      52.040 159.721  29.525  0.00  0.00    -0.301 N 
ATOM     12  C   UNL     1      51.300 160.894  29.672  0.00  0.00    +0.123 C 
ATOM     13  C   UNL     1      51.849 161.835  30.707  0.00  0.00    +0.164 C 
ATOM     14  O   UNL     1      53.245 161.868  30.700  0.00  0.00    -0.350 OA
ATOM     15  C   UNL     1      53.686 160.608  31.095  0.00  0.00    +0.164 C 
ATOM     16  C   UNL     1      53.330 159.591  30.049  0.00  0.00    +0.123 C 
ENDBRANCH   1  11
BRANCH   1  17
ATOM     17  C   UNL     1      51.898 157.460  28.614  0.00  0.00    +0.154 C 
ATOM     18  C   UNL     1      52.206 157.784  27.334  0.00  0.00    +0.038 C 
BRANCH  18  19
ATOM     19  C   UNL     1      52.798 156.864  26.394  0.00  0.00    +0.003 C 
ATOM     20  C   UNL     1      53.847 156.063  26.753  0.00  0.00    +0.000 C 
ATOM     21  C   UNL     1      54.401 155.183  25.842  0.00  0.00    +0.000 C 
ATOM     22  C   UNL     1      53.913 155.090  24.556  0.00  0.00    +0.000 C 
ATOM     23  C   UNL     1      52.856 155.895  24.184  0.00  0.00    +0.000 C 
ATOM     24  C   UNL     1      52.320 156.755  25.087  0.00  0.00    +0.000 C 
ENDBRANCH  18  19
BRANCH  17  25
ATOM     25  O   UNL     1      52.203 156.152  28.950  0.00  0.00    -0.445 OA
BRANCH  25  26
ATOM     26  C   UNL     1      51.286 155.107  28.728  0.00  0.00    +0.391 C 
ATOM     27  O   UNL     1      50.094 155.387  28.985  0.00  0.00    -0.167 OA
ENDBRANCH  25  26
ENDBRANCH  17  25
ENDBRANCH   1  17
TORSDOF 5
REMARK  Name = =
REMARK  7 active torsions:
REMARK  status: ('A' for Active; 'I' for Inactive)
REMARK    1  A    between atoms: C_1  and  C_3
REMARK    2  A    between atoms: C_1  and  O_25
REMARK    3  A    between atoms: C_2  and  C_19
REMARK    4  A    between atoms: C_3  and  N_13
REMARK    5  A    between atoms: O_25  and  C_26
REMARK    6  A    between atoms: O_29  and  O_36
REMARK    7  A    between atoms: N_32  and  N_33
REMARK                            x       y       z     vdW  Elec       q    Type
REMARK                         _______ _______ _______ _____ _____    ______ ____
ROOT
ATOM      1  P   UNL     1      51.747 153.549  28.153  0.00  0.00    +0.000 P 
ENDROOT
TORSDOF 0
REMARK  Name = =
REMARK  7 active torsions:
REMARK  status: ('A' for Active; 'I' for Inactive)
REMARK    1  A    between atoms: C_1  and  C_3
REMARK    2  A    between atoms: C_1  and  O_25
REMARK    3  A    between atoms: C_2  and  C_19
REMARK    4  A    between atoms: C_3  and  N_13
REMARK    5  A    between atoms: O_25  and  C_26
REMARK    6  A    between atoms: O_29  and  O_36
REMARK    7  A    between atoms: N_32  and  N_33
REMARK                            x       y       z     vdW  Elec       q    Type
REMARK                         _______ _______ _______ _____ _____    ______ ____
ROOT
ATOM      1  O   UNL     1      51.284 154.250  26.963  0.00  0.00    -0.253 OA
ATOM      2  H   UNL     1      50.991 154.696  26.153  0.00  0.00    +0.253 HD
ENDROOT
BRANCH   1   3
ATOM      3  O   UNL     1      50.924 152.851  26.900  0.00  0.00    -0.253 OA
ATOM      4  H   UNL     1      51.217 152.405  27.710  0.00  0.00    +0.253 HD
ENDBRANCH   1   3
TORSDOF 1
REMARK  Name = =
REMARK  7 active torsions:
REMARK  status: ('A' for Active; 'I' for Inactive)
REMARK    1  A    between atoms: C_1  and  C_3
REMARK    2  A    between atoms: C_1  and  O_25
REMARK    3  A    between atoms: C_2  and  C_19
REMARK    4  A    between atoms: C_3  and  N_13
REMARK    5  A    between atoms: O_25  and  C_26
REMARK    6  A    between atoms: O_29  and  O_36
REMARK    7  A    between atoms: N_32  and  N_33
REMARK                            x       y       z     vdW  Elec       q    Type
REMARK                         _______ _______ _______ _____ _____    ______ ____
ROOT
ATOM      1  C   UNL     1      53.439 153.135  28.202  0.00  0.00    +0.316 C 
ATOM      2  O   UNL     1      53.916 152.519  27.229  0.00  0.00    -0.264 OA
ATOM      3  N   UNL     1      54.255 153.463  29.276  0.00  0.00    -0.226 N 
ATOM      4  H   UNL     1      53.869 153.955  30.036  0.00  0.00    +0.173 HD
ENDROOT
BRANCH   3   5
ATOM      5  N   UNL     1      55.633 153.108  29.310  0.00  0.00    -0.226 N 
ATOM      6  C   UNL     1      56.140 152.074  30.118  0.00  0.00    +0.316 C 
ATOM      7  O   UNL     1      55.367 151.417  30.854  0.00  0.00    -0.264 OA
ATOM      8  H   UNL     1      56.261 153.610  28.741  0.00  0.00    +0.173 HD
ENDBRANCH   3   5
TORSDOF 1
REMARK  Name = =
REMARK  7 active torsions:
REMARK  status: ('A' for Active; 'I' for Inactive)
REMARK    1  A    between atoms: C_1  and  C_3
REMARK    2  A    between atoms: C_1  and  O_25
REMARK    3  A    between atoms: C_2  and  C_19
REMARK    4  A    between atoms: C_3  and  N_13
REMARK    5  A    between atoms: O_25  and  C_26
REMARK    6  A    between atoms: O_29  and  O_36
REMARK    7  A    between atoms: N_32  and  N_33
REMARK                            x       y       z     vdW  Elec       q    Type
REMARK                         _______ _______ _______ _____ _____    ______ ____
ROOT
ATOM      1  O   HOH     1      51.312 152.534  29.489  0.00  0.00    -0.253 OA
ATOM      2  H   HOH     0      52.282 152.534  29.489  0.00  0.00    +0.253 HD
ENDROOT
TORSDOF 0
