REMARK  Name = =
REMARK  8 active torsions:
REMARK  status: ('A' for Active; 'I' for Inactive)
REMARK    1  A    between atoms: S_1  and  N_2
REMARK    2  A    between atoms: S_1  and  S_14
REMARK    3  A    between atoms: S_1  and  C_26
REMARK    4  A    between atoms: C_15  and  P_19
REMARK    5  A    between atoms: P_19  and  O_20
REMARK    6  A    between atoms: P_19  and  C_23
REMARK    7  A    between atoms: O_20  and  O_21
REMARK    8  A    between atoms: C_23  and  O_25
REMARK                            x       y       z     vdW  Elec       q    Type
REMARK                         _______ _______ _______ _____ _____    ______ ____
ROOT
ATOM      1  S   UNL     1     -15.525 -41.339  25.924  0.00  0.00    -0.059 S 
ATOM      2  H   UNL     1     -15.789 -40.030  26.181  0.00  0.00    +0.125 HD
ENDROOT
BRANCH   1   3
ATOM      3  N   UNL     1     -14.550 -42.086  26.949  0.00  0.00    -0.251 N 
ATOM      4  C   UNL     1     -13.139 -42.368  26.830  0.00  0.00    +0.144 C 
ATOM      5  N   UNL     1     -12.312 -41.818  27.851  0.00  0.00    -0.282 NA
ATOM      6  C   UNL     1     -11.159 -42.720  27.745  0.00  0.00    +0.070 C 
ATOM      7  C   UNL     1     -11.730 -44.070  27.350  0.00  0.00    +0.025 C 
ATOM      8  C   UNL     1     -13.157 -43.805  27.304  0.00  0.00    +0.059 C 
ATOM      9  C   UNL     1     -13.979 -43.698  28.475  0.00  0.00    -0.005 C 
ATOM     10  C   UNL     1     -14.859 -42.648  28.226  0.00  0.00    +0.054 C 
ATOM     11  C   UNL     1     -15.832 -42.293  29.175  0.00  0.00    +0.015 C 
ATOM     12  C   UNL     1     -15.922 -42.981  30.363  0.00  0.00    +0.001 C 
ATOM     13  C   UNL     1     -15.057 -44.019  30.620  0.00  0.00    -0.000 C 
ATOM     14  C   UNL     1     -14.090 -44.375  29.676  0.00  0.00    -0.003 C 
ATOM     15  H   UNL     1     -12.754 -41.872  28.769  0.00  0.00    +0.125 HD
ENDBRANCH   1   3
BRANCH   1  16
ATOM     16  S   UNL     1     -17.090 -42.371  25.959  0.00  0.00    -0.157 S 
ATOM     17  C   UNL     1     -18.491 -41.425  26.324  0.00  0.00    +0.103 C 
ATOM     18  C   UNL     1     -18.952 -40.979  25.009  0.00  0.00    +0.106 C 
ATOM     19  N   UNL     1     -18.291 -41.627  23.947  0.00  0.00    -0.206 NA
ATOM     20  C   UNL     1     -17.712 -42.873  24.378  0.00  0.00    +0.136 C 
ATOM     21  H   UNL     1     -16.694 -43.358  26.807  0.00  0.00    +0.096 HD
BRANCH  17  22
ATOM     22  P   UNL     1     -19.802 -42.181  27.238  0.00  0.00    +0.138 P 
ATOM     23  H   UNL     1     -18.984 -41.959  28.327  0.00  0.00    +0.097 HD
BRANCH  22  24
ATOM     24  C   UNL     1     -21.335 -41.344  27.309  0.00  0.00    +0.348 C 
ATOM     25  O   UNL     1     -21.445 -40.150  26.991  0.00  0.00    -0.244 OA
BRANCH  24  26
ATOM     26  O   UNL     1     -22.483 -41.971  27.713  0.00  0.00    -0.476 OA
ATOM     27  H   UNL     1     -22.460 -42.873  27.965  0.00  0.00    +0.295 HD
ENDBRANCH  24  26
ENDBRANCH  22  24
BRANCH  22  28
ATOM     28  O   UNL     1     -20.028 -43.657  27.381  0.00  0.00    -0.213 OA
BRANCH  28  29
ATOM     29  O   UNL     1     -20.286 -43.280  26.010  0.00  0.00    -0.247 OA
ATOM     30  H   UNL     1     -20.544 -44.065  25.502  0.00  0.00    +0.253 HD
ENDBRANCH  28  29
ENDBRANCH  22  28
ENDBRANCH  17  22
ENDBRANCH   1  16
BRANCH   1  31
ATOM     31  C   UNL     1     -14.769 -41.538  24.456  0.00  0.00    +0.136 C 
ATOM     32  N   UNL     1     -14.255 -41.692  23.437  0.00  0.00    -0.183 NA
ENDBRANCH   1  31
TORSDOF 8
REMARK  Name = =
REMARK  8 active torsions:
REMARK  status: ('A' for Active; 'I' for Inactive)
REMARK    1  A    between atoms: S_1  and  N_2
REMARK    2  A    between atoms: S_1  and  S_14
REMARK    3  A    between atoms: S_1  and  C_26
REMARK    4  A    between atoms: C_15  and  P_19
REMARK    5  A    between atoms: P_19  and  O_20
REMARK    6  A    between atoms: P_19  and  C_23
REMARK    7  A    between atoms: O_20  and  O_21
REMARK    8  A    between atoms: C_23  and  O_25
REMARK                            x       y       z     vdW  Elec       q    Type
REMARK                         _______ _______ _______ _____ _____    ______ ____
ROOT
ATOM      1  O   HOH     1     -19.403 -42.987  28.641  0.00  0.00    -0.253 OA
ATOM      2  H   HOH     0     -18.433 -42.987  28.641  0.00  0.00    +0.253 HD
ENDROOT
TORSDOF 0
