REMARK  Name = =
REMARK  16 active torsions:
REMARK  status: ('A' for Active; 'I' for Inactive)
REMARK    1  A    between atoms: C_1  and  S_28
REMARK    2  A    between atoms: C_2  and  O_25
REMARK    3  A    between atoms: C_3  and  N_17
REMARK    4  A    between atoms: C_6  and  N_7
REMARK    5  A    between atoms: C_8  and  O_16
REMARK    6  A    between atoms: C_13  and  O_15
REMARK    7  A    between atoms: N_17  and  S_20
REMARK    8  A    between atoms: C_18  and  O_23
REMARK    9  A    between atoms: O_23  and  O_24
REMARK   10  A    between atoms: O_25  and  C_26
REMARK   11  A    between atoms: S_28  and  C_29
REMARK   12  A    between atoms: S_28  and  N_32
REMARK   13  A    between atoms: S_28  and  O_34
REMARK   14  A    between atoms: C_29  and  O_31
REMARK   15  A    between atoms: N_32  and  O_33
REMARK   16  A    between atoms: O_34  and  O_35
REMARK                            x       y       z     vdW  Elec       q    Type
REMARK                         _______ _______ _______ _____ _____    ______ ____
ROOT
ATOM      1  C   UNL     1     -10.060  -5.008  22.082  0.00  0.00    +0.106 C 
ATOM      2  C   UNL     1     -11.008  -5.988  21.955  0.00  0.00    +0.173 C 
ATOM      3  C   UNL     1     -12.394  -5.765  21.981  0.00  0.00    +0.114 C 
ATOM      4  C   UNL     1     -12.867  -4.489  22.149  0.00  0.00    +0.021 C 
ATOM      5  C   UNL     1     -11.958  -3.475  22.284  0.00  0.00    +0.018 C 
ATOM      6  C   UNL     1     -10.610  -3.713  22.254  0.00  0.00    +0.075 C 
ENDROOT
BRANCH   6   7
ATOM      7  N   UNL     1      -9.641  -2.624  22.401  0.00  0.00    -0.176 N 
ATOM      8  C   UNL     1      -9.068  -2.408  23.658  0.00  0.00    +0.411 C 
ATOM      9  O   UNL     1      -9.591  -2.890  24.667  0.00  0.00    -0.226 OA
ATOM     10  C   UNL     1      -9.474  -1.835  21.300  0.00  0.00    +0.198 C 
ATOM     11  N   UNL     1      -9.797  -2.476  20.133  0.00  0.00    -0.271 NA
ATOM     12  N   UNL     1      -9.082  -0.605  20.813  0.00  0.00    -0.223 N 
ATOM     13  C   UNL     1      -8.917   0.585  21.478  0.00  0.00    +0.404 C 
ATOM     14  O   UNL     1      -9.230   0.519  22.668  0.00  0.00    -0.226 OA
ATOM     15  H   UNL     1     -10.122  -3.405  20.155  0.00  0.00    +0.189 HD
ATOM     16  H   UNL     1      -8.893  -0.576  19.847  0.00  0.00    +0.161 HD
BRANCH   8  17
ATOM     17  O   UNL     1      -7.920  -1.676  23.813  0.00  0.00    -0.466 OA
ATOM     18  H   UNL     1      -7.501  -1.298  23.065  0.00  0.00    +0.297 HD
ENDBRANCH   8  17
BRANCH  13  19
ATOM     19  O   UNL     1      -8.452   1.706  20.855  0.00  0.00    -0.466 OA
ATOM     20  H   UNL     1      -8.234   1.679  19.944  0.00  0.00    +0.297 HD
ENDBRANCH  13  19
ENDBRANCH   6   7
BRANCH   3  21
ATOM     21  N   UNL     1     -13.312  -6.852  21.835  0.00  0.00    -0.105 N 
ATOM     22  C   UNL     1     -13.972  -7.363  22.971  0.00  0.00    +0.457 C 
ATOM     23  O   UNL     1     -13.787  -6.809  24.078  0.00  0.00    -0.221 OA
BRANCH  21  24
ATOM     24  S   UNL     1     -13.696  -7.538  20.298  0.00  0.00    +0.044 S 
ATOM     25  O   UNL     1     -12.749  -7.049  19.241  0.00  0.00    -0.157 OA
ATOM     26  O   UNL     1     -15.094  -7.152  19.920  0.00  0.00    -0.157 OA
ATOM     27  H   UNL     1     -13.586  -8.891  20.389  0.00  0.00    +0.234 HD
ENDBRANCH  21  24
BRANCH  22  28
ATOM     28  O   UNL     1     -14.826  -8.466  22.908  0.00  0.00    -0.277 OA
BRANCH  28  29
ATOM     29  O   UNL     1     -15.759  -8.594  23.882  0.00  0.00    -0.197 OA
ATOM     30  H   UNL     1     -16.284  -9.395  23.724  0.00  0.00    +0.268 HD
ENDBRANCH  28  29
ENDBRANCH  22  28
ENDBRANCH   3  21
BRANCH   1  31
ATOM     31  S   UNL     1      -8.446  -5.161  21.904  0.00  0.00    +0.077 S 
BRANCH  31  32
ATOM     32  N   UNL     1      -7.448  -4.206  21.566  0.00  0.00    -0.130 NA
ATOM     33  H   UNL     1      -7.933  -3.318  21.435  0.00  0.00    +0.169 HD
BRANCH  32  34
ATOM     34  O   UNL     1      -6.384  -3.947  22.399  0.00  0.00    -0.303 OA
ATOM     35  H   UNL     1      -5.888  -4.766  22.554  0.00  0.00    +0.237 HD
ENDBRANCH  32  34
ENDBRANCH  31  32
BRANCH  31  36
ATOM     36  C   UNL     1      -8.193  -6.558  20.661  0.00  0.00    +0.225 C 
ATOM     37  S   UNL     1      -8.415  -6.263  19.123  0.00  0.00    -0.002 S 
BRANCH  36  38
ATOM     38  O   UNL     1      -7.820  -7.726  21.219  0.00  0.00    -0.495 OA
ATOM     39  H   UNL     1      -7.717  -7.790  22.148  0.00  0.00    +0.293 HD
ENDBRANCH  36  38
ENDBRANCH  31  36
BRANCH  31  40
ATOM     40  O   UNL     1      -7.945  -6.056  23.391  0.00  0.00    -0.159 OA
BRANCH  40  41
ATOM     41  O   UNL     1      -6.690  -6.334  23.208  0.00  0.00    -0.238 OA
ATOM     42  H   UNL     1      -6.351  -6.820  23.976  0.00  0.00    +0.254 HD
ENDBRANCH  40  41
ENDBRANCH  31  40
ENDBRANCH   1  31
BRANCH   2  43
ATOM     43  O   UNL     1     -10.697  -7.353  21.792  0.00  0.00    -0.415 OA
BRANCH  43  44
ATOM     44  C   UNL     1     -10.590  -8.155  22.918  0.00  0.00    +0.423 C 
ATOM     45  O   UNL     1     -10.595  -7.710  24.083  0.00  0.00    -0.237 OA
ENDBRANCH  43  44
ENDBRANCH   2  43
TORSDOF 16
