REMARK  Name = =
REMARK  0 active torsions:
REMARK  status: ('A' for Active; 'I' for Inactive)
REMARK                            x       y       z     vdW  Elec       q    Type
REMARK                         _______ _______ _______ _____ _____    ______ ____
ROOT
ATOM      1  C   UNL     1      52.217 157.349  29.200  0.00  0.00    +0.000 C 
ATOM      2  C   UNL     1      51.966 158.672  29.523  0.00  0.00    +0.000 C 
ATOM      3  C   UNL     1      50.757 159.090  30.036  0.00  0.00    +0.000 C 
ATOM      4  C   UNL     1      49.736 158.182  30.247  0.00  0.00    +0.000 C 
ATOM      5  C   UNL     1      49.989 156.866  29.924  0.00  0.00    +0.000 C 
ATOM      6  C   UNL     1      51.197 156.444  29.411  0.00  0.00    +0.000 C 
ATOM      7  C   UNL     1      48.514 158.593  30.763  0.00  0.00    +0.000 C 
ATOM      8  C   UNL     1      48.287 159.915  31.078  0.00  0.00    +0.000 C 
ATOM      9  C   UNL     1      49.294 160.834  30.873  0.00  0.00    +0.000 C 
ATOM     10  C   UNL     1      50.511 160.411  30.356  0.00  0.00    +0.000 C 
ENDROOT
TORSDOF 0
