REMARK  Name = =
REMARK  0 active torsions:
REMARK  status: ('A' for Active; 'I' for Inactive)
REMARK                            x       y       z     vdW  Elec       q    Type
REMARK                         _______ _______ _______ _____ _____    ______ ____
ROOT
ATOM      1  C   UNL     1      52.645 156.749  27.241  0.00  0.00    +0.022 C 
ATOM      2  C   UNL     1      53.360 156.460  25.959  0.00  0.00    +0.004 C 
ATOM      3  C   UNL     1      52.865 155.280  25.211  0.00  0.00    +0.001 C 
ATOM      4  C   UNL     1      52.431 154.121  26.019  0.00  0.00    +0.004 C 
ATOM      5  C   UNL     1      51.599 154.460  27.215  0.00  0.00    +0.022 C 
ATOM      6  C   UNL     1      52.297 155.516  28.000  0.00  0.00    -0.044 C 
ATOM      7  C   UNL     1      52.567 155.334  29.266  0.00  0.00    -0.009 C 
ENDROOT
TORSDOF 0
