REMARK  Name = =
REMARK  2 active torsions:
REMARK  status: ('A' for Active; 'I' for Inactive)
REMARK    1  A    between atoms: C_1  and  C_11
REMARK    2  A    between atoms: N_13  and  C_14
REMARK                            x       y       z     vdW  Elec       q    Type
REMARK                         _______ _______ _______ _____ _____    ______ ____
ROOT
ATOM      1  C   UNL     1      51.400 157.182  28.968  0.00  0.00    +0.054 C 
ATOM      2  C   UNL     1      51.927 158.419  29.242  0.00  0.00    +0.005 C 
ATOM      3  C   UNL     1      51.310 159.284  30.127  0.00  0.00    +0.000 C 
ATOM      4  C   UNL     1      50.137 158.917  30.760  0.00  0.00    +0.000 C 
ATOM      5  C   UNL     1      49.604 157.670  30.484  0.00  0.00    +0.000 C 
ATOM      6  C   UNL     1      50.223 156.816  29.604  0.00  0.00    +0.005 C 
ATOM      7  C   UNL     1      49.518 159.780  31.646  0.00  0.00    +0.000 C 
ATOM      8  C   UNL     1      50.043 161.032  31.929  0.00  0.00    +0.000 C 
ATOM      9  C   UNL     1      51.209 161.368  31.283  0.00  0.00    +0.000 C 
ATOM     10  C   UNL     1      51.859 160.541  30.395  0.00  0.00    +0.000 C 
ENDROOT
BRANCH   1  11
ATOM     11  C   UNL     1      52.018 156.248  28.046  0.00  0.00    +0.258 C 
ATOM     12  O   UNL     1      51.731 155.031  28.135  0.00  0.00    -0.269 OA
ATOM     13  N   UNL     1      52.935 156.654  27.044  0.00  0.00    -0.219 N 
ATOM     14  H   UNL     1      53.175 157.604  26.953  0.00  0.00    +0.167 HD
BRANCH  13  15
ATOM     15  C   UNL     1      53.509 155.688  26.168  0.00  0.00    +0.173 C 
ATOM     16  N   UNL     1      53.975 154.913  25.447  0.00  0.00    -0.174 NA
ENDBRANCH  13  15
ENDBRANCH   1  11
TORSDOF 2
