REMARK  Name = =
REMARK  2 active torsions:
REMARK  status: ('A' for Active; 'I' for Inactive)
REMARK    1  A    between atoms: C_2  and  C_3
REMARK    2  A    between atoms: C_2  and  C_10
REMARK                            x       y       z     vdW  Elec       q    Type
REMARK                         _______ _______ _______ _____ _____    ______ ____
ROOT
ATOM      1  O   UNL     1      54.160 156.253  26.389  0.00  0.00    -0.291 OA
ATOM      2  C   UNL     1      53.376 155.289  26.345  0.00  0.00    +0.176 C 
ENDROOT
BRANCH   2   3
ATOM      3  C   UNL     1      53.315 154.436  25.147  0.00  0.00    +0.080 C 
ATOM      4  C   UNL     1      52.551 153.205  25.504  0.00  0.00    +0.012 C 
ATOM      5  C   UNL     1      53.340 151.947  25.652  0.00  0.00    +0.001 C 
ATOM      6  C   UNL     1      54.666 151.879  25.023  0.00  0.00    +0.004 C 
ATOM      7  C   UNL     1      54.803 152.848  23.874  0.00  0.00    +0.022 C 
ATOM      8  C   UNL     1      54.615 154.208  24.491  0.00  0.00    -0.037 C 
ATOM      9  C   UNL     1      55.579 155.114  24.420  0.00  0.00    -0.009 C 
ENDBRANCH   2   3
BRANCH   2  10
ATOM     10  C   UNL     1      52.516 154.989  27.472  0.00  0.00    +0.035 C 
ATOM     11  C   UNL     1      52.479 153.715  28.036  0.00  0.00    +0.003 C 
ATOM     12  C   UNL     1      51.688 153.403  29.114  0.00  0.00    +0.000 C 
ATOM     13  C   UNL     1      50.892 154.384  29.672  0.00  0.00    +0.000 C 
ATOM     14  C   UNL     1      50.893 155.658  29.152  0.00  0.00    +0.000 C 
ATOM     15  C   UNL     1      51.702 155.938  28.066  0.00  0.00    +0.003 C 
ENDBRANCH   2  10
TORSDOF 2
