REMARK  Name = =
REMARK  3 active torsions:
REMARK  status: ('A' for Active; 'I' for Inactive)
REMARK    1  A    between atoms: C_1  and  N_8
REMARK    2  A    between atoms: C_1  and  C_14
REMARK    3  A    between atoms: C_14  and  C_15
REMARK                            x       y       z     vdW  Elec       q    Type
REMARK                         _______ _______ _______ _____ _____    ______ ____
ROOT
ATOM      1  C   UNL     1      52.588 154.522  27.610  0.00  0.00    +0.151 C 
ATOM      2  C   UNL     1      53.425 154.211  28.796  0.00  0.00    +0.032 C 
ATOM      3  C   UNL     1      52.745 154.311  30.127  0.00  0.00    +0.003 C 
ATOM      4  C   UNL     1      51.378 153.652  30.057  0.00  0.00    +0.004 C 
ATOM      5  C   UNL     1      50.531 154.525  29.193  0.00  0.00    +0.024 C 
ATOM      6  C   UNL     1      51.152 154.751  27.871  0.00  0.00    -0.020 C 
ATOM      7  C   UNL     1      50.388 155.172  26.883  0.00  0.00    -0.007 C 
ENDROOT
BRANCH   1   8
ATOM      8  N   UNL     1      52.656 153.378  26.711  0.00  0.00    -0.184 N 
ATOM      9  N   UNL     1      52.837 152.149  27.120  0.00  0.00    -0.153 NA
ATOM     10  C   UNL     1      52.852 151.327  26.078  0.00  0.00    +0.218 C 
ATOM     11  N   UNL     1      52.671 152.076  24.976  0.00  0.00    -0.203 NA
ATOM     12  C   UNL     1      52.551 153.351  25.384  0.00  0.00    +0.186 C 
ENDBRANCH   1   8
BRANCH   1  14
ATOM     13  O   UNL     1      52.866 156.846  27.487  0.00  0.00    -0.289 OA
ATOM     14  C   UNL     1      53.143 155.737  26.959  0.00  0.00    +0.194 C 
BRANCH  14  15
ATOM     15  C   UNL     1      53.963 155.743  25.784  0.00  0.00    +0.037 C 
ATOM     16  C   UNL     1      54.671 154.647  25.370  0.00  0.00    +0.003 C 
ATOM     17  C   UNL     1      55.467 154.683  24.220  0.00  0.00    +0.000 C 
ATOM     18  C   UNL     1      55.560 155.815  23.477  0.00  0.00    +0.000 C 
ATOM     19  C   UNL     1      54.860 156.935  23.865  0.00  0.00    +0.000 C 
ATOM     20  C   UNL     1      54.083 156.885  24.997  0.00  0.00    +0.003 C 
ENDBRANCH  14  15
ENDBRANCH   1  14
TORSDOF 3
