REMARK  Name = =
REMARK  3 active torsions:
REMARK  status: ('A' for Active; 'I' for Inactive)
REMARK    1  A    between atoms: C_1  and  C_17
REMARK    2  A    between atoms: C_2  and  C_11
REMARK    3  A    between atoms: N_19  and  C_20
REMARK                            x       y       z     vdW  Elec       q    Type
REMARK                         _______ _______ _______ _____ _____    ______ ____
ROOT
ATOM      1  C   UNL     1      52.079 159.107  29.998  0.00  0.00    +0.052 C 
ATOM      2  C   UNL     1      51.409 157.969  29.530  0.00  0.00    +0.004 C 
ATOM      3  C   UNL     1      52.044 157.144  28.576  0.00  0.00    -0.002 C 
ATOM      4  C   UNL     1      53.305 157.489  28.117  0.00  0.00    -0.000 C 
ATOM      5  C   UNL     1      53.936 158.628  28.599  0.00  0.00    +0.000 C 
ATOM      6  C   UNL     1      53.324 159.415  29.527  0.00  0.00    +0.004 C 
ATOM      7  C   UNL     1      54.024 156.690  27.255  0.00  0.00    -0.000 C 
ATOM      8  C   UNL     1      53.489 155.495  26.832  0.00  0.00    -0.000 C 
ATOM      9  C   UNL     1      52.249 155.118  27.278  0.00  0.00    -0.000 C 
ATOM     10  C   UNL     1      51.541 155.936  28.141  0.00  0.00    -0.000 C 
ENDROOT
BRANCH   2  11
ATOM     11  C   UNL     1      50.169 157.531  30.124  0.00  0.00    +0.141 C 
ATOM     12  N   UNL     1      49.606 156.630  28.945  0.00  0.00    -0.265 N 
ATOM     13  C   UNL     1      48.384 156.164  29.492  0.00  0.00    +0.402 C 
ATOM     14  O   UNL     1      47.855 155.025  29.371  0.00  0.00    -0.226 OA
ATOM     15  O   UNL     1      47.903 157.285  30.205  0.00  0.00    -0.432 OA
ATOM     16  C   UNL     1      48.887 158.345  29.944  0.00  0.00    +0.234 C 
ATOM     17  H   UNL     1      50.002 156.443  28.063  0.00  0.00    +0.153 HD
ENDBRANCH   2  11
BRANCH   1  18
ATOM     18  C   UNL     1      51.437 160.033  30.942  0.00  0.00    +0.257 C 
ATOM     19  O   UNL     1      51.868 160.109  32.112  0.00  0.00    -0.269 OA
ATOM     20  N   UNL     1      50.355 160.838  30.533  0.00  0.00    -0.219 N 
ATOM     21  H   UNL     1      50.023 160.777  29.608  0.00  0.00    +0.167 HD
BRANCH  20  22
ATOM     22  C   UNL     1      49.740 161.737  31.446  0.00  0.00    +0.173 C 
ATOM     23  N   UNL     1      49.232 162.468  32.180  0.00  0.00    -0.174 NA
ENDBRANCH  20  22
ENDBRANCH   1  18
TORSDOF 3
