REMARK  Name = =
REMARK  5 active torsions:
REMARK  status: ('A' for Active; 'I' for Inactive)
REMARK    1  A    between atoms: C_1  and  N_8
REMARK    2  A    between atoms: C_1  and  C_18
REMARK    3  A    between atoms: C_10  and  S_13
REMARK    4  A    between atoms: S_13  and  C_14
REMARK    5  A    between atoms: C_18  and  C_19
REMARK                            x       y       z     vdW  Elec       q    Type
REMARK                         _______ _______ _______ _____ _____    ______ ____
ROOT
ATOM      1  C   UNL     1      53.252 153.239  26.386  0.00  0.00    +0.151 C 
ATOM      2  C   UNL     1      52.799 152.028  25.560  0.00  0.00    +0.032 C 
ATOM      3  C   UNL     1      53.937 151.520  24.705  0.00  0.00    +0.003 C 
ATOM      4  C   UNL     1      55.171 151.179  25.462  0.00  0.00    +0.004 C 
ATOM      5  C   UNL     1      55.639 152.385  26.261  0.00  0.00    +0.024 C 
ATOM      6  C   UNL     1      54.482 152.812  27.102  0.00  0.00    -0.020 C 
ATOM      7  C   UNL     1      54.609 152.758  28.407  0.00  0.00    -0.007 C 
ENDROOT
BRANCH   1   8
ATOM      8  N   UNL     1      53.441 154.345  25.479  0.00  0.00    -0.183 N 
ATOM      9  N   UNL     1      54.494 154.693  24.773  0.00  0.00    -0.149 NA
ATOM     10  C   UNL     1      54.276 155.784  24.044  0.00  0.00    +0.216 C 
ATOM     11  N   UNL     1      53.012 156.169  24.286  0.00  0.00    -0.200 NA
ATOM     12  C   UNL     1      52.512 155.300  25.150  0.00  0.00    +0.187 C 
BRANCH  10  13
ATOM     13  S   UNL     1      55.429 156.578  22.961  0.00  0.00    +0.009 S 
BRANCH  13  14
ATOM     14  C   UNL     1      55.801 155.529  21.558  0.00  0.00    +0.277 C 
ATOM     15  O   UNL     1      55.509 154.317  21.617  0.00  0.00    -0.263 OA
ATOM     16  N   UNL     1      56.417 156.074  20.404  0.00  0.00    -0.320 N 
ATOM     17  H   UNL     1      56.620 155.495  19.634  0.00  0.00    +0.146 HD
ATOM     18  H   UNL     1      56.642 157.032  20.372  0.00  0.00    +0.146 HD
ENDBRANCH  13  14
ENDBRANCH  10  13
ENDBRANCH   1   8
BRANCH   1  20
ATOM     19  O   UNL     1      51.222 152.731  27.446  0.00  0.00    -0.289 OA
ATOM     20  C   UNL     1      52.145 153.598  27.288  0.00  0.00    +0.194 C 
BRANCH  20  21
ATOM     21  C   UNL     1      52.023 154.832  27.999  0.00  0.00    +0.037 C 
ATOM     22  C   UNL     1      51.081 154.984  28.988  0.00  0.00    +0.003 C 
ATOM     23  C   UNL     1      50.920 156.160  29.688  0.00  0.00    +0.000 C 
ATOM     24  C   UNL     1      51.731 157.232  29.393  0.00  0.00    +0.000 C 
ATOM     25  C   UNL     1      52.674 157.101  28.414  0.00  0.00    +0.000 C 
ATOM     26  C   UNL     1      52.825 155.909  27.716  0.00  0.00    +0.003 C 
ENDBRANCH  20  21
ENDBRANCH   1  20
TORSDOF 5
