REMARK  Name = =
REMARK  4 active torsions:
REMARK  status: ('A' for Active; 'I' for Inactive)
REMARK    1  A    between atoms: C_1  and  C_22
REMARK    2  A    between atoms: C_2  and  C_11
REMARK    3  A    between atoms: C_11  and  N_17
REMARK    4  A    between atoms: N_24  and  C_25
REMARK                            x       y       z     vdW  Elec       q    Type
REMARK                         _______ _______ _______ _____ _____    ______ ____
ROOT
ATOM      1  C   UNL     1      52.965 158.380  29.489  0.00  0.00    +0.053 C 
ATOM      2  C   UNL     1      52.084 157.404  29.072  0.00  0.00    +0.016 C 
ATOM      3  C   UNL     1      50.780 157.584  29.495  0.00  0.00    -0.001 C 
ATOM      4  C   UNL     1      50.381 158.656  30.274  0.00  0.00    -0.000 C 
ATOM      5  C   UNL     1      51.282 159.589  30.660  0.00  0.00    +0.000 C 
ATOM      6  C   UNL     1      52.562 159.457  30.274  0.00  0.00    +0.004 C 
ATOM      7  C   UNL     1      49.087 158.821  30.684  0.00  0.00    -0.000 C 
ATOM      8  C   UNL     1      48.120 157.914  30.331  0.00  0.00    -0.000 C 
ATOM      9  C   UNL     1      48.465 156.842  29.564  0.00  0.00    -0.000 C 
ATOM     10  C   UNL     1      49.791 156.704  29.164  0.00  0.00    -0.000 C 
ENDROOT
BRANCH   2  11
ATOM     11  C   UNL     1      52.555 156.298  28.321  0.00  0.00    +0.168 C 
ATOM     12  N   UNL     1      53.727 156.069  27.655  0.00  0.00    -0.255 N 
ATOM     13  C   UNL     1      53.534 156.256  26.234  0.00  0.00    +0.403 C 
ATOM     14  O   UNL     1      54.364 156.570  25.375  0.00  0.00    -0.226 OA
ATOM     15  O   UNL     1      52.202 156.012  25.991  0.00  0.00    -0.431 OA
ATOM     16  C   UNL     1      51.488 156.046  27.218  0.00  0.00    +0.248 C 
ATOM     17  H   UNL     1      54.577 155.814  28.080  0.00  0.00    +0.154 HD
BRANCH  11  18
ATOM     18  N   UNL     1      52.457 155.046  29.164  0.00  0.00    -0.255 NA
ATOM     19  C   UNL     1      51.251 154.324  28.771  0.00  0.00    +0.074 C 
ATOM     20  C   UNL     1      51.601 152.861  29.048  0.00  0.00    +0.019 C 
ATOM     21  C   UNL     1      52.947 152.826  28.357  0.00  0.00    +0.019 C 
ATOM     22  C   UNL     1      53.529 154.147  28.777  0.00  0.00    +0.074 C 
ENDBRANCH  11  18
ENDBRANCH   2  11
BRANCH   1  23
ATOM     23  C   UNL     1      54.360 158.464  29.142  0.00  0.00    +0.257 C 
ATOM     24  O   UNL     1      55.271 157.985  29.879  0.00  0.00    -0.269 OA
ATOM     25  N   UNL     1      54.789 159.100  27.962  0.00  0.00    -0.219 N 
ATOM     26  H   UNL     1      54.132 159.506  27.352  0.00  0.00    +0.167 HD
BRANCH  25  27
ATOM     27  C   UNL     1      56.163 159.153  27.658  0.00  0.00    +0.173 C 
ATOM     28  N   UNL     1      57.305 159.194  27.397  0.00  0.00    -0.174 NA
ENDBRANCH  25  27
ENDBRANCH   1  23
TORSDOF 4
