REMARK  Name = =
REMARK  10 active torsions:
REMARK  status: ('A' for Active; 'I' for Inactive)
REMARK    1  A    between atoms: N_1  and  C_6
REMARK    2  A    between atoms: C_3  and  S_21
REMARK    3  A    between atoms: C_6  and  C_14
REMARK    4  A    between atoms: C_14  and  C_15
REMARK    5  A    between atoms: S_21  and  C_22
REMARK    6  A    between atoms: N_24  and  S_25
REMARK    7  A    between atoms: S_25  and  P_26
REMARK    8  A    between atoms: P_26  and  O_27
REMARK    9  A    between atoms: P_26  and  O_28
REMARK   10  A    between atoms: P_26  and  O_29
REMARK                            x       y       z     vdW  Elec       q    Type
REMARK                         _______ _______ _______ _____ _____    ______ ____
ROOT
ATOM      1  N   UNL     1      53.124 155.350  26.585  0.00  0.00    -0.183 N 
ATOM      2  N   UNL     1      52.638 155.063  27.791  0.00  0.00    -0.149 NA
ATOM      3  C   UNL     1      52.231 156.167  28.405  0.00  0.00    +0.216 C 
ATOM      4  N   UNL     1      52.458 157.191  27.582  0.00  0.00    -0.200 NA
ATOM      5  C   UNL     1      53.015 156.677  26.446  0.00  0.00    +0.187 C 
ENDROOT
BRANCH   1   6
ATOM      6  C   UNL     1      53.652 154.412  25.616  0.00  0.00    +0.151 C 
ATOM      7  C   UNL     1      52.442 153.918  24.781  0.00  0.00    +0.032 C 
ATOM      8  C   UNL     1      52.534 154.529  23.422  0.00  0.00    +0.003 C 
ATOM      9  C   UNL     1      53.655 153.808  22.680  0.00  0.00    +0.004 C 
ATOM     10  C   UNL     1      54.926 154.072  23.487  0.00  0.00    +0.024 C 
ATOM     11  C   UNL     1      54.561 155.009  24.626  0.00  0.00    -0.020 C 
ATOM     12  C   UNL     1      55.073 156.204  24.592  0.00  0.00    -0.007 C 
BRANCH   6  14
ATOM     13  O   UNL     1      53.469 152.424  26.894  0.00  0.00    -0.289 OA
ATOM     14  C   UNL     1      54.251 153.208  26.258  0.00  0.00    +0.194 C 
BRANCH  14  15
ATOM     15  C   UNL     1      55.650 152.858  26.219  0.00  0.00    +0.037 C 
ATOM     16  C   UNL     1      56.045 151.684  26.866  0.00  0.00    +0.003 C 
ATOM     17  C   UNL     1      57.352 151.326  26.857  0.00  0.00    +0.000 C 
ATOM     18  C   UNL     1      58.306 152.093  26.221  0.00  0.00    +0.000 C 
ATOM     19  C   UNL     1      57.905 153.247  25.586  0.00  0.00    +0.000 C 
ATOM     20  C   UNL     1      56.564 153.648  25.575  0.00  0.00    +0.003 C 
ENDBRANCH  14  15
ENDBRANCH   6  14
ENDBRANCH   1   6
BRANCH   3  21
ATOM     21  S   UNL     1      51.502 156.346  30.039  0.00  0.00    +0.010 S 
BRANCH  21  22
ATOM     22  C   UNL     1      50.455 157.789  30.105  0.00  0.00    +0.288 C 
ATOM     23  O   UNL     1      49.271 157.731  30.507  0.00  0.00    -0.262 OA
ATOM     24  N   UNL     1      50.993 159.026  29.689  0.00  0.00    -0.253 N 
ATOM     25  H   UNL     1      51.927 159.046  29.378  0.00  0.00    +0.163 HD
BRANCH  24  26
ATOM     26  S   UNL     1      50.096 160.520  29.695  0.00  0.00    -0.044 S 
ATOM     27  H   UNL     1      49.484 160.667  28.490  0.00  0.00    +0.122 HD
BRANCH  26  28
ATOM     28  P   UNL     1      48.780 160.563  31.056  0.00  0.00    +0.294 P 
BRANCH  28  29
ATOM     29  O   UNL     1      48.414 162.178  31.463  0.00  0.00    -0.327 OA
ATOM     30  H   UNL     1      49.224 162.633  31.741  0.00  0.00    +0.219 HD
ENDBRANCH  28  29
BRANCH  28  31
ATOM     31  O   UNL     1      47.346 159.828  30.585  0.00  0.00    -0.327 OA
ATOM     32  H   UNL     1      47.005 160.265  29.789  0.00  0.00    +0.219 HD
ENDBRANCH  28  31
BRANCH  28  33
ATOM     33  O   UNL     1      49.381 159.810  32.440  0.00  0.00    -0.327 OA
ATOM     34  H   UNL     1      50.209 160.238  32.707  0.00  0.00    +0.219 HD
ENDBRANCH  28  33
ENDBRANCH  26  28
ENDBRANCH  24  26
ENDBRANCH  21  22
ENDBRANCH   3  21
TORSDOF 10
