REMARK  Name = =
REMARK  13 active torsions:
REMARK  status: ('A' for Active; 'I' for Inactive)
REMARK    1  A    between atoms: S_1  and  C_4
REMARK    2  A    between atoms: S_1  and  C_22
REMARK    3  A    between atoms: N_2  and  C_7
REMARK    4  A    between atoms: C_7  and  C_15
REMARK    5  A    between atoms: C_15  and  C_16
REMARK    6  A    between atoms: N_24  and  S_25
REMARK    7  A    between atoms: S_25  and  P_26
REMARK    8  A    between atoms: P_26  and  O_27
REMARK    9  A    between atoms: P_26  and  O_28
REMARK   10  A    between atoms: P_26  and  O_29
REMARK   11  A    between atoms: O_29  and  N_30
REMARK   12  A    between atoms: N_30  and  N_31
REMARK   13  A    between atoms: C_32  and  O_34
REMARK                            x       y       z     vdW  Elec       q    Type
REMARK                         _______ _______ _______ _____ _____    ______ ____
ROOT
ATOM      1  S   UNL     1      51.062 155.924  29.923  0.00  0.00    +0.010 S 
ENDROOT
BRANCH   1   4
ATOM      2  N   UNL     1      53.118 154.362  27.017  0.00  0.00    -0.187 N 
ATOM      3  N   UNL     1      52.643 154.339  28.242  0.00  0.00    -0.150 NA
ATOM      4  C   UNL     1      51.935 155.468  28.456  0.00  0.00    +0.216 C 
ATOM      5  N   UNL     1      51.998 156.170  27.330  0.00  0.00    -0.200 NA
ATOM      6  C   UNL     1      52.752 155.475  26.397  0.00  0.00    +0.187 C 
BRANCH   2   7
ATOM      7  C   UNL     1      53.903 153.257  26.377  0.00  0.00    +0.132 C 
ATOM      8  C   UNL     1      54.354 153.780  25.061  0.00  0.00    +0.053 C 
ATOM      9  C   UNL     1      55.775 153.584  24.675  0.00  0.00    -0.028 C 
ATOM     10  C   UNL     1      56.641 152.689  25.459  0.00  0.00    -0.026 C 
ATOM     11  C   UNL     1      56.078 152.026  26.666  0.00  0.00    +0.049 C 
ATOM     12  C   UNL     1      55.045 152.967  27.247  0.00  0.00    -0.019 C 
ATOM     13  C   UNL     1      55.309 153.427  28.423  0.00  0.00    -0.007 C 
BRANCH   7  15
ATOM     14  O   UNL     1      51.674 152.519  26.794  0.00  0.00    -0.216 OA
ATOM     15  C   UNL     1      52.860 152.183  26.321  0.00  0.00    +0.196 C 
BRANCH  15  16
ATOM     16  C   UNL     1      52.913 150.838  25.852  0.00  0.00    +0.010 C 
ATOM     17  C   UNL     1      53.925 150.319  25.124  0.00  0.00    -0.002 C 
ATOM     18  C   UNL     1      53.997 148.994  24.689  0.00  0.00    -0.000 C 
ATOM     19  C   UNL     1      52.973 148.141  25.016  0.00  0.00    -0.000 C 
ATOM     20  C   UNL     1      51.925 148.657  25.763  0.00  0.00    -0.000 C 
ATOM     21  C   UNL     1      51.866 149.964  26.184  0.00  0.00    -0.002 C 
ENDBRANCH  15  16
ENDBRANCH   7  15
ENDBRANCH   2   7
ENDBRANCH   1   4
BRANCH   1  22
ATOM     22  C   UNL     1      50.453 157.586  29.910  0.00  0.00    +0.288 C 
ATOM     23  O   UNL     1      49.540 157.894  30.752  0.00  0.00    -0.262 OA
ATOM     24  N   UNL     1      50.890 158.618  29.039  0.00  0.00    -0.253 N 
ATOM     25  H   UNL     1      51.593 158.415  28.380  0.00  0.00    +0.163 HD
BRANCH  24  26
ATOM     26  S   UNL     1      50.226 160.241  29.091  0.00  0.00    -0.043 S 
ATOM     27  H   UNL     1      49.270 160.370  28.133  0.00  0.00    +0.122 HD
BRANCH  26  28
ATOM     28  P   UNL     1      49.456 160.561  30.800  0.00  0.00    +0.314 P 
BRANCH  28  29
ATOM     29  O   UNL     1      49.362 162.237  31.039  0.00  0.00    -0.326 OA
ATOM     30  H   UNL     1      50.256 162.613  31.050  0.00  0.00    +0.219 HD
ENDBRANCH  28  29
BRANCH  28  31
ATOM     31  O   UNL     1      47.874 159.978  30.792  0.00  0.00    -0.326 OA
ATOM     32  H   UNL     1      47.376 160.404  30.077  0.00  0.00    +0.219 HD
ENDBRANCH  28  31
BRANCH  28  33
ATOM     33  O   UNL     1      50.415 159.893  31.999  0.00  0.00    -0.204 OA
BRANCH  33  34
ATOM     34  N   UNL     1      49.916 160.023  33.234  0.00  0.00    -0.107 NA
ATOM     35  H   UNL     1      50.675 159.874  33.898  0.00  0.00    +0.178 HD
BRANCH  34  36
ATOM     36  N   UNL     1      49.340 161.251  33.511  0.00  0.00    -0.193 N 
ATOM     37  C   UNL     1      47.961 161.354  33.918  0.00  0.00    +0.413 C 
ATOM     38  O   UNL     1      47.251 160.325  34.030  0.00  0.00    -0.225 OA
ATOM     39  H   UNL     1      49.882 162.069  33.429  0.00  0.00    +0.175 HD
BRANCH  37  40
ATOM     40  O   UNL     1      47.432 162.611  34.184  0.00  0.00    -0.465 OA
ATOM     41  H   UNL     1      47.970 163.373  34.098  0.00  0.00    +0.297 HD
ENDBRANCH  37  40
ENDBRANCH  34  36
ENDBRANCH  33  34
ENDBRANCH  28  33
ENDBRANCH  26  28
ENDBRANCH  24  26
ENDBRANCH   1  22
TORSDOF 13
