REMARK  Name = =
REMARK  12 active torsions:
REMARK  status: ('A' for Active; 'I' for Inactive)
REMARK    1  A    between atoms: N_1  and  C_15
REMARK    2  A    between atoms: N_4  and  C_7
REMARK    3  A    between atoms: C_6  and  C_33
REMARK    4  A    between atoms: C_14  and  O_20
REMARK    5  A    between atoms: C_18  and  O_23
REMARK    6  A    between atoms: O_20  and  N_21
REMARK    7  A    between atoms: O_23  and  C_24
REMARK    8  A    between atoms: C_24  and  C_26
REMARK    9  A    between atoms: C_26  and  C_28
REMARK   10  A    between atoms: C_28  and  O_30
REMARK   11  A    between atoms: O_30  and  C_31
REMARK   12  A    between atoms: C_33  and  C_35
REMARK                            x       y       z     vdW  Elec       q    Type
REMARK                         _______ _______ _______ _____ _____    ______ ____
ROOT
ATOM      1  N   UNL     1      -8.458  -4.370  21.586  0.00  0.00    -0.286 N 
ATOM      2  C   UNL     1      -8.533  -5.276  22.624  0.00  0.00    +0.114 C 
ATOM      3  C   UNL     1      -9.723  -5.223  23.547  0.00  0.00    +0.112 C 
ATOM      4  N   UNL     1     -10.844  -4.539  22.958  0.00  0.00    -0.304 N 
ATOM      5  C   UNL     1     -10.601  -3.394  22.047  0.00  0.00    +0.113 C 
ATOM      6  C   UNL     1      -9.677  -3.932  21.023  0.00  0.00    +0.128 C 
ENDROOT
BRANCH   4   7
ATOM      7  C   UNL     1     -12.167  -4.940  23.234  0.00  0.00    +0.048 C 
ATOM      8  C   UNL     1     -12.371  -5.850  24.272  0.00  0.00    +0.017 C 
ATOM      9  C   UNL     1     -13.643  -6.296  24.567  0.00  0.00    +0.031 C 
ATOM     10  C   UNL     1     -14.758  -5.892  23.887  0.00  0.00    +0.140 C 
ATOM     11  C   UNL     1     -14.563  -4.994  22.863  0.00  0.00    +0.031 C 
ATOM     12  C   UNL     1     -13.281  -4.534  22.552  0.00  0.00    +0.017 C 
ATOM     13  F   UNL     1     -15.975  -6.369  24.227  0.00  0.00    -0.204 F 
ENDBRANCH   4   7
BRANCH   1  15
ATOM     14  C   UNL     1      -6.265  -3.784  20.830  0.00  0.00    +0.204 C 
ATOM     15  C   UNL     1      -7.384  -3.474  21.596  0.00  0.00    +0.169 C 
ATOM     16  N   UNL     1      -7.382  -2.309  22.303  0.00  0.00    -0.223 NA
ATOM     17  C   UNL     1      -6.367  -1.457  22.295  0.00  0.00    +0.138 C 
ATOM     18  C   UNL     1      -5.257  -1.725  21.557  0.00  0.00    +0.171 C 
ATOM     19  C   UNL     1      -5.207  -2.904  20.816  0.00  0.00    +0.082 C 
BRANCH  14  20
ATOM     20  O   UNL     1      -6.201  -4.959  20.086  0.00  0.00    -0.355 OA
BRANCH  20  21
ATOM     21  N   UNL     1      -5.231  -5.069  19.132  0.00  0.00    +0.159 NA
ATOM     22  O   UNL     1      -5.468  -4.803  17.923  0.00  0.00    -0.057 OA
ENDBRANCH  20  21
ENDBRANCH  14  20
BRANCH  18  23
ATOM     23  O   UNL     1      -4.151  -0.904  21.480  0.00  0.00    -0.417 OA
BRANCH  23  24
ATOM     24  C   UNL     1      -3.015  -1.131  22.244  0.00  0.00    +0.392 C 
ATOM     25  O   UNL     1      -3.105  -2.008  23.143  0.00  0.00    -0.241 OA
BRANCH  24  26
ATOM     26  C   UNL     1      -1.782  -0.396  22.026  0.00  0.00    +0.346 C 
ATOM     27  O   UNL     1      -1.714   0.459  21.114  0.00  0.00    -0.273 OA
BRANCH  26  28
ATOM     28  C   UNL     1      -0.610  -0.633  22.846  0.00  0.00    +0.392 C 
ATOM     29  O   UNL     1      -0.715  -1.350  23.860  0.00  0.00    -0.241 OA
BRANCH  28  30
ATOM     30  O   UNL     1       0.602  -0.063  22.497  0.00  0.00    -0.416 OA
BRANCH  30  31
ATOM     31  C   UNL     1       1.751  -0.325  23.197  0.00  0.00    +0.183 C 
ATOM     32  C   UNL     1       2.932   0.193  22.829  0.00  0.00    +0.044 C 
ENDBRANCH  30  31
ENDBRANCH  28  30
ENDBRANCH  26  28
ENDBRANCH  24  26
ENDBRANCH  23  24
ENDBRANCH  18  23
ENDBRANCH   1  15
BRANCH   6  33
ATOM     33  C   UNL     1      -9.546  -3.258  19.745  0.00  0.00    +0.194 C 
ATOM     34  O   UNL     1      -9.334  -4.079  18.764  0.00  0.00    -0.216 OA
BRANCH  33  35
ATOM     35  C   UNL     1      -9.603  -1.877  19.363  0.00  0.00    +0.009 C 
ATOM     36  C   UNL     1      -8.891  -1.399  18.247  0.00  0.00    -0.002 C 
ATOM     37  C   UNL     1      -8.885  -0.086  17.866  0.00  0.00    -0.000 C 
ATOM     38  C   UNL     1      -9.591   0.856  18.566  0.00  0.00    -0.000 C 
ATOM     39  C   UNL     1     -10.297   0.446  19.657  0.00  0.00    -0.000 C 
ATOM     40  C   UNL     1     -10.297  -0.901  20.042  0.00  0.00    -0.002 C 
ENDBRANCH  33  35
ENDBRANCH   6  33
TORSDOF 12
