REMARK  Name = =
REMARK  4 active torsions:
REMARK  status: ('A' for Active; 'I' for Inactive)
REMARK    1  A    between atoms: N_1  and  C_2
REMARK    2  A    between atoms: N_1  and  N_5
REMARK    3  A    between atoms: C_2  and  N_4
REMARK    4  A    between atoms: N_5  and  S_6
REMARK                            x       y       z     vdW  Elec       q    Type
REMARK                         _______ _______ _______ _____ _____    ______ ____
ROOT
ATOM      1  N   UNL     1      -3.974  -2.651  32.317  0.00  0.00    -0.244 N 
ATOM      2  H   UNL     1      -3.124  -2.157  32.272  0.00  0.00    +0.170 HD
ENDROOT
BRANCH   1   3
ATOM      3  C   UNL     1      -5.173  -1.918  32.127  0.00  0.00    +0.143 C 
ATOM      4  S   UNL     1      -6.597  -2.499  32.650  0.00  0.00    -0.018 S 
BRANCH   3   5
ATOM      5  N   UNL     1      -5.185  -0.654  31.476  0.00  0.00    -0.340 N 
ATOM      6  H   UNL     1      -4.345  -0.264  31.143  0.00  0.00    +0.144 HD
ATOM      7  H   UNL     1      -6.034  -0.169  31.358  0.00  0.00    +0.144 HD
ENDBRANCH   3   5
ENDBRANCH   1   3
BRANCH   1   8
ATOM      8  N   UNL     1      -3.914  -4.002  32.560  0.00  0.00    -0.116 NA
ATOM      9  H   UNL     1      -4.788  -4.289  33.000  0.00  0.00    +0.171 HD
BRANCH   8  10
ATOM     10  S   UNL     1      -3.681  -4.952  31.143  0.00  0.00    +0.034 S 
ATOM     11  O   UNL     1      -4.393  -4.380  29.975  0.00  0.00    -0.160 OA
ATOM     12  O   UNL     1      -4.066  -6.391  31.396  0.00  0.00    -0.160 OA
ATOM     13  H   UNL     1      -2.357  -4.929  30.835  0.00  0.00    +0.231 HD
ENDBRANCH   8  10
ENDBRANCH   1   8
TORSDOF 4
