REMARK  Name = =
REMARK  9 active torsions:
REMARK  status: ('A' for Active; 'I' for Inactive)
REMARK    1  A    between atoms: N_1  and  S_2
REMARK    2  A    between atoms: N_1  and  N_7
REMARK    3  A    between atoms: N_1  and  C_16
REMARK    4  A    between atoms: S_2  and  N_5
REMARK    5  A    between atoms: N_7  and  C_8
REMARK    6  A    between atoms: C_8  and  N_10
REMARK    7  A    between atoms: C_11  and  O_13
REMARK    8  A    between atoms: O_13  and  C_14
REMARK    9  A    between atoms: C_17  and  N_18
REMARK                            x       y       z     vdW  Elec       q    Type
REMARK                         _______ _______ _______ _____ _____    ______ ____
ROOT
ATOM      1  N   UNL     1      -0.085  -5.737  29.447  0.00  0.00    -0.097 N 
ENDROOT
BRANCH   1   2
ATOM      2  S   UNL     1      -0.917  -4.465  28.677  0.00  0.00    +0.203 S 
ATOM      3  O   UNL     1      -2.395  -4.762  28.638  0.00  0.00    -0.127 OA
ATOM      4  O   UNL     1      -0.390  -4.351  27.254  0.00  0.00    -0.127 OA
BRANCH   2   5
ATOM      5  N   UNL     1      -0.638  -2.955  29.418  0.00  0.00    +0.116 NA
ATOM      6  O   UNL     1      -1.346  -2.509  30.277  0.00  0.00    -0.121 OA
ENDBRANCH   2   5
ENDBRANCH   1   2
BRANCH   1   7
ATOM      7  N   UNL     1       0.851  -6.482  28.749  0.00  0.00    -0.224 N 
ATOM      8  H   UNL     1       0.749  -7.460  28.707  0.00  0.00    +0.174 HD
BRANCH   7   9
ATOM      9  C   UNL     1       1.949  -5.877  28.095  0.00  0.00    +0.157 C 
ATOM     10  S   UNL     1       3.024  -5.034  28.975  0.00  0.00    -0.017 S 
BRANCH   9  11
ATOM     11  N   UNL     1       2.127  -5.991  26.696  0.00  0.00    -0.231 N 
ATOM     12  C   UNL     1       1.910  -7.207  25.990  0.00  0.00    +0.411 C 
ATOM     13  O   UNL     1       1.546  -8.211  26.654  0.00  0.00    -0.226 OA
ATOM     14  H   UNL     1       2.413  -5.196  26.190  0.00  0.00    +0.160 HD
BRANCH  12  15
ATOM     15  O   UNL     1       2.090  -7.305  24.610  0.00  0.00    -0.407 OA
BRANCH  15  16
ATOM     16  C   UNL     1       2.738  -8.434  24.144  0.00  0.00    +0.185 C 
ATOM     17  C   UNL     1       4.051  -8.424  24.039  0.00  0.00    +0.044 C 
ENDBRANCH  15  16
ENDBRANCH  12  15
ENDBRANCH   9  11
ENDBRANCH   7   9
ENDBRANCH   1   7
BRANCH   1  18
ATOM     18  C   UNL     1      -0.360  -6.032  30.822  0.00  0.00    +0.123 C 
ATOM     19  C   UNL     1      -1.344  -6.826  31.174  0.00  0.00    +0.084 C 
BRANCH  19  20
ATOM     20  N   UNL     1      -2.177  -7.426  30.174  0.00  0.00    -0.275 N 
ATOM     21  C   UNL     1      -1.815  -8.584  29.456  0.00  0.00    +0.304 C 
ATOM     22  O   UNL     1      -0.710  -9.141  29.684  0.00  0.00    -0.265 OA
ATOM     23  H   UNL     1      -3.047  -7.008  29.978  0.00  0.00    +0.155 HD
ENDBRANCH  19  20
ENDBRANCH   1  18
TORSDOF 9
