REMARK  Name = =
REMARK  2 active torsions:
REMARK  status: ('A' for Active; 'I' for Inactive)
REMARK    1  A    between atoms: S_1  and  N_4
REMARK    2  A    between atoms: S_1  and  N_5
REMARK                            x       y       z     vdW  Elec       q    Type
REMARK                         _______ _______ _______ _____ _____    ______ ____
ROOT
ATOM      1  S   UNL     1      -4.899  -3.400  32.310  0.00  0.00    +0.090 S 
ATOM      2  O   UNL     1      -3.586  -2.763  32.022  0.00  0.00    -0.142 OA
ATOM      3  O   UNL     1      -4.662  -4.889  32.409  0.00  0.00    -0.142 OA
ENDROOT
BRANCH   1   4
ATOM      4  N   UNL     1      -6.036  -2.994  31.108  0.00  0.00    -0.194 NA
ATOM      5  H   UNL     1      -6.929  -3.438  31.321  0.00  0.00    +0.145 HD
ATOM      6  H   UNL     1      -5.702  -3.319  30.201  0.00  0.00    +0.145 HD
ENDBRANCH   1   4
BRANCH   1   7
ATOM      7  N   UNL     1      -5.499  -2.852  33.832  0.00  0.00    -0.194 NA
ATOM      8  H   UNL     1      -4.830  -3.087  34.566  0.00  0.00    +0.145 HD
ATOM      9  H   UNL     1      -6.392  -3.304  34.028  0.00  0.00    +0.145 HD
ENDBRANCH   1   7
TORSDOF 2
