REMARK  Name = =
REMARK  0 active torsions:
REMARK  status: ('A' for Active; 'I' for Inactive)
REMARK                            x       y       z     vdW  Elec       q    Type
REMARK                         _______ _______ _______ _____ _____    ______ ____
ROOT
ATOM      1  C   UNL     1      51.838 155.254  28.818  0.00  0.00    +0.000 C 
ATOM      2  C   UNL     1      52.319 156.370  28.347  0.00  0.00    +0.000 C 
ATOM      3  C   UNL     1      52.813 156.475  26.957  0.00  0.00    +0.000 C 
ATOM      4  C   UNL     1      52.760 155.410  26.192  0.00  0.00    +0.000 C 
ATOM      5  C   UNL     1      52.237 154.129  26.648  0.00  0.00    +0.000 C 
ATOM      6  C   UNL     1      51.746 154.031  28.034  0.00  0.00    +0.000 C 
ENDROOT
TORSDOF 0
