REMARK  Name = =
REMARK  1 active torsions:
REMARK  status: ('A' for Active; 'I' for Inactive)
REMARK    1  A    between atoms: C_1  and  C_15
REMARK                            x       y       z     vdW  Elec       q    Type
REMARK                         _______ _______ _______ _____ _____    ______ ____
ROOT
ATOM      1  C   UNL     1      52.131 154.101  28.725  0.00  0.00    +0.003 C 
ATOM      2  C   UNL     1      52.003 155.386  28.592  0.00  0.00    +0.015 C 
ATOM      3  C   UNL     1      50.922 155.863  29.327  0.00  0.00    +0.076 C 
ATOM      4  N   UNL     1      50.310 154.919  29.943  0.00  0.00    -0.266 NA
ATOM      5  C   UNL     1      50.980 153.708  29.628  0.00  0.00    +0.152 C 
ATOM      6  C   UNL     1      50.572 157.196  29.340  0.00  0.00    +0.019 C 
ATOM      7  C   UNL     1      51.294 158.110  28.611  0.00  0.00    +0.002 C 
ATOM      8  C   UNL     1      52.358 157.626  27.886  0.00  0.00    +0.000 C 
ATOM      9  C   UNL     1      52.716 156.277  27.871  0.00  0.00    +0.001 C 
ENDROOT
BRANCH   1  15
ATOM     10  C   UNL     1      53.936 152.680  29.326  0.00  0.00    -0.000 C 
ATOM     11  C   UNL     1      55.191 152.401  29.221  0.00  0.00    -0.000 C 
ATOM     12  C   UNL     1      55.850 152.453  27.943  0.00  0.00    -0.000 C 
ATOM     13  C   UNL     1      55.124 152.809  26.916  0.00  0.00    -0.000 C 
ATOM     14  C   UNL     1      53.689 153.180  26.949  0.00  0.00    -0.000 C 
ATOM     15  C   UNL     1      53.038 153.058  28.219  0.00  0.00    -0.002 C 
ENDBRANCH   1  15
TORSDOF 1
