REMARK  Name = =
REMARK  2 active torsions:
REMARK  status: ('A' for Active; 'I' for Inactive)
REMARK    1  A    between atoms: C_1  and  C_20
REMARK    2  A    between atoms: C_6  and  C_7
REMARK                            x       y       z     vdW  Elec       q    Type
REMARK                         _______ _______ _______ _____ _____    ______ ____
ROOT
ATOM      1  C   UNL     1      52.922 154.995  26.782  0.00  0.00    +0.007 C 
ATOM      2  C   UNL     1      53.279 156.225  27.045  0.00  0.00    -0.002 C 
ATOM      3  C   UNL     1      53.549 157.260  26.039  0.00  0.00    -0.000 C 
ATOM      4  C   UNL     1      53.403 156.862  24.789  0.00  0.00    -0.000 C 
ATOM      5  C   UNL     1      53.010 155.519  24.358  0.00  0.00    -0.000 C 
ATOM      6  C   UNL     1      52.749 154.511  25.418  0.00  0.00    +0.000 C 
ENDROOT
BRANCH   6   7
ATOM      7  C   UNL     1      53.658 153.326  25.181  0.00  0.00    +0.020 C 
ATOM      8  C   UNL     1      53.335 152.056  25.314  0.00  0.00    +0.015 C 
ATOM      9  C   UNL     1      54.416 151.251  25.015  0.00  0.00    +0.063 C 
ATOM     10  N   UNL     1      55.454 151.930  24.689  0.00  0.00    -0.248 NA
ATOM     11  C   UNL     1      55.077 153.338  24.760  0.00  0.00    +0.098 C 
ATOM     12  C   UNL     1      54.315 149.867  25.085  0.00  0.00    +0.072 C 
ATOM     13  C   UNL     1      53.141 149.259  25.451  0.00  0.00    -0.020 C 
ATOM     14  C   UNL     1      52.060 150.055  25.749  0.00  0.00    -0.004 C 
ATOM     15  C   UNL     1      52.158 151.429  25.680  0.00  0.00    +0.001 C 
ENDBRANCH   6   7
BRANCH   1  20
ATOM     16  N   UNL     1      52.149 154.830  29.100  0.00  0.00    -0.281 NA
ATOM     17  C   UNL     1      51.943 153.726  30.054  0.00  0.00    +0.087 C 
ATOM     18  C   UNL     1      51.476 152.625  29.123  0.00  0.00    +0.087 C 
ATOM     19  N   UNL     1      51.781 153.066  27.770  0.00  0.00    -0.281 NA
ATOM     20  C   UNL     1      52.705 154.126  27.982  0.00  0.00    +0.135 C 
ATOM     21  H   UNL     1      52.800 155.525  29.466  0.00  0.00    +0.125 HD
ATOM     22  H   UNL     1      52.204 152.314  27.226  0.00  0.00    +0.125 HD
ENDBRANCH   1  20
TORSDOF 2
