REMARK  Name = =
REMARK  2 active torsions:
REMARK  status: ('A' for Active; 'I' for Inactive)
REMARK    1  A    between atoms: O_1  and  C_2
REMARK    2  A    between atoms: O_1  and  C_4
REMARK                            x       y       z     vdW  Elec       q    Type
REMARK                         _______ _______ _______ _____ _____    ______ ____
ROOT
ATOM      1  O   UNL     1      -3.906  -2.716  31.789  0.00  0.00    -0.413 OA
ENDROOT
BRANCH   1   2
ATOM      2  C   UNL     1      -4.041  -3.343  33.022  0.00  0.00    +0.423 C 
ATOM      3  O   UNL     1      -4.904  -4.221  33.260  0.00  0.00    -0.237 OA
ENDBRANCH   1   2
BRANCH   1   4
ATOM      4  C   UNL     1      -4.408  -3.326  30.667  0.00  0.00    +0.183 C 
ATOM      5  C   UNL     1      -3.678  -4.114  29.899  0.00  0.00    +0.044 C 
ENDBRANCH   1   4
TORSDOF 2
