REMARK  Name = =
REMARK  6 active torsions:
REMARK  status: ('A' for Active; 'I' for Inactive)
REMARK    1  A    between atoms: O_1  and  C_2
REMARK    2  A    between atoms: O_1  and  P_7
REMARK    3  A    between atoms: C_2  and  O_4
REMARK    4  A    between atoms: O_4  and  C_5
REMARK    5  A    between atoms: P_7  and  O_9
REMARK    6  A    between atoms: P_7  and  O_10
REMARK                            x       y       z     vdW  Elec       q    Type
REMARK                         _______ _______ _______ _____ _____    ______ ____
ROOT
ATOM      1  O   UNL     1      -5.451  -2.673  33.208  0.00  0.00    -0.339 OA
ENDROOT
BRANCH   1   2
ATOM      2  C   UNL     1      -4.623  -3.727  32.818  0.00  0.00    +0.523 C 
ATOM      3  O   UNL     1      -4.662  -4.008  31.602  0.00  0.00    -0.202 OA
BRANCH   2   4
ATOM      4  O   UNL     1      -3.821  -4.415  33.668  0.00  0.00    -0.390 OA
BRANCH   4   5
ATOM      5  C   UNL     1      -3.608  -5.755  33.644  0.00  0.00    +0.186 C 
ATOM      6  C   UNL     1      -4.278  -6.712  33.081  0.00  0.00    +0.044 C 
ENDBRANCH   4   5
ENDBRANCH   2   4
ENDBRANCH   1   2
BRANCH   1   7
ATOM      7  P   UNL     1      -5.895  -1.435  32.112  0.00  0.00    +0.532 P 
ATOM      8  O   UNL     1      -4.697  -1.000  31.266  0.00  0.00    -0.215 OA
BRANCH   7   9
ATOM      9  O   UNL     1      -6.447  -0.126  33.048  0.00  0.00    -0.293 OA
ATOM     10  H   UNL     1      -5.739   0.168  33.642  0.00  0.00    +0.223 HD
ENDBRANCH   7   9
BRANCH   7  11
ATOM     11  O   UNL     1      -7.122  -1.951  31.076  0.00  0.00    -0.293 OA
ATOM     12  H   UNL     1      -7.890  -2.231  31.598  0.00  0.00    +0.223 HD
ENDBRANCH   7  11
ENDBRANCH   1   7
TORSDOF 6
