REMARK  Name = =
REMARK  7 active torsions:
REMARK  status: ('A' for Active; 'I' for Inactive)
REMARK    1  A    between atoms: P_1  and  O_3
REMARK    2  A    between atoms: P_1  and  O_4
REMARK    3  A    between atoms: P_1  and  O_10
REMARK    4  A    between atoms: O_4  and  C_5
REMARK    5  A    between atoms: C_5  and  O_7
REMARK    6  A    between atoms: O_7  and  C_8
REMARK    7  A    between atoms: O_10  and  C_11
REMARK                            x       y       z     vdW  Elec       q    Type
REMARK                         _______ _______ _______ _____ _____    ______ ____
ROOT
ATOM      1  P   UNL     1      -5.289  -5.473  20.641  0.00  0.00    +0.592 P 
ATOM      2  O   UNL     1      -5.604  -4.814  21.965  0.00  0.00    -0.204 OA
ENDROOT
BRANCH   1   3
ATOM      3  O   UNL     1      -6.143  -6.953  20.633  0.00  0.00    -0.283 OA
ATOM      4  H   UNL     1      -5.851  -7.499  21.380  0.00  0.00    +0.224 HD
ENDBRANCH   1   3
BRANCH   1   5
ATOM      5  O   UNL     1      -3.593  -5.770  20.573  0.00  0.00    -0.329 OA
BRANCH   5   6
ATOM      6  C   UNL     1      -3.156  -7.065  20.362  0.00  0.00    +0.524 C 
ATOM      7  O   UNL     1      -2.540  -7.654  21.262  0.00  0.00    -0.202 OA
BRANCH   6   8
ATOM      8  O   UNL     1      -3.384  -7.744  19.158  0.00  0.00    -0.390 OA
BRANCH   8   9
ATOM      9  C   UNL     1      -2.948  -7.234  17.949  0.00  0.00    +0.186 C 
ATOM     10  C   UNL     1      -3.833  -6.814  17.078  0.00  0.00    +0.044 C 
ENDBRANCH   8   9
ENDBRANCH   6   8
ENDBRANCH   5   6
ENDBRANCH   1   5
BRANCH   1  11
ATOM     11  O   UNL     1      -5.794  -4.490  19.323  0.00  0.00    -0.398 OA
BRANCH  11  12
ATOM     12  C   UNL     1      -7.121  -4.666  18.868  0.00  0.00    +0.123 C 
ATOM     13  C   UNL     1      -7.404  -5.347  17.797  0.00  0.00    +0.007 C 
ATOM     14  C   UNL     1      -8.766  -5.551  17.294  0.00  0.00    +0.029 C 
ATOM     15  C   UNL     1      -9.836  -4.787  17.970  0.00  0.00    +0.005 C 
ATOM     16  C   UNL     1      -9.553  -4.460  19.411  0.00  0.00    +0.008 C 
ATOM     17  C   UNL     1      -8.159  -4.033  19.679  0.00  0.00    +0.064 C 
ENDBRANCH  11  12
ENDBRANCH   1  11
TORSDOF 7
