REMARK  Name = =
REMARK  8 active torsions:
REMARK  status: ('A' for Active; 'I' for Inactive)
REMARK    1  A    between atoms: P_1  and  O_3
REMARK    2  A    between atoms: P_1  and  O_9
REMARK    3  A    between atoms: P_1  and  O_16
REMARK    4  A    between atoms: O_3  and  C_4
REMARK    5  A    between atoms: C_4  and  O_6
REMARK    6  A    between atoms: O_6  and  C_7
REMARK    7  A    between atoms: O_9  and  C_10
REMARK    8  A    between atoms: O_16  and  C_17
REMARK                            x       y       z     vdW  Elec       q    Type
REMARK                         _______ _______ _______ _____ _____    ______ ____
ROOT
ATOM      1  P   UNL     1      -5.499  -5.978  20.448  0.00  0.00    +0.598 P 
ATOM      2  O   UNL     1      -5.681  -7.309  19.823  0.00  0.00    -0.204 OA
ENDROOT
BRANCH   1   3
ATOM      3  O   UNL     1      -6.510  -5.748  21.831  0.00  0.00    -0.329 OA
BRANCH   3   4
ATOM      4  C   UNL     1      -6.620  -6.692  22.833  0.00  0.00    +0.524 C 
ATOM      5  O   UNL     1      -5.646  -7.493  22.948  0.00  0.00    -0.202 OA
BRANCH   4   6
ATOM      6  O   UNL     1      -7.733  -6.771  23.674  0.00  0.00    -0.390 OA
BRANCH   6   7
ATOM      7  C   UNL     1      -8.100  -7.955  24.253  0.00  0.00    +0.186 C 
ATOM      8  C   UNL     1      -8.846  -8.824  23.594  0.00  0.00    +0.044 C 
ENDBRANCH   6   7
ENDBRANCH   4   6
ENDBRANCH   3   4
ENDBRANCH   1   3
BRANCH   1   9
ATOM      9  O   UNL     1      -3.872  -5.835  21.007  0.00  0.00    -0.398 OA
BRANCH   9  10
ATOM     10  C   UNL     1      -2.862  -6.522  20.358  0.00  0.00    +0.123 C 
ATOM     11  C   UNL     1      -2.454  -7.685  20.821  0.00  0.00    +0.007 C 
ATOM     12  C   UNL     1      -1.369  -8.374  20.086  0.00  0.00    +0.029 C 
ATOM     13  C   UNL     1      -0.244  -7.373  19.946  0.00  0.00    +0.005 C 
ATOM     14  C   UNL     1      -0.693  -6.172  19.177  0.00  0.00    +0.008 C 
ATOM     15  C   UNL     1      -2.187  -6.015  19.139  0.00  0.00    +0.064 C 
ENDBRANCH   9  10
ENDBRANCH   1   9
BRANCH   1  16
ATOM     16  O   UNL     1      -5.841  -4.693  19.402  0.00  0.00    -0.228 OA
BRANCH  16  17
ATOM     17  C   UNL     1      -5.762  -3.500  20.119  0.00  0.00    +0.247 C 
ATOM     18  C   UNL     1      -4.706  -2.654  19.450  0.00  0.00    +0.062 C 
ATOM     19  C   UNL     1      -5.106  -1.197  19.677  0.00  0.00    +0.008 C 
ATOM     20  C   UNL     1      -6.367  -0.998  18.844  0.00  0.00    +0.032 C 
ATOM     21  C   UNL     1      -7.346  -2.080  19.187  0.00  0.00    +0.145 C 
ATOM     22  O   UNL     1      -6.975  -2.868  20.249  0.00  0.00    -0.330 OA
ENDBRANCH  16  17
ENDBRANCH   1  16
TORSDOF 8
