REMARK  Name = =
REMARK  9 active torsions:
REMARK  status: ('A' for Active; 'I' for Inactive)
REMARK    1  A    between atoms: P_1  and  O_3
REMARK    2  A    between atoms: P_1  and  O_12
REMARK    3  A    between atoms: P_1  and  O_19
REMARK    4  A    between atoms: O_3  and  C_4
REMARK    5  A    between atoms: C_4  and  O_6
REMARK    6  A    between atoms: O_6  and  C_7
REMARK    7  A    between atoms: C_8  and  C_9
REMARK    8  A    between atoms: O_12  and  C_13
REMARK    9  A    between atoms: O_19  and  C_20
REMARK                            x       y       z     vdW  Elec       q    Type
REMARK                         _______ _______ _______ _____ _____    ______ ____
ROOT
ATOM      1  P   UNL     1      -5.187  -5.051  20.843  0.00  0.00    +0.598 P 
ATOM      2  O   UNL     1      -6.033  -4.889  22.075  0.00  0.00    -0.204 OA
ENDROOT
BRANCH   1   3
ATOM      3  O   UNL     1      -5.065  -3.550  20.049  0.00  0.00    -0.329 OA
BRANCH   3   4
ATOM      4  C   UNL     1      -4.732  -2.430  20.799  0.00  0.00    +0.524 C 
ATOM      5  O   UNL     1      -4.321  -2.564  22.001  0.00  0.00    -0.202 OA
BRANCH   4   6
ATOM      6  O   UNL     1      -4.814  -1.134  20.332  0.00  0.00    -0.390 OA
BRANCH   6   7
ATOM      7  C   UNL     1      -4.760  -0.049  21.187  0.00  0.00    +0.191 C 
ATOM      8  C   UNL     1      -4.444   1.148  20.735  0.00  0.00    +0.098 C 
BRANCH   8   9
ATOM      9  C   UNL     1      -4.393   2.285  21.652  0.00  0.00    +0.246 C 
ATOM     10  O   UNL     1      -5.047   2.233  22.746  0.00  0.00    -0.270 OA
ATOM     11  N   UNL     1      -3.620   3.439  21.331  0.00  0.00    -0.325 N 
ATOM     12  H   UNL     1      -3.117   3.475  20.486  0.00  0.00    +0.145 HD
ATOM     13  H   UNL     1      -3.589   4.200  21.955  0.00  0.00    +0.145 HD
ENDBRANCH   8   9
ENDBRANCH   6   7
ENDBRANCH   4   6
ENDBRANCH   3   4
ENDBRANCH   1   3
BRANCH   1  14
ATOM     14  O   UNL     1      -5.969  -6.139  19.760  0.00  0.00    -0.398 OA
BRANCH  14  15
ATOM     15  C   UNL     1      -7.255  -6.609  19.976  0.00  0.00    +0.123 C 
ATOM     16  C   UNL     1      -7.384  -7.841  20.448  0.00  0.00    +0.007 C 
ATOM     17  C   UNL     1      -8.710  -8.456  20.718  0.00  0.00    +0.029 C 
ATOM     18  C   UNL     1      -9.687  -7.352  21.054  0.00  0.00    +0.005 C 
ATOM     19  C   UNL     1      -9.716  -6.296  19.991  0.00  0.00    +0.008 C 
ATOM     20  C   UNL     1      -8.378  -5.715  19.667  0.00  0.00    +0.064 C 
ENDBRANCH  14  15
ENDBRANCH   1  14
BRANCH   1  21
ATOM     21  O   UNL     1      -3.677  -5.707  21.197  0.00  0.00    -0.228 OA
BRANCH  21  22
ATOM     22  C   UNL     1      -2.695  -5.328  20.330  0.00  0.00    +0.247 C 
ATOM     23  C   UNL     1      -1.995  -6.520  19.712  0.00  0.00    +0.062 C 
ATOM     24  C   UNL     1      -0.991  -6.108  18.688  0.00  0.00    +0.008 C 
ATOM     25  C   UNL     1      -0.139  -4.988  19.294  0.00  0.00    +0.032 C 
ATOM     26  C   UNL     1      -1.082  -3.887  19.768  0.00  0.00    +0.145 C 
ATOM     27  O   UNL     1      -1.771  -4.426  20.879  0.00  0.00    -0.330 OA
ENDBRANCH  21  22
ENDBRANCH   1  21
TORSDOF 9
