REMARK  Name = =
REMARK  10 active torsions:
REMARK  status: ('A' for Active; 'I' for Inactive)
REMARK    1  A    between atoms: P_1  and  O_3
REMARK    2  A    between atoms: P_1  and  O_12
REMARK    3  A    between atoms: P_1  and  O_19
REMARK    4  A    between atoms: O_3  and  C_4
REMARK    5  A    between atoms: C_4  and  O_6
REMARK    6  A    between atoms: O_6  and  C_7
REMARK    7  A    between atoms: C_8  and  C_9
REMARK    8  A    between atoms: O_12  and  C_13
REMARK    9  A    between atoms: O_19  and  C_20
REMARK   10  A    between atoms: C_24  and  C_26
REMARK                            x       y       z     vdW  Elec       q    Type
REMARK                         _______ _______ _______ _____ _____    ______ ____
ROOT
ATOM      1  P   UNL     1      -5.273  -3.397  21.112  0.00  0.00    +0.598 P 
ATOM      2  O   UNL     1      -4.819  -3.378  22.558  0.00  0.00    -0.204 OA
ENDROOT
BRANCH   1   3
ATOM      3  O   UNL     1      -4.407  -4.623  20.258  0.00  0.00    -0.329 OA
BRANCH   3   4
ATOM      4  C   UNL     1      -3.081  -4.898  20.536  0.00  0.00    +0.524 C 
ATOM      5  O   UNL     1      -2.406  -3.959  21.070  0.00  0.00    -0.202 OA
BRANCH   4   6
ATOM      6  O   UNL     1      -2.470  -6.107  20.270  0.00  0.00    -0.390 OA
BRANCH   6   7
ATOM      7  C   UNL     1      -1.155  -6.372  20.624  0.00  0.00    +0.191 C 
ATOM      8  C   UNL     1      -0.632  -7.548  20.414  0.00  0.00    +0.098 C 
BRANCH   8   9
ATOM      9  C   UNL     1      -1.440  -8.589  19.801  0.00  0.00    +0.246 C 
ATOM     10  O   UNL     1      -2.215  -8.297  18.827  0.00  0.00    -0.270 OA
ATOM     11  N   UNL     1      -1.376  -9.913  20.272  0.00  0.00    -0.325 N 
ATOM     12  H   UNL     1      -0.780 -10.140  21.022  0.00  0.00    +0.145 HD
ATOM     13  H   UNL     1      -1.927 -10.612  19.852  0.00  0.00    +0.145 HD
ENDBRANCH   8   9
ENDBRANCH   6   7
ENDBRANCH   4   6
ENDBRANCH   3   4
ENDBRANCH   1   3
BRANCH   1  14
ATOM     14  O   UNL     1      -4.940  -1.885  20.400  0.00  0.00    -0.398 OA
BRANCH  14  15
ATOM     15  C   UNL     1      -4.952  -0.730  21.148  0.00  0.00    +0.123 C 
ATOM     16  C   UNL     1      -6.108  -0.196  21.478  0.00  0.00    +0.007 C 
ATOM     17  C   UNL     1      -6.132   1.042  22.279  0.00  0.00    +0.029 C 
ATOM     18  C   UNL     1      -5.113   2.023  21.804  0.00  0.00    +0.005 C 
ATOM     19  C   UNL     1      -3.856   1.412  21.281  0.00  0.00    +0.008 C 
ATOM     20  C   UNL     1      -3.708  -0.050  21.606  0.00  0.00    +0.064 C 
ENDBRANCH  14  15
ENDBRANCH   1  14
BRANCH   1  21
ATOM     21  O   UNL     1      -6.917  -3.664  21.082  0.00  0.00    -0.228 OA
BRANCH  21  22
ATOM     22  C   UNL     1      -7.296  -4.824  21.759  0.00  0.00    +0.247 C 
ATOM     23  C   UNL     1      -8.615  -4.600  22.508  0.00  0.00    +0.062 C 
ATOM     24  C   UNL     1      -8.998  -5.921  23.099  0.00  0.00    +0.008 C 
ATOM     25  C   UNL     1      -8.113  -7.060  22.718  0.00  0.00    +0.030 C 
ATOM     26  C   UNL     1      -7.628  -7.082  21.317  0.00  0.00    +0.125 C 
ATOM     27  O   UNL     1      -7.532  -5.795  20.823  0.00  0.00    -0.332 OA
BRANCH  26  28
ATOM     28  C   UNL     1      -8.471  -7.867  20.348  0.00  0.00    +0.085 C 
ATOM     29  C   UNL     1      -9.894  -7.404  20.272  0.00  0.00    +0.010 C 
ATOM     30  C   UNL     1     -10.843  -8.404  20.896  0.00  0.00    +0.001 C 
ATOM     31  C   UNL     1     -10.805  -9.670  20.095  0.00  0.00    +0.008 C 
ATOM     32  C   UNL     1      -9.410 -10.157  19.841  0.00  0.00    +0.065 C 
ATOM     33  C   UNL     1      -8.398  -9.319  20.536  0.00  0.00    +0.153 C 
ATOM     34  O   UNL     1      -7.567  -9.878  21.222  0.00  0.00    -0.296 OA
ENDBRANCH  26  28
ENDBRANCH  21  22
ENDBRANCH   1  21
TORSDOF 10
