REMARK  Name = =
REMARK  12 active torsions:
REMARK  status: ('A' for Active; 'I' for Inactive)
REMARK    1  A    between atoms: P_1  and  O_3
REMARK    2  A    between atoms: P_1  and  O_12
REMARK    3  A    between atoms: P_1  and  O_31
REMARK    4  A    between atoms: O_3  and  C_4
REMARK    5  A    between atoms: C_4  and  O_6
REMARK    6  A    between atoms: O_6  and  C_7
REMARK    7  A    between atoms: C_8  and  C_9
REMARK    8  A    between atoms: O_12  and  C_13
REMARK    9  A    between atoms: C_16  and  C_19
REMARK   10  A    between atoms: C_22  and  N_25
REMARK   11  A    between atoms: O_31  and  C_32
REMARK   12  A    between atoms: C_36  and  C_38
REMARK                            x       y       z     vdW  Elec       q    Type
REMARK                         _______ _______ _______ _____ _____    ______ ____
ROOT
ATOM      1  P   UNL     1      -4.306  -6.038  20.419  0.00  0.00    +0.598 P 
ATOM      2  O   UNL     1      -4.046  -6.630  21.783  0.00  0.00    -0.204 OA
ENDROOT
BRANCH   1   3
ATOM      3  O   UNL     1      -5.639  -6.927  19.757  0.00  0.00    -0.329 OA
BRANCH   3   4
ATOM      4  C   UNL     1      -6.734  -7.226  20.559  0.00  0.00    +0.524 C 
ATOM      5  O   UNL     1      -7.101  -6.420  21.472  0.00  0.00    -0.202 OA
BRANCH   4   6
ATOM      6  O   UNL     1      -7.483  -8.384  20.431  0.00  0.00    -0.390 OA
BRANCH   6   7
ATOM      7  C   UNL     1      -8.665  -8.603  21.111  0.00  0.00    +0.191 C 
ATOM      8  C   UNL     1      -9.835  -8.458  20.541  0.00  0.00    +0.098 C 
BRANCH   8   9
ATOM      9  C   UNL     1     -11.060  -8.698  21.287  0.00  0.00    +0.246 C 
ATOM     10  O   UNL     1     -10.981  -8.906  22.539  0.00  0.00    -0.270 OA
ATOM     11  N   UNL     1     -12.313  -8.697  20.629  0.00  0.00    -0.325 N 
ATOM     12  H   UNL     1     -12.360  -8.535  19.659  0.00  0.00    +0.145 HD
ATOM     13  H   UNL     1     -13.138  -8.859  21.141  0.00  0.00    +0.145 HD
ENDBRANCH   8   9
ENDBRANCH   6   7
ENDBRANCH   4   6
ENDBRANCH   3   4
ENDBRANCH   1   3
BRANCH   1  14
ATOM     14  O   UNL     1      -2.962  -6.336  19.432  0.00  0.00    -0.398 OA
BRANCH  14  15
ATOM     15  C   UNL     1      -1.737  -6.672  19.999  0.00  0.00    +0.123 C 
ATOM     16  C   UNL     1      -1.356  -7.913  20.087  0.00  0.00    +0.007 C 
ATOM     17  C   UNL     1      -0.060  -8.283  20.687  0.00  0.00    +0.033 C 
ATOM     18  C   UNL     1       0.935  -7.189  20.297  0.00  0.00    +0.027 C 
ATOM     19  C   UNL     1       0.459  -5.939  20.964  0.00  0.00    +0.013 C 
ATOM     20  C   UNL     1      -0.901  -5.570  20.491  0.00  0.00    +0.064 C 
BRANCH  18  21
ATOM     21  C   UNL     1       2.314  -7.565  20.706  0.00  0.00    -0.022 C 
ATOM     22  C   UNL     1       2.659  -7.820  22.006  0.00  0.00    -0.003 C 
ATOM     23  C   UNL     1       3.976  -8.169  22.329  0.00  0.00    +0.014 C 
ATOM     24  C   UNL     1       4.961  -8.272  21.397  0.00  0.00    +0.048 C 
ATOM     25  C   UNL     1       4.604  -8.010  20.074  0.00  0.00    +0.014 C 
ATOM     26  C   UNL     1       3.317  -7.669  19.766  0.00  0.00    -0.003 C 
BRANCH  24  27
ATOM     27  N   UNL     1       6.303  -8.623  21.688  0.00  0.00    -0.305 N 
ATOM     28  C   UNL     1       7.297  -8.662  20.634  0.00  0.00    +0.110 C 
ATOM     29  C   UNL     1       8.648  -8.569  21.324  0.00  0.00    +0.110 C 
ATOM     30  N   UNL     1       8.653  -7.598  22.393  0.00  0.00    -0.214 NA
ATOM     31  C   UNL     1       7.706  -7.848  23.433  0.00  0.00    +0.110 C 
ATOM     32  C   UNL     1       6.764  -8.958  23.014  0.00  0.00    +0.110 C 
ENDBRANCH  24  27
ENDBRANCH  18  21
ENDBRANCH  14  15
ENDBRANCH   1  14
BRANCH   1  33
ATOM     33  O   UNL     1      -4.767  -4.438  20.480  0.00  0.00    -0.228 OA
BRANCH  33  34
ATOM     34  C   UNL     1      -3.859  -3.595  21.076  0.00  0.00    +0.247 C 
ATOM     35  C   UNL     1      -4.521  -2.957  22.267  0.00  0.00    +0.062 C 
ATOM     36  C   UNL     1      -3.775  -1.756  22.794  0.00  0.00    +0.008 C 
ATOM     37  C   UNL     1      -3.276  -0.902  21.642  0.00  0.00    +0.030 C 
ATOM     38  C   UNL     1      -3.971  -1.403  20.397  0.00  0.00    +0.125 C 
ATOM     39  O   UNL     1      -3.450  -2.666  20.126  0.00  0.00    -0.332 OA
BRANCH  38  40
ATOM     40  C   UNL     1      -3.731  -0.511  19.209  0.00  0.00    +0.085 C 
ATOM     41  C   UNL     1      -2.457   0.259  19.289  0.00  0.00    +0.010 C 
ATOM     42  C   UNL     1      -2.665   1.751  19.438  0.00  0.00    +0.001 C 
ATOM     43  C   UNL     1      -3.483   2.321  18.308  0.00  0.00    +0.008 C 
ATOM     44  C   UNL     1      -4.712   1.522  18.022  0.00  0.00    +0.065 C 
ATOM     45  C   UNL     1      -4.858   0.446  19.029  0.00  0.00    +0.153 C 
ATOM     46  O   UNL     1      -5.893   0.400  19.661  0.00  0.00    -0.296 OA
ENDBRANCH  38  40
ENDBRANCH  33  34
ENDBRANCH   1  33
TORSDOF 12
