REMARK  Name = =
REMARK  1 active torsions:
REMARK  status: ('A' for Active; 'I' for Inactive)
REMARK    1  A    between atoms: C_2  and  O_4
REMARK                            x       y       z     vdW  Elec       q    Type
REMARK                         _______ _______ _______ _____ _____    ______ ____
ROOT
ATOM      1  N   UNL     1      51.287 155.166  28.853  0.00  0.00    -0.295 N 
ATOM      2  C   UNL     1      52.503 155.571  28.200  0.00  0.00    +0.395 C 
ATOM      3  O   UNL     1      52.824 156.769  28.325  0.00  0.00    -0.227 OA
ATOM      4  H   UNL     1      50.759 155.823  29.361  0.00  0.00    +0.148 HD
ATOM      5  H   UNL     1      50.983 154.232  28.792  0.00  0.00    +0.148 HD
ENDROOT
BRANCH   2   6
ATOM      6  O   UNL     1      53.209 154.626  27.503  0.00  0.00    -0.466 OA
ATOM      7  H   UNL     1      52.895 153.744  27.459  0.00  0.00    +0.297 HD
ENDBRANCH   2   6
TORSDOF 1
