MODEL 1
REMARK VINA RESULT:   -10.878      0.000      0.000
REMARK INTER + INTRA:         -16.686
REMARK INTER:                 -16.283
REMARK INTRA:                  -0.403
REMARK UNBOUND:                -0.403
REMARK  Name = =
REMARK  9 active torsions:
REMARK  status: ('A' for Active; 'I' for Inactive)
REMARK    1  A    between atoms: N_1  and  C_24
REMARK    2  A    between atoms: C_2  and  N_7
REMARK    3  A    between atoms: N_7  and  N_11
REMARK    4  A    between atoms: N_10  and  N_19
REMARK    5  A    between atoms: C_20  and  O_22
REMARK    6  A    between atoms: S_23  and  N_31
REMARK    7  A    between atoms: C_24  and  N_25
REMARK    8  A    between atoms: C_26  and  C_28
REMARK    9  A    between atoms: C_32  and  C_34
REMARK                            x       y       z     vdW  Elec       q    Type
REMARK                         _______ _______ _______ _____ _____    ______ ____
ROOT
ATOM      1  N   UNL     1     -13.553 -43.219  28.117  0.00  0.00    -0.272 N 
ATOM      2  C   UNL     1     -13.591 -44.161  29.174  0.00  0.00    +0.196 C 
ATOM      3  C   UNL     1     -12.876 -45.421  28.678  0.00  0.00    +0.011 C 
ATOM      4  C   UNL     1     -11.559 -45.196  28.053  0.00  0.00    -0.026 C 
ATOM      5  C   UNL     1     -11.176 -43.802  27.709  0.00  0.00    +0.047 C 
ATOM      6  C   UNL     1     -12.324 -42.913  27.425  0.00  0.00    +0.099 C 
ENDROOT
BRANCH   2   7
ATOM      7  N   UNL     1     -13.123 -43.766  30.462  0.00  0.00    -0.160 N 
ATOM      8  C   UNL     1     -14.122 -43.356  31.438  0.00  0.00    +0.338 C 
ATOM      9  O   UNL     1     -15.339 -43.359  31.133  0.00  0.00    -0.249 OA
ATOM     10  N   UNL     1     -13.765 -42.945  32.744  0.00  0.00    -0.214 N 
ATOM     11  H   UNL     1     -12.811 -42.942  32.988  0.00  0.00    +0.175 HD
BRANCH   7  12
ATOM     12  N   UNL     1     -11.774 -43.741  30.870  0.00  0.00    -0.128 N 
ATOM     13  C   UNL     1     -11.080 -42.600  30.752  0.00  0.00    +0.330 C 
ATOM     14  O   UNL     1     -11.616 -41.561  30.289  0.00  0.00    -0.250 OA
ATOM     15  N   UNL     1      -9.772 -42.575  31.142  0.00  0.00    -0.265 N 
ATOM     16  C   UNL     1      -9.142 -43.636  31.640  0.00  0.00    +0.070 C 
ATOM     17  C   UNL     1      -9.841 -44.820  31.767  0.00  0.00    +0.076 C 
ATOM     18  C   UNL     1     -11.179 -44.822  31.361  0.00  0.00    +0.274 C 
ATOM     19  O   UNL     1     -11.794 -45.908  31.484  0.00  0.00    -0.268 OA
ATOM     20  H   UNL     1      -9.271 -41.733  31.050  0.00  0.00    +0.157 HD
ENDBRANCH   7  12
BRANCH  10  21
ATOM     21  N   UNL     1     -14.691 -42.547  33.701  0.00  0.00    -0.198 N 
ATOM     22  C   UNL     1     -15.093 -41.195  33.776  0.00  0.00    +0.414 C 
ATOM     23  O   UNL     1     -14.610 -40.334  32.970  0.00  0.00    -0.225 OA
ATOM     24  H   UNL     1     -15.067 -43.207  34.327  0.00  0.00    +0.176 HD
BRANCH  22  25
ATOM     25  O   UNL     1     -16.011 -40.720  34.701  0.00  0.00    -0.465 OA
ATOM     26  H   UNL     1     -15.883 -39.881  35.099  0.00  0.00    +0.297 HD
ENDBRANCH  22  25
ENDBRANCH  10  21
ENDBRANCH   2   7
BRANCH   1  28
ATOM     27  S   UNL     1     -16.104 -42.547  28.549  0.00  0.00    -0.094 S 
ATOM     28  C   UNL     1     -14.711 -42.545  27.651  0.00  0.00    +0.133 C 
ATOM     29  H   UNL     1     -15.769 -42.057  29.772  0.00  0.00    +0.115 HD
BRANCH  28  30
ATOM     30  N   UNL     1     -14.787 -41.782  26.458  0.00  0.00    -0.260 N 
ATOM     31  C   UNL     1     -14.949 -42.336  25.170  0.00  0.00    +0.304 C 
ATOM     32  O   UNL     1     -15.046 -43.580  25.031  0.00  0.00    -0.265 OA
ATOM     33  H   UNL     1     -14.723 -40.802  26.532  0.00  0.00    +0.157 HD
BRANCH  31  34
ATOM     34  C   UNL     1     -15.003 -41.450  23.997  0.00  0.00    +0.297 C 
ATOM     35  O   UNL     1     -13.942 -40.941  23.558  0.00  0.00    -0.265 OA
ATOM     36  N   UNL     1     -16.233 -41.159  23.347  0.00  0.00    -0.322 N 
ATOM     37  H   UNL     1     -17.072 -41.552  23.681  0.00  0.00    +0.145 HD
ATOM     38  H   UNL     1     -16.247 -40.565  22.563  0.00  0.00    +0.145 HD
ENDBRANCH  31  34
ENDBRANCH  28  30
BRANCH  27  39
ATOM     39  N   UNL     1     -17.553 -41.662  28.042  0.00  0.00    -0.230 NA
ATOM     40  C   UNL     1     -18.285 -42.078  26.877  0.00  0.00    +0.111 C 
ATOM     41  C   UNL     1     -18.819 -42.428  28.188  0.00  0.00    +0.102 C 
BRANCH  40  42
ATOM     42  C   UNL     1     -18.877 -41.078  25.944  0.00  0.00    +0.132 C 
ATOM     43  O   UNL     1     -18.844 -41.613  24.666  0.00  0.00    -0.355 OA
ATOM     44  C   UNL     1     -20.140 -42.027  24.368  0.00  0.00    +0.142 C 
ATOM     45  C   UNL     1     -21.002 -40.919  24.945  0.00  0.00    +0.035 C 
ATOM     46  C   UNL     1     -20.263 -40.641  26.248  0.00  0.00    +0.034 C 
ENDBRANCH  40  42
ENDBRANCH  27  39
ENDBRANCH   1  28
TORSDOF 9
ENDMDL
