REMARK  Name = =
REMARK  4 active torsions:
REMARK  status: ('A' for Active; 'I' for Inactive)
REMARK    1  A    between atoms: N_1  and  C_36
REMARK    2  A    between atoms: C_2  and  C_7
REMARK    3  A    between atoms: N_4  and  N_25
REMARK    4  A    between atoms: C_19  and  O_24
REMARK                            x       y       z     vdW  Elec       q    Type
REMARK                         _______ _______ _______ _____ _____    ______ ____
ROOT
ATOM      1  N   UNL     1     -21.601 -42.329  26.213  0.00  0.00    -0.304 N 
ATOM      2  C   UNL     1     -20.987 -42.662  24.972  0.00  0.00    +0.094 C 
ATOM      3  C   UNL     1     -19.527 -42.304  24.865  0.00  0.00    +0.129 C 
ATOM      4  N   UNL     1     -19.023 -41.648  26.031  0.00  0.00    -0.240 N 
ATOM      5  C   UNL     1     -19.832 -40.657  26.676  0.00  0.00    +0.131 C 
ATOM      6  C   UNL     1     -21.143 -41.236  27.061  0.00  0.00    +0.114 C 
ENDROOT
BRANCH   2   7
ATOM      7  C   UNL     1     -21.790 -42.123  23.812  0.00  0.00    +0.020 C 
ATOM      8  C   UNL     1     -21.139 -40.922  23.175  0.00  0.00    +0.002 C 
ATOM      9  C   UNL     1     -20.039 -41.349  22.194  0.00  0.00    +0.000 C 
ATOM     10  C   UNL     1     -19.833 -40.207  21.197  0.00  0.00    +0.004 C 
ATOM     11  C   UNL     1     -20.947 -40.333  20.179  0.00  0.00    +0.022 C 
ATOM     12  C   UNL     1     -22.151 -40.891  20.889  0.00  0.00    +0.004 C 
ATOM     13  C   UNL     1     -23.431 -40.712  20.136  0.00  0.00    +0.005 C 
ATOM     14  C   UNL     1     -23.305 -40.112  18.781  0.00  0.00    +0.026 C 
ATOM     15  C   UNL     1     -22.395 -38.939  18.816  0.00  0.00    -0.023 C 
ATOM     16  C   UNL     1     -21.212 -39.049  19.516  0.00  0.00    -0.026 C 
ATOM     17  C   UNL     1     -20.308 -38.015  19.604  0.00  0.00    -0.001 C 
ATOM     18  C   UNL     1     -20.647 -36.835  18.944  0.00  0.00    +0.036 C 
ATOM     19  C   UNL     1     -21.824 -36.707  18.240  0.00  0.00    +0.133 C 
ATOM     20  C   UNL     1     -22.726 -37.770  18.164  0.00  0.00    +0.032 C 
ATOM     21  C   UNL     1     -22.263 -40.371  22.322  0.00  0.00    +0.000 C 
ATOM     22  C   UNL     1     -23.559 -40.926  22.886  0.00  0.00    +0.000 C 
ATOM     23  C   UNL     1     -23.137 -41.579  24.214  0.00  0.00    +0.002 C 
BRANCH  19  24
ATOM     24  O   UNL     1     -22.142 -35.519  17.588  0.00  0.00    -0.506 OA
ATOM     25  H   UNL     1     -21.552 -34.792  17.625  0.00  0.00    +0.292 HD
ENDBRANCH  19  24
ENDBRANCH   2   7
BRANCH   4  26
ATOM     26  N   UNL     1     -17.775 -41.962  26.531  0.00  0.00    -0.194 N 
ATOM     27  C   UNL     1     -17.527 -42.298  27.799  0.00  0.00    +0.215 A 
ATOM     28  N   UNL     1     -16.293 -42.588  28.202  0.00  0.00    -0.197 NA
ATOM     29  C   UNL     1     -15.220 -42.562  27.367  0.00  0.00    +0.159 A 
ATOM     30  C   UNL     1     -15.462 -42.218  26.062  0.00  0.00    +0.172 A 
ATOM     31  C   UNL     1     -16.745 -41.920  25.651  0.00  0.00    +0.300 A 
ATOM     32  O   UNL     1     -16.910 -41.610  24.440  0.00  0.00    -0.264 OA
ATOM     33  N   UNL     1     -14.264 -42.263  25.442  0.00  0.00    -0.220 NA
ATOM     34  C   UNL     1     -13.307 -42.619  26.316  0.00  0.00    +0.165 C 
ATOM     35  N   UNL     1     -13.911 -42.803  27.509  0.00  0.00    -0.280 N 
ATOM     36  N   UNL     1     -18.609 -42.340  28.713  0.00  0.00    -0.327 N 
ATOM     37  H   UNL     1     -13.463 -43.070  28.344  0.00  0.00    +0.155 HD
ATOM     38  H   UNL     1     -19.520 -42.124  28.408  0.00  0.00    +0.145 HD
ATOM     39  H   UNL     1     -18.450 -42.585  29.653  0.00  0.00    +0.145 HD
ENDBRANCH   4  26
BRANCH   1  40
ATOM     40  C   UNL     1     -22.726 -43.067  26.708  0.00  0.00    +0.069 C 
ATOM     41  C   UNL     1     -23.536 -42.580  27.727  0.00  0.00    +0.038 C 
ATOM     42  C   UNL     1     -24.620 -43.269  28.219  0.00  0.00    +0.118 C 
ATOM     43  C   UNL     1     -24.942 -44.502  27.696  0.00  0.00    +0.180 C 
ATOM     44  N   UNL     1     -24.166 -44.980  26.714  0.00  0.00    -0.222 NA
ATOM     45  C   UNL     1     -23.091 -44.299  26.223  0.00  0.00    +0.115 C 
ATOM     46  N   UNL     1     -25.995 -45.204  28.154  0.00  0.00    -0.222 NA
ATOM     47  C   UNL     1     -26.754 -44.693  29.144  0.00  0.00    +0.121 C 
ATOM     48  C   UNL     1     -26.442 -43.449  29.683  0.00  0.00    +0.120 C 
ATOM     49  N   UNL     1     -25.386 -42.752  29.220  0.00  0.00    -0.239 NA
ENDBRANCH   1  40
TORSDOF 4
