MODEL 1
REMARK VINA RESULT:    -6.509      0.000      0.000
REMARK INTER + INTRA:          -8.438
REMARK INTER:                  -7.651
REMARK INTRA:                  -0.787
REMARK UNBOUND:                -0.787
REMARK  Name = =
REMARK  3 active torsions:
REMARK  status: ('A' for Active; 'I' for Inactive)
REMARK    1  A    between atoms: N_11  and  N_12
REMARK    2  A    between atoms: N_11  and  S_19
REMARK    3  A    between atoms: S_19  and  C_22
REMARK                            x       y       z     vdW  Elec       q    Type
REMARK                         _______ _______ _______ _____ _____    ______ ____
ROOT
ATOM      1  C   UNL     1      58.097 160.152  38.540  0.00  0.00    +0.136 C 
ATOM      2  N   UNL     1      58.444 160.642  37.329  0.00  0.00    -0.236 NA
ATOM      3  C   UNL     1      59.176 161.777  37.237  0.00  0.00    +0.136 C 
ATOM      4  C   UNL     1      59.589 162.464  38.360  0.00  0.00    +0.185 C 
ATOM      5  N   UNL     1      60.327 163.606  38.237  0.00  0.00    -0.203 NA
ATOM      6  C   UNL     1      60.654 164.065  37.017  0.00  0.00    +0.200 C 
ATOM      7  N   UNL     1      60.274 163.429  35.900  0.00  0.00    -0.221 NA
ATOM      8  C   UNL     1      59.535 162.286  36.008  0.00  0.00    +0.123 C 
ATOM      9  N   UNL     1      59.242 161.975  39.564  0.00  0.00    -0.206 NA
ATOM     10  C   UNL     1      58.505 160.834  39.667  0.00  0.00    +0.187 C 
ATOM     11  N   UNL     1      58.132 160.307  40.936  0.00  0.00    -0.110 N 
ENDROOT
BRANCH  11  12
ATOM     12  N   UNL     1      56.963 160.641  41.604  0.00  0.00    -0.184 NA
ATOM     13  C   UNL     1      55.802 159.969  41.080  0.00  0.00    +0.094 C 
ATOM     14  C   UNL     1      54.964 159.506  42.253  0.00  0.00    +0.019 C 
ATOM     15  C   UNL     1      53.889 160.572  42.458  0.00  0.00    +0.002 C 
ATOM     16  C   UNL     1      54.598 161.784  43.028  0.00  0.00    +0.002 C 
ATOM     17  C   UNL     1      55.375 162.488  41.961  0.00  0.00    +0.019 C 
ATOM     18  C   UNL     1      56.796 162.028  41.840  0.00  0.00    +0.094 C 
ENDBRANCH  11  12
BRANCH  11  19
ATOM     19  S   UNL     1      59.215 159.183  41.678  0.00  0.00    +0.090 S 
ATOM     20  O   UNL     1      59.366 157.959  40.799  0.00  0.00    -0.149 OA
ATOM     21  O   UNL     1      58.733 158.754  43.034  0.00  0.00    -0.149 OA
BRANCH  19  22
ATOM     22  C   UNL     1      60.808 159.869  41.885  0.00  0.00    +0.127 C 
ATOM     23  C   UNL     1      61.826 159.533  41.014  0.00  0.00    +0.020 C 
ATOM     24  C   UNL     1      63.103 160.056  41.146  0.00  0.00    +0.001 C 
ATOM     25  C   UNL     1      63.393 160.934  42.159  0.00  0.00    +0.000 C 
ATOM     26  C   UNL     1      62.393 161.279  43.034  0.00  0.00    +0.001 C 
ATOM     27  C   UNL     1      61.113 160.752  42.900  0.00  0.00    +0.020 C 
ENDBRANCH  19  22
ENDBRANCH  11  19
TORSDOF 3
ENDMDL
