REMARK  Name = =
REMARK  9 active torsions:
REMARK  status: ('A' for Active; 'I' for Inactive)
REMARK    1  A    between atoms: C_1  and  C_21
REMARK    2  A    between atoms: C_1  and  S_24
REMARK    3  A    between atoms: C_2  and  C_7
REMARK    4  A    between atoms: S_24  and  O_27
REMARK    5  A    between atoms: O_27  and  C_28
REMARK    6  A    between atoms: C_29  and  N_34
REMARK    7  A    between atoms: C_30  and  O_40
REMARK    8  A    between atoms: C_32  and  O_39
REMARK    9  A    between atoms: C_33  and  C_37
REMARK                            x       y       z     vdW  Elec       q    Type
REMARK                         _______ _______ _______ _____ _____    ______ ____
ROOT
ATOM      1  C   UNL     1      61.021 162.026  38.889  0.00  0.00    +0.193 C 
ATOM      2  C   UNL     1      61.830 162.856  39.769  0.00  0.00    +0.111 C 
ATOM      3  C   UNL     1      63.089 161.994  40.058  0.00  0.00    +0.076 C 
ATOM      4  C   UNL     1      63.334 161.455  38.699  0.00  0.00    +0.153 C 
ATOM      5  O   UNL     1      64.380 161.424  38.108  0.00  0.00    -0.296 OA
ATOM      6  C   UNL     1      61.990 160.978  38.271  0.00  0.00    +0.093 C 
ENDROOT
BRANCH   2   7
ATOM      7  C   UNL     1      61.307 163.392  41.008  0.00  0.00    +0.228 C 
ATOM      8  O   UNL     1      61.069 162.658  41.975  0.00  0.00    -0.275 OA
ATOM      9  N   UNL     1      61.037 164.796  41.201  0.00  0.00    -0.275 N 
ATOM     10  C   UNL     1      60.526 165.308  42.460  0.00  0.00    +0.098 C 
ATOM     11  C   UNL     1      61.449 166.350  43.030  0.00  0.00    +0.048 C 
ATOM     12  C   UNL     1      62.369 166.933  42.032  0.00  0.00    -0.023 C 
ATOM     13  C   UNL     1      62.308 166.703  40.673  0.00  0.00    -0.006 C 
ATOM     14  C   UNL     1      63.213 167.294  39.804  0.00  0.00    -0.003 C 
ATOM     15  C   UNL     1      64.196 168.127  40.294  0.00  0.00    -0.000 C 
ATOM     16  C   UNL     1      64.263 168.361  41.654  0.00  0.00    -0.000 C 
ATOM     17  C   UNL     1      63.358 167.770  42.508  0.00  0.00    -0.004 C 
ATOM     18  C   UNL     1      61.237 165.801  40.184  0.00  0.00    +0.120 C 
ENDBRANCH   2   7
BRANCH   1  21
ATOM     19  O   UNL     1      60.320 164.836  36.932  0.00  0.00    -0.184 OA
ATOM     20  O   UNL     1      60.312 164.206  38.087  0.00  0.00    -0.188 OA
ATOM     21  C   UNL     1      60.578 162.901  37.708  0.00  0.00    +0.293 C 
ATOM     22  O   UNL     1      61.734 163.118  36.912  0.00  0.00    -0.296 OA
ATOM     23  C   UNL     1      61.340 164.233  36.179  0.00  0.00    +0.331 C 
ENDBRANCH   1  21
BRANCH   1  24
ATOM     24  S   UNL     1      59.652 161.168  39.515  0.00  0.00    +0.033 S 
ATOM     25  O   UNL     1      58.630 160.828  38.434  0.00  0.00    -0.062 OA
ATOM     26  O   UNL     1      60.114 159.771  40.001  0.00  0.00    -0.062 OA
BRANCH  24  27
ATOM     27  O   UNL     1      58.827 161.823  40.773  0.00  0.00    -0.359 OA
BRANCH  27  28
ATOM     28  C   UNL     1      57.556 161.931  41.187  0.00  0.00    +0.194 C 
ATOM     29  C   UNL     1      56.934 160.787  41.661  0.00  0.00    +0.120 C 
ATOM     30  C   UNL     1      55.605 160.929  42.080  0.00  0.00    +0.153 C 
ATOM     31  C   UNL     1      54.948 162.136  42.028  0.00  0.00    +0.075 C 
ATOM     32  C   UNL     1      55.587 163.256  41.557  0.00  0.00    +0.143 C 
ATOM     33  C   UNL     1      56.889 163.173  41.133  0.00  0.00    +0.114 C 
BRANCH  29  34
ATOM     34  N   UNL     1      57.585 159.535  41.795  0.00  0.00    -0.299 N 
ATOM     35  C   UNL     1      58.662 158.614  42.285  0.00  0.00    +0.112 C 
ATOM     36  C   UNL     1      57.598 158.121  41.488  0.00  0.00    +0.112 C 
ENDBRANCH  29  34
BRANCH  33  37
ATOM     37  C   UNL     1      57.624 164.341  40.659  0.00  0.00    +0.240 C 
ATOM     38  O   UNL     1      57.344 165.471  41.111  0.00  0.00    -0.283 OA
ENDBRANCH  33  37
BRANCH  32  39
ATOM     39  O   UNL     1      54.935 164.502  41.496  0.00  0.00    -0.505 OA
ATOM     40  H   UNL     1      54.046 164.580  41.781  0.00  0.00    +0.292 HD
ENDBRANCH  32  39
BRANCH  30  41
ATOM     41  O   UNL     1      54.952 159.776  42.563  0.00  0.00    -0.504 OA
ATOM     42  H   UNL     1      55.408 158.958  42.595  0.00  0.00    +0.292 HD
ENDBRANCH  30  41
ENDBRANCH  27  28
ENDBRANCH  24  27
ENDBRANCH   1  24
TORSDOF 9
