REMARK  Name = =
REMARK  1 active torsions:
REMARK  status: ('A' for Active; 'I' for Inactive)
REMARK    1  A    between atoms: C_1  and  C_3
REMARK                            x       y       z     vdW  Elec       q    Type
REMARK                         _______ _______ _______ _____ _____    ______ ____
ROOT
ATOM      1  C   UNL     1      52.496 155.975  28.046  0.00  0.00    +0.234 C 
ATOM      2  O   UNL     1      53.182 156.939  27.618  0.00  0.00    -0.283 OA
ENDROOT
BRANCH   1   3
ATOM      3  C   UNL     1      51.667 156.155  29.233  0.00  0.00    +0.045 C 
ATOM      4  C   UNL     1      51.222 155.116  29.913  0.00  0.00    +0.003 C 
ENDBRANCH   1   3
TORSDOF 1
