REMARK  Name = =
REMARK  2 active torsions:
REMARK  status: ('A' for Active; 'I' for Inactive)
REMARK    1  A    between atoms: C_10  and  C_11
REMARK    2  A    between atoms: C_11  and  C_13
REMARK                            x       y       z     vdW  Elec       q    Type
REMARK                         _______ _______ _______ _____ _____    ______ ____
ROOT
ATOM      1  N   UNL     1      51.639 155.558  25.858  0.00  0.00    -0.289 NA
ATOM      2  C   UNL     1      51.521 154.909  24.595  0.00  0.00    +0.074 C 
ATOM      3  C   UNL     1      52.911 154.878  23.935  0.00  0.00    +0.043 C 
ATOM      4  C   UNL     1      53.753 153.980  24.783  0.00  0.00    -0.023 C 
ATOM      5  C   UNL     1      53.562 154.010  26.148  0.00  0.00    -0.005 C 
ATOM      6  C   UNL     1      54.328 153.181  26.928  0.00  0.00    -0.003 C 
ATOM      7  C   UNL     1      55.280 152.332  26.372  0.00  0.00    -0.000 C 
ATOM      8  C   UNL     1      55.488 152.293  25.002  0.00  0.00    -0.000 C 
ATOM      9  C   UNL     1      54.702 153.130  24.248  0.00  0.00    -0.004 C 
ATOM     10  C   UNL     1      52.647 154.979  26.712  0.00  0.00    +0.139 C 
ATOM     11  H   UNL     1      51.876 156.537  25.697  0.00  0.00    +0.124 HD
ENDROOT
BRANCH  10  12
ATOM     12  C   UNL     1      52.009 154.809  28.011  0.00  0.00    +0.191 C 
ATOM     13  O   UNL     1      52.630 154.338  29.000  0.00  0.00    -0.290 OA
BRANCH  12  14
ATOM     14  C   UNL     1      50.612 155.228  28.186  0.00  0.00    +0.039 C 
ATOM     15  C   UNL     1      50.193 155.858  29.263  0.00  0.00    +0.003 C 
ENDBRANCH  12  14
ENDBRANCH  10  12
TORSDOF 2
