REMARK  Name = =
REMARK  4 active torsions:
REMARK  status: ('A' for Active; 'I' for Inactive)
REMARK    1  A    between atoms: N_1  and  C_15
REMARK    2  A    between atoms: C_10  and  C_22
REMARK    3  A    between atoms: N_11  and  C_21
REMARK    4  A    between atoms: C_22  and  C_24
REMARK                            x       y       z     vdW  Elec       q    Type
REMARK                         _______ _______ _______ _____ _____    ______ ____
ROOT
ATOM      1  N   UNL     1      53.814 154.459  25.020  0.00  0.00    -0.239 NA
ATOM      2  C   UNL     1      52.386 154.454  24.747  0.00  0.00    +0.080 C 
ATOM      3  C   UNL     1      51.566 153.747  25.770  0.00  0.00    +0.044 C 
ATOM      4  C   UNL     1      52.304 153.411  27.017  0.00  0.00    -0.023 C 
ATOM      5  C   UNL     1      53.679 153.115  26.946  0.00  0.00    -0.004 C 
ATOM      6  C   UNL     1      54.335 152.817  28.098  0.00  0.00    -0.003 C 
ATOM      7  C   UNL     1      53.643 152.811  29.299  0.00  0.00    -0.000 C 
ATOM      8  C   UNL     1      52.297 153.097  29.391  0.00  0.00    -0.000 C 
ATOM      9  C   UNL     1      51.625 153.402  28.212  0.00  0.00    -0.004 C 
ATOM     10  C   UNL     1      54.209 153.171  25.599  0.00  0.00    +0.144 C 
ENDROOT
BRANCH   1  15
ATOM     11  N   UNL     1      53.019 156.189  26.363  0.00  0.00    -0.246 NA
ATOM     12  C   UNL     1      52.637 157.277  25.559  0.00  0.00    +0.092 C 
ATOM     13  C   UNL     1      53.875 157.600  24.787  0.00  0.00    +0.088 C 
ATOM     14  N   UNL     1      54.817 156.561  25.040  0.00  0.00    -0.271 NA
ATOM     15  C   UNL     1      54.192 155.586  25.851  0.00  0.00    +0.181 C 
ATOM     16  H   UNL     1      55.630 156.942  25.523  0.00  0.00    +0.126 HD
BRANCH  11  22
ATOM     17  C   UNL     1      51.577 156.199  28.346  0.00  0.00    +0.158 C 
ATOM     18  O   UNL     1      50.841 157.336  28.445  0.00  0.00    -0.352 OA
ATOM     19  C   UNL     1      51.421 158.403  29.058  0.00  0.00    +0.142 C 
ATOM     20  C   UNL     1      52.813 158.061  29.520  0.00  0.00    +0.034 C 
ATOM     21  C   UNL     1      53.588 157.657  28.256  0.00  0.00    +0.021 C 
ATOM     22  C   UNL     1      52.964 156.381  27.775  0.00  0.00    +0.090 C 
ENDBRANCH  11  22
ENDBRANCH   1  15
BRANCH  10  23
ATOM     23  C   UNL     1      55.547 152.738  25.303  0.00  0.00    +0.192 C 
ATOM     24  O   UNL     1      56.096 153.257  24.291  0.00  0.00    -0.290 OA
BRANCH  23  25
ATOM     25  C   UNL     1      56.357 151.782  26.009  0.00  0.00    +0.039 C 
ATOM     26  C   UNL     1      57.646 151.995  26.150  0.00  0.00    +0.003 C 
ENDBRANCH  23  25
ENDBRANCH  10  23
TORSDOF 4
