REMARK  Name = =
REMARK  0 active torsions:
REMARK  status: ('A' for Active; 'I' for Inactive)
REMARK                            x       y       z     vdW  Elec       q    Type
REMARK                         _______ _______ _______ _____ _____    ______ ____
ROOT
ATOM      1  N   UNL     1      -2.887  -2.671  30.784  0.00  0.00    -0.303 N 
ATOM      2  C   UNL     1      -4.168  -3.244  30.646  0.00  0.00    +0.223 C 
ATOM      3  O   UNL     1      -4.403  -4.102  29.755  0.00  0.00    -0.275 OA
ATOM      4  C   UNL     1      -5.246  -2.831  31.559  0.00  0.00    +0.095 C 
ATOM      5  C   UNL     1      -1.853  -3.098  29.874  0.00  0.00    +0.111 C 
ATOM      6  H   UNL     1      -2.704  -2.000  31.481  0.00  0.00    +0.149 HD
ENDROOT
TORSDOF 0
