REMARK  Name = =
REMARK  3 active torsions:
REMARK  status: ('A' for Active; 'I' for Inactive)
REMARK    1  A    between atoms: N_1  and  N_4
REMARK    2  A    between atoms: C_2  and  C_9
REMARK    3  A    between atoms: C_9  and  O_11
REMARK                            x       y       z     vdW  Elec       q    Type
REMARK                         _______ _______ _______ _____ _____    ______ ____
ROOT
ATOM      1  N   UNL     1      -1.264  -3.515  30.806  0.00  0.00    -0.222 N 
ATOM      2  C   UNL     1      -0.661  -2.756  29.764  0.00  0.00    +0.337 C 
ATOM      3  O   UNL     1      -1.426  -2.138  28.982  0.00  0.00    -0.261 OA
ATOM      4  H   UNL     1      -0.676  -4.005  31.425  0.00  0.00    +0.174 HD
ENDROOT
BRANCH   1   5
ATOM      5  N   UNL     1      -2.647  -3.603  30.999  0.00  0.00    -0.206 N 
ATOM      6  C   UNL     1      -3.385  -4.656  30.431  0.00  0.00    +0.242 C 
ATOM      7  O   UNL     1      -2.807  -5.528  29.742  0.00  0.00    -0.273 OA
ATOM      8  C   UNL     1      -4.849  -4.778  30.620  0.00  0.00    +0.096 C 
ATOM      9  C   UNL     1      -3.267  -2.555  31.812  0.00  0.00    +0.138 C 
ENDBRANCH   1   5
BRANCH   2  10
ATOM     10  C   UNL     1       0.809  -2.701  29.613  0.00  0.00    +0.394 C 
ATOM     11  O   UNL     1       1.538  -3.444  30.301  0.00  0.00    -0.240 OA
BRANCH  10  12
ATOM     12  O   UNL     1       1.409  -1.842  28.723  0.00  0.00    -0.474 OA
ATOM     13  H   UNL     1       0.884  -1.273  28.194  0.00  0.00    +0.296 HD
ENDBRANCH  10  12
ENDBRANCH   2  10
TORSDOF 3
