REMARK  Name = =
REMARK  4 active torsions:
REMARK  status: ('A' for Active; 'I' for Inactive)
REMARK    1  A    between atoms: N_1  and  N_4
REMARK    2  A    between atoms: C_2  and  C_9
REMARK    3  A    between atoms: C_9  and  O_11
REMARK    4  A    between atoms: O_11  and  C_12
REMARK                            x       y       z     vdW  Elec       q    Type
REMARK                         _______ _______ _______ _____ _____    ______ ____
ROOT
ATOM      1  N   UNL     1       3.015 -12.026  22.976  0.00  0.00    -0.222 N 
ATOM      2  C   UNL     1       3.389 -11.436  24.212  0.00  0.00    +0.339 C 
ATOM      3  O   UNL     1       2.692 -10.450  24.597  0.00  0.00    -0.261 OA
ATOM      4  H   UNL     1       3.538 -12.794  22.650  0.00  0.00    +0.174 HD
ENDROOT
BRANCH   1   5
ATOM      5  N   UNL     1       1.946 -11.577  22.198  0.00  0.00    -0.206 N 
ATOM      6  C   UNL     1       0.621 -11.990  22.477  0.00  0.00    +0.242 C 
ATOM      7  O   UNL     1      -0.369 -11.598  21.787  0.00  0.00    -0.273 OA
ATOM      8  C   UNL     1       0.379 -12.910  23.607  0.00  0.00    +0.096 C 
ATOM      9  C   UNL     1       2.159 -10.679  21.088  0.00  0.00    +0.138 C 
ENDBRANCH   1   5
BRANCH   2  10
ATOM     10  C   UNL     1       4.510 -11.926  25.003  0.00  0.00    +0.411 C 
ATOM     11  O   UNL     1       4.897 -13.114  25.022  0.00  0.00    -0.238 OA
BRANCH  10  12
ATOM     12  O   UNL     1       5.207 -11.019  25.798  0.00  0.00    -0.344 OA
BRANCH  12  13
ATOM     13  C   UNL     1       6.569 -10.942  25.768  0.00  0.00    +0.295 C 
ATOM     14  N   UNL     1       7.740 -10.879  25.756  0.00  0.00    -0.149 NA
ENDBRANCH  12  13
ENDBRANCH  10  12
ENDBRANCH   2  10
TORSDOF 4
