REMARK  Name = =
REMARK  6 active torsions:
REMARK  status: ('A' for Active; 'I' for Inactive)
REMARK    1  A    between atoms: N_1  and  N_5
REMARK    2  A    between atoms: N_1  and  C_13
REMARK    3  A    between atoms: C_6  and  C_8
REMARK    4  A    between atoms: C_8  and  O_10
REMARK    5  A    between atoms: O_10  and  C_11
REMARK    6  A    between atoms: C_13  and  C_14
REMARK                            x       y       z     vdW  Elec       q    Type
REMARK                         _______ _______ _______ _____ _____    ______ ____
ROOT
ATOM      1  N   UNL     1       5.541 -11.598  25.337  0.00  0.00    -0.202 N 
ATOM      2  C   UNL     1       4.420 -12.503  25.163  0.00  0.00    +0.242 C 
ATOM      3  O   UNL     1       3.584 -12.715  26.050  0.00  0.00    -0.273 OA
ATOM      4  C   UNL     1       4.263 -13.215  23.861  0.00  0.00    +0.096 C 
ENDROOT
BRANCH   1   5
ATOM      5  N   UNL     1       6.401 -11.443  24.267  0.00  0.00    -0.221 N 
ATOM      6  C   UNL     1       6.395 -10.411  23.311  0.00  0.00    +0.339 C 
ATOM      7  O   UNL     1       5.547  -9.487  23.381  0.00  0.00    -0.261 OA
ATOM      8  H   UNL     1       7.096 -12.132  24.162  0.00  0.00    +0.174 HD
BRANCH   6   9
ATOM      9  C   UNL     1       7.358 -10.398  22.236  0.00  0.00    +0.411 C 
ATOM     10  O   UNL     1       8.090 -11.401  22.000  0.00  0.00    -0.238 OA
BRANCH   9  11
ATOM     11  O   UNL     1       7.491  -9.279  21.437  0.00  0.00    -0.344 OA
BRANCH  11  12
ATOM     12  C   UNL     1       8.536  -9.221  20.568  0.00  0.00    +0.295 C 
ATOM     13  N   UNL     1       9.466  -9.167  19.819  0.00  0.00    -0.149 NA
ENDBRANCH  11  12
ENDBRANCH   9  11
ENDBRANCH   6   9
ENDBRANCH   1   5
BRANCH   1  14
ATOM     14  C   UNL     1       5.702 -10.903  26.564  0.00  0.00    +0.158 C 
BRANCH  14  15
ATOM     15  C   UNL     1       6.984 -11.222  27.295  0.00  0.00    +0.085 C 
ATOM     16  N   UNL     1       7.932 -10.399  27.576  0.00  0.00    -0.229 NA
ATOM     17  C   UNL     1       8.983 -11.073  28.282  0.00  0.00    +0.194 C 
ATOM     18  N   UNL     1       8.532 -12.428  28.387  0.00  0.00    -0.244 NA
ATOM     19  C   UNL     1       7.367 -12.520  27.814  0.00  0.00    +0.170 C 
ENDBRANCH  14  15
ENDBRANCH   1  14
TORSDOF 6
