REMARK  Name = =
REMARK  7 active torsions:
REMARK  status: ('A' for Active; 'I' for Inactive)
REMARK    1  A    between atoms: N_1  and  N_5
REMARK    2  A    between atoms: N_1  and  C_13
REMARK    3  A    between atoms: C_6  and  C_8
REMARK    4  A    between atoms: C_8  and  O_10
REMARK    5  A    between atoms: O_10  and  C_11
REMARK    6  A    between atoms: C_13  and  C_14
REMARK    7  A    between atoms: C_18  and  C_19
REMARK                            x       y       z     vdW  Elec       q    Type
REMARK                         _______ _______ _______ _____ _____    ______ ____
ROOT
ATOM      1  N   UNL     1       5.416 -10.731  22.954  0.00  0.00    -0.202 N 
ATOM      2  C   UNL     1       6.333 -10.643  21.908  0.00  0.00    +0.242 C 
ATOM      3  O   UNL     1       6.022 -11.073  20.774  0.00  0.00    -0.273 OA
ATOM      4  C   UNL     1       7.685 -10.051  22.090  0.00  0.00    +0.096 C 
ENDROOT
BRANCH   1   5
ATOM      5  N   UNL     1       4.157 -11.288  22.776  0.00  0.00    -0.221 N 
ATOM      6  C   UNL     1       3.908 -12.690  22.748  0.00  0.00    +0.339 C 
ATOM      7  O   UNL     1       4.921 -13.459  22.893  0.00  0.00    -0.261 OA
ATOM      8  H   UNL     1       3.392 -10.679  22.663  0.00  0.00    +0.174 HD
BRANCH   6   9
ATOM      9  C   UNL     1       2.575 -13.267  22.565  0.00  0.00    +0.411 C 
ATOM     10  O   UNL     1       1.549 -12.575  22.441  0.00  0.00    -0.238 OA
BRANCH   9  11
ATOM     11  O   UNL     1       2.445 -14.645  22.527  0.00  0.00    -0.344 OA
BRANCH  11  12
ATOM     12  C   UNL     1       1.286 -15.246  22.153  0.00  0.00    +0.295 C 
ATOM     13  N   UNL     1       0.273 -15.776  21.847  0.00  0.00    -0.149 NA
ENDBRANCH  11  12
ENDBRANCH   9  11
ENDBRANCH   6   9
ENDBRANCH   1   5
BRANCH   1  14
ATOM     14  C   UNL     1       5.782 -10.225  24.287  0.00  0.00    +0.158 C 
BRANCH  14  15
ATOM     15  C   UNL     1       6.246 -11.409  25.089  0.00  0.00    +0.086 C 
ATOM     16  N   UNL     1       7.454 -11.913  25.023  0.00  0.00    -0.229 NA
ATOM     17  C   UNL     1       7.505 -13.019  25.924  0.00  0.00    +0.194 C 
ATOM     18  N   UNL     1       6.192 -13.083  26.502  0.00  0.00    -0.242 NA
ATOM     19  C   UNL     1       5.418 -12.123  26.016  0.00  0.00    +0.160 C 
BRANCH  19  20
ATOM     20  C   UNL     1       4.034 -11.994  26.458  0.00  0.00    -0.021 C 
ATOM     21  C   UNL     1       3.416 -10.858  26.612  0.00  0.00    -0.032 C 
ATOM     22  C   UNL     1       2.018 -10.797  27.061  0.00  0.00    +0.025 C 
ATOM     23  C   UNL     1       1.172 -11.909  26.569  0.00  0.00    +0.005 C 
ATOM     24  C   UNL     1       1.874 -13.140  26.113  0.00  0.00    +0.005 C 
ATOM     25  C   UNL     1       3.250 -13.279  26.738  0.00  0.00    +0.024 C 
ENDBRANCH  19  20
ENDBRANCH  14  15
ENDBRANCH   1  14
TORSDOF 7
