REMARK  Name = =
REMARK  8 active torsions:
REMARK  status: ('A' for Active; 'I' for Inactive)
REMARK    1  A    between atoms: C_1  and  C_19
REMARK    2  A    between atoms: C_5  and  C_6
REMARK    3  A    between atoms: C_11  and  N_12
REMARK    4  A    between atoms: C_19  and  N_20
REMARK    5  A    between atoms: N_20  and  N_24
REMARK    6  A    between atoms: C_25  and  C_27
REMARK    7  A    between atoms: C_27  and  O_29
REMARK    8  A    between atoms: O_29  and  C_30
REMARK                            x       y       z     vdW  Elec       q    Type
REMARK                         _______ _______ _______ _____ _____    ______ ____
ROOT
ATOM      1  C   UNL     1       5.005 -12.843  24.998  0.00  0.00    +0.086 C 
ATOM      2  N   UNL     1       5.903 -13.765  25.202  0.00  0.00    -0.229 NA
ATOM      3  C   UNL     1       6.514 -13.526  26.478  0.00  0.00    +0.194 C 
ATOM      4  N   UNL     1       5.836 -12.351  26.945  0.00  0.00    -0.242 NA
ATOM      5  C   UNL     1       4.934 -11.923  26.088  0.00  0.00    +0.162 C 
ENDROOT
BRANCH   5   6
ATOM      6  C   UNL     1       4.148 -10.755  26.368  0.00  0.00    -0.003 C 
ATOM      7  C   UNL     1       2.911 -10.568  26.010  0.00  0.00    -0.031 C 
ATOM      8  C   UNL     1       2.093  -9.378  26.288  0.00  0.00    +0.026 C 
ATOM      9  C   UNL     1       2.459  -8.604  27.511  0.00  0.00    +0.007 C 
ATOM     10  C   UNL     1       3.761  -9.004  28.067  0.00  0.00    +0.025 C 
ATOM     11  C   UNL     1       4.765  -9.612  27.152  0.00  0.00    +0.098 C 
BRANCH  11  12
ATOM     12  N   UNL     1       5.447  -8.678  26.294  0.00  0.00    -0.253 N 
ATOM     13  C   UNL     1       4.956  -7.821  25.256  0.00  0.00    +0.181 C 
ATOM     14  C   UNL     1       5.984  -6.724  25.149  0.00  0.00    +0.250 C 
ATOM     15  O   UNL     1       5.840  -5.563  24.703  0.00  0.00    -0.273 OA
ATOM     16  N   UNL     1       7.180  -7.269  25.665  0.00  0.00    -0.238 N 
ATOM     17  C   UNL     1       6.861  -8.457  26.361  0.00  0.00    +0.310 C 
ATOM     18  O   UNL     1       7.715  -9.173  26.933  0.00  0.00    -0.252 OA
ATOM     19  H   UNL     1       8.081  -6.887  25.558  0.00  0.00    +0.159 HD
ENDBRANCH  11  12
ENDBRANCH   5   6
BRANCH   1  20
ATOM     20  C   UNL     1       4.193 -12.802  23.773  0.00  0.00    +0.158 C 
BRANCH  20  21
ATOM     21  N   UNL     1       4.969 -13.358  22.643  0.00  0.00    -0.202 N 
ATOM     22  C   UNL     1       4.502 -14.463  21.915  0.00  0.00    +0.242 C 
ATOM     23  O   UNL     1       3.401 -14.977  22.235  0.00  0.00    -0.273 OA
ATOM     24  C   UNL     1       5.247 -15.059  20.778  0.00  0.00    +0.096 C 
BRANCH  21  25
ATOM     25  N   UNL     1       6.209 -12.769  22.293  0.00  0.00    -0.221 N 
ATOM     26  C   UNL     1       6.308 -11.588  21.541  0.00  0.00    +0.339 C 
ATOM     27  O   UNL     1       5.225 -11.046  21.168  0.00  0.00    -0.261 OA
ATOM     28  H   UNL     1       7.039 -13.208  22.591  0.00  0.00    +0.174 HD
BRANCH  26  29
ATOM     29  C   UNL     1       7.609 -11.028  21.216  0.00  0.00    +0.411 C 
ATOM     30  O   UNL     1       8.648 -11.614  21.613  0.00  0.00    -0.238 OA
BRANCH  29  31
ATOM     31  O   UNL     1       7.761  -9.857  20.480  0.00  0.00    -0.344 OA
BRANCH  31  32
ATOM     32  C   UNL     1       9.039  -9.402  20.240  0.00  0.00    +0.295 C 
ATOM     33  N   UNL     1      10.115  -9.020  20.019  0.00  0.00    -0.149 NA
ENDBRANCH  31  32
ENDBRANCH  29  31
ENDBRANCH  26  29
ENDBRANCH  21  25
ENDBRANCH  20  21
ENDBRANCH   1  20
TORSDOF 8
