MODEL 1
REMARK VINA RESULT:    -9.594      0.000      0.000
REMARK INTER + INTRA:         -12.476
REMARK INTER:                 -12.118
REMARK INTRA:                  -0.358
REMARK UNBOUND:                -0.358
REMARK  Name = =
REMARK  5 active torsions:
REMARK  status: ('A' for Active; 'I' for Inactive)
REMARK    1  A    between atoms: C_10  and  C_17
REMARK    2  A    between atoms: C_17  and  C_21
REMARK    3  A    between atoms: C_19  and  C_23
REMARK    4  A    between atoms: C_31  and  O_41
REMARK    5  A    between atoms: C_33  and  C_35
REMARK                            x       y       z     vdW  Elec       q    Type
REMARK                         _______ _______ _______ _____ _____    ______ ____
ROOT
ATOM      1  C   UNL     1      52.304 166.380  41.570  0.00  0.00    +0.040 C 
ATOM      2  C   UNL     1      52.975 166.975  42.751  0.00  0.00    +0.008 C 
ATOM      3  C   UNL     1      53.087 168.424  42.471  0.00  0.00    +0.005 C 
ATOM      4  C   UNL     1      54.505 168.923  42.528  0.00  0.00    +0.022 C 
ATOM      5  C   UNL     1      54.567 169.887  41.394  0.00  0.00    -0.044 C 
ATOM      6  C   UNL     1      55.393 170.911  41.259  0.00  0.00    -0.009 C 
ATOM      7  C   UNL     1      53.530 169.534  40.378  0.00  0.00    +0.022 C 
ATOM      8  C   UNL     1      52.574 168.616  41.080  0.00  0.00    +0.005 C 
ATOM      9  C   UNL     1      52.790 167.175  40.457  0.00  0.00    +0.008 C 
ATOM     10  C   UNL     1      53.059 164.067  41.412  0.00  0.00    -0.014 C 
ATOM     11  C   UNL     1      52.145 164.941  41.578  0.00  0.00    +0.011 C 
ATOM     12  C   UNL     1      50.741 164.470  41.860  0.00  0.00    +0.135 C 
ATOM     13  O   UNL     1      49.828 165.334  42.025  0.00  0.00    -0.473 OA
ATOM     14  C   UNL     1      50.477 163.065  41.931  0.00  0.00    +0.037 C 
ATOM     15  C   UNL     1      51.435 162.199  41.752  0.00  0.00    +0.003 C 
ATOM     16  C   UNL     1      52.795 162.560  41.475  0.00  0.00    -0.004 C 
ATOM     17  C   UNL     1      50.842 166.841  41.621  0.00  0.00    +0.005 C 
ATOM     18  C   UNL     1      50.415 168.056  41.971  0.00  0.00    +0.052 C 
ATOM     19  C   UNL     1      49.067 168.360  41.963  0.00  0.00    +0.217 C 
ATOM     20  N   UNL     1      48.164 167.439  41.604  0.00  0.00    -0.236 NA
ATOM     21  C   UNL     1      48.563 166.189  41.243  0.00  0.00    +0.150 C 
ATOM     22  C   UNL     1      49.897 165.893  41.252  0.00  0.00    +0.207 C 
ENDROOT
BRANCH  21  23
ATOM     23  C   UNL     1      47.499 165.230  40.865  0.00  0.00    +0.026 C 
ATOM     24  C   UNL     1      47.116 164.274  41.944  0.00  0.00    +0.002 C 
ATOM     25  C   UNL     1      46.776 162.916  41.400  0.00  0.00    +0.000 C 
ATOM     26  C   UNL     1      46.064 162.967  40.078  0.00  0.00    +0.000 C 
ATOM     27  C   UNL     1      47.015 163.550  39.048  0.00  0.00    +0.000 C 
ATOM     28  C   UNL     1      48.004 164.508  39.617  0.00  0.00    +0.002 C 
ENDBRANCH  21  23
BRANCH  19  29
ATOM     29  O   UNL     1      48.603 169.627  42.325  0.00  0.00    -0.492 OA
ATOM     30  H   UNL     1      49.208 170.285  42.607  0.00  0.00    +0.294 HD
ENDBRANCH  19  29
BRANCH  10  31
ATOM     31  C   UNL     1      54.441 164.369  41.131  0.00  0.00    +0.112 C 
BRANCH  31  35
ATOM     32  N   UNL     1      56.063 162.406  41.039  0.00  0.00    -0.251 N 
ATOM     33  C   UNL     1      56.805 161.415  41.725  0.00  0.00    +0.253 C 
ATOM     34  O   UNL     1      56.783 161.313  42.977  0.00  0.00    -0.270 OA
ATOM     35  C   UNL     1      55.276 163.314  41.795  0.00  0.00    +0.233 C 
ATOM     36  O   UNL     1      55.285 163.224  43.034  0.00  0.00    -0.274 OA
ATOM     37  H   UNL     1      56.092 162.466  40.057  0.00  0.00    +0.158 HD
BRANCH  33  38
ATOM     38  C   UNL     1      57.631 160.469  40.979  0.00  0.00    +0.073 C 
ATOM     39  C   UNL     1      58.093 159.350  41.670  0.00  0.00    +0.103 C 
ATOM     40  N   UNL     1      58.856 158.495  40.994  0.00  0.00    -0.242 NA
ATOM     41  C   UNL     1      59.192 158.664  39.702  0.00  0.00    +0.099 C 
ATOM     42  C   UNL     1      58.743 159.771  39.000  0.00  0.00    +0.021 C 
ATOM     43  C   UNL     1      57.952 160.681  39.658  0.00  0.00    +0.008 C 
ENDBRANCH  33  38
ENDBRANCH  31  35
ENDBRANCH  10  31
TORSDOF 5
ENDMDL
