REMARK  Name = =
REMARK  0 active torsions:
REMARK  status: ('A' for Active; 'I' for Inactive)
REMARK                            x       y       z     vdW  Elec       q    Type
REMARK                         _______ _______ _______ _____ _____    ______ ____
ROOT
ATOM      1  F   UNL     1      50.942 154.534  30.150  0.00  0.00    -0.204 F 
ATOM      2  C   UNL     1      51.203 155.825  29.840  0.00  0.00    +0.140 C 
ATOM      3  C   UNL     1      52.306 156.166  29.068  0.00  0.00    +0.030 C 
ATOM      4  C   UNL     1      52.569 157.484  28.753  0.00  0.00    +0.002 C 
ATOM      5  C   UNL     1      51.720 158.483  29.216  0.00  0.00    +0.000 C 
ATOM      6  C   UNL     1      50.632 158.135  29.979  0.00  0.00    +0.002 C 
ATOM      7  C   UNL     1      50.351 156.810  30.305  0.00  0.00    +0.030 C 
ENDROOT
TORSDOF 0
