REMARK  Name = =
REMARK  2 active torsions:
REMARK  status: ('A' for Active; 'I' for Inactive)
REMARK    1  A    between atoms: C_1  and  C_5
REMARK    2  A    between atoms: N_2  and  N_10
REMARK                            x       y       z     vdW  Elec       q    Type
REMARK                         _______ _______ _______ _____ _____    ______ ____
ROOT
ATOM      1  C   UNL     1      53.172 155.346  28.211  0.00  0.00    +0.120 C 
ATOM      2  N   UNL     1      53.130 154.062  28.249  0.00  0.00    -0.176 NA
ENDROOT
BRANCH   1   5
ATOM      3  F   UNL     1      50.698 154.217  28.737  0.00  0.00    -0.204 F 
ATOM      4  C   UNL     1      50.888 155.498  29.133  0.00  0.00    +0.142 C 
ATOM      5  C   UNL     1      52.111 156.083  28.883  0.00  0.00    +0.048 C 
ATOM      6  C   UNL     1      52.325 157.386  29.278  0.00  0.00    +0.004 C 
ATOM      7  C   UNL     1      51.360 158.138  29.918  0.00  0.00    +0.000 C 
ATOM      8  C   UNL     1      50.148 157.509  30.149  0.00  0.00    +0.002 C 
ATOM      9  C   UNL     1      49.883 156.214  29.776  0.00  0.00    +0.030 C 
ENDBRANCH   1   5
BRANCH   2  10
ATOM     10  N   UNL     1      54.109 153.287  27.630  0.00  0.00    -0.190 N 
ATOM     11  C   UNL     1      55.202 152.785  28.406  0.00  0.00    +0.317 C 
ATOM     12  O   UNL     1      55.276 153.041  29.640  0.00  0.00    -0.251 OA
ATOM     13  N   UNL     1      56.235 151.984  27.818  0.00  0.00    -0.312 N 
ATOM     14  H   UNL     1      54.049 153.087  26.668  0.00  0.00    +0.179 HD
ATOM     15  H   UNL     1      56.204 151.768  26.858  0.00  0.00    +0.147 HD
ATOM     16  H   UNL     1      56.975 151.650  28.374  0.00  0.00    +0.147 HD
ENDBRANCH   2  10
TORSDOF 2
