REMARK  Name = =
REMARK  3 active torsions:
REMARK  status: ('A' for Active; 'I' for Inactive)
REMARK    1  A    between atoms: C_1  and  C_5
REMARK    2  A    between atoms: C_1  and  S_14
REMARK    3  A    between atoms: N_2  and  N_10
REMARK                            x       y       z     vdW  Elec       q    Type
REMARK                         _______ _______ _______ _____ _____    ______ ____
ROOT
ATOM      1  C   UNL     1      52.269 154.248  28.290  0.00  0.00    +0.110 C 
ATOM      2  N   UNL     1      53.512 154.472  28.303  0.00  0.00    -0.173 NA
ENDROOT
BRANCH   1   5
ATOM      3  F   UNL     1      53.202 156.819  28.977  0.00  0.00    -0.204 F 
ATOM      4  C   UNL     1      51.916 156.543  29.219  0.00  0.00    +0.142 C 
ATOM      5  C   UNL     1      51.413 155.288  28.896  0.00  0.00    +0.051 C 
ATOM      6  C   UNL     1      50.086 155.036  29.158  0.00  0.00    +0.004 C 
ATOM      7  C   UNL     1      49.280 155.998  29.723  0.00  0.00    +0.000 C 
ATOM      8  C   UNL     1      49.778 157.257  30.049  0.00  0.00    +0.002 C 
ATOM      9  C   UNL     1      51.099 157.498  29.785  0.00  0.00    +0.030 C 
ENDBRANCH   1   5
BRANCH   2  10
ATOM     10  N   UNL     1      54.577 153.763  27.849  0.00  0.00    -0.190 N 
ATOM     11  C   UNL     1      55.251 152.893  28.784  0.00  0.00    +0.317 C 
ATOM     12  O   UNL     1      54.881 152.782  29.977  0.00  0.00    -0.251 OA
ATOM     13  N   UNL     1      56.373 152.124  28.371  0.00  0.00    -0.312 N 
ATOM     14  H   UNL     1      54.879 153.839  26.915  0.00  0.00    +0.179 HD
ATOM     15  H   UNL     1      56.695 152.183  27.443  0.00  0.00    +0.147 HD
ATOM     16  H   UNL     1      56.828 151.533  29.013  0.00  0.00    +0.147 HD
ENDBRANCH   2  10
BRANCH   1  17
ATOM     17  S   UNL     1      51.544 152.875  27.645  0.00  0.00    -0.157 S 
ATOM     18  C   UNL     1      52.233 152.008  26.163  0.00  0.00    +0.151 C 
ATOM     19  N   UNL     1      52.025 150.783  26.372  0.00  0.00    -0.139 NA
ATOM     20  N   UNL     1      51.399 150.436  27.535  0.00  0.00    -0.217 NA
ATOM     21  C   UNL     1      51.797 151.269  28.646  0.00  0.00    +0.129 C 
ATOM     22  H   UNL     1      50.347 153.506  27.508  0.00  0.00    +0.092 HD
ATOM     23  H   UNL     1      51.629 149.467  27.754  0.00  0.00    +0.144 HD
ENDBRANCH   1  17
TORSDOF 3
