REMARK  Name = =
REMARK  7 active torsions:
REMARK  status: ('A' for Active; 'I' for Inactive)
REMARK    1  A    between atoms: C_1  and  C_5
REMARK    2  A    between atoms: C_1  and  S_19
REMARK    3  A    between atoms: N_2  and  N_15
REMARK    4  A    between atoms: C_8  and  O_10
REMARK    5  A    between atoms: O_10  and  P_11
REMARK    6  A    between atoms: P_11  and  O_13
REMARK    7  A    between atoms: P_11  and  O_14
REMARK                            x       y       z     vdW  Elec       q    Type
REMARK                         _______ _______ _______ _____ _____    ______ ____
ROOT
ATOM      1  C   UNL     1      52.839 153.889  28.046  0.00  0.00    +0.110 C 
ATOM      2  N   UNL     1      53.811 153.247  28.448  0.00  0.00    -0.173 NA
ENDROOT
BRANCH   1   5
ATOM      3  F   UNL     1      50.382 154.320  29.261  0.00  0.00    -0.204 F 
ATOM      4  C   UNL     1      51.189 155.411  29.055  0.00  0.00    +0.145 C 
ATOM      5  C   UNL     1      52.431 155.222  28.469  0.00  0.00    +0.051 C 
ATOM      6  C   UNL     1      53.194 156.355  28.312  0.00  0.00    +0.007 C 
ATOM      7  C   UNL     1      52.738 157.615  28.719  0.00  0.00    +0.038 C 
ATOM      8  C   UNL     1      51.508 157.795  29.297  0.00  0.00    +0.151 C 
ATOM      9  C   UNL     1      50.747 156.665  29.455  0.00  0.00    +0.067 C 
BRANCH   8  10
ATOM     10  O   UNL     1      51.044 159.035  29.704  0.00  0.00    -0.403 OA
BRANCH  10  11
ATOM     11  P   UNL     1      49.608 159.263  30.591  0.00  0.00    +0.528 P 
ATOM     12  O   UNL     1      48.476 159.402  29.604  0.00  0.00    -0.216 OA
BRANCH  11  13
ATOM     13  O   UNL     1      49.746 160.697  31.487  0.00  0.00    -0.293 OA
ATOM     14  H   UNL     1      50.473 160.612  32.123  0.00  0.00    +0.223 HD
ENDBRANCH  11  13
BRANCH  11  15
ATOM     15  O   UNL     1      49.316 157.941  31.599  0.00  0.00    -0.293 OA
ATOM     16  H   UNL     1      50.044 157.851  32.234  0.00  0.00    +0.223 HD
ENDBRANCH  11  15
ENDBRANCH  10  11
ENDBRANCH   8  10
ENDBRANCH   1   5
BRANCH   2  17
ATOM     17  N   UNL     1      54.779 153.497  29.347  0.00  0.00    -0.190 N 
ATOM     18  C   UNL     1      55.419 152.450  30.079  0.00  0.00    +0.317 C 
ATOM     19  O   UNL     1      55.058 151.255  29.868  0.00  0.00    -0.251 OA
ATOM     20  N   UNL     1      56.431 152.741  31.016  0.00  0.00    -0.312 N 
ATOM     21  H   UNL     1      55.055 154.429  29.506  0.00  0.00    +0.179 HD
ATOM     22  H   UNL     1      56.704 153.674  31.172  0.00  0.00    +0.147 HD
ATOM     23  H   UNL     1      56.865 152.011  31.514  0.00  0.00    +0.147 HD
ENDBRANCH   2  17
BRANCH   1  24
ATOM     24  S   UNL     1      51.805 153.107  26.726  0.00  0.00    -0.157 S 
ATOM     25  C   UNL     1      52.941 152.006  25.720  0.00  0.00    +0.151 C 
ATOM     26  N   UNL     1      53.449 152.786  24.877  0.00  0.00    -0.139 NA
ATOM     27  N   UNL     1      53.091 154.103  24.898  0.00  0.00    -0.217 NA
ATOM     28  C   UNL     1      51.719 154.297  25.231  0.00  0.00    +0.129 C 
ATOM     29  H   UNL     1      50.679 152.647  27.334  0.00  0.00    +0.092 HD
ATOM     30  H   UNL     1      53.262 154.502  23.975  0.00  0.00    +0.144 HD
ENDBRANCH   1  24
TORSDOF 7
