REMARK  Name = =
REMARK  8 active torsions:
REMARK  status: ('A' for Active; 'I' for Inactive)
REMARK    1  A    between atoms: C_1  and  C_5
REMARK    2  A    between atoms: C_1  and  S_19
REMARK    3  A    between atoms: N_2  and  N_15
REMARK    4  A    between atoms: C_8  and  O_10
REMARK    5  A    between atoms: O_10  and  P_11
REMARK    6  A    between atoms: P_11  and  O_13
REMARK    7  A    between atoms: P_11  and  O_14
REMARK    8  A    between atoms: C_20  and  C_24
REMARK                            x       y       z     vdW  Elec       q    Type
REMARK                         _______ _______ _______ _____ _____    ______ ____
ROOT
ATOM      1  C   UNL     1      53.020 154.204  27.974  0.00  0.00    +0.113 C 
ATOM      2  N   UNL     1      54.004 153.874  28.727  0.00  0.00    -0.173 NA
ENDROOT
BRANCH   1   5
ATOM      3  F   UNL     1      53.654 156.213  29.876  0.00  0.00    -0.204 F 
ATOM      4  C   UNL     1      52.374 156.051  29.533  0.00  0.00    +0.145 C 
ATOM      5  C   UNL     1      52.021 155.090  28.612  0.00  0.00    +0.051 C 
ATOM      6  C   UNL     1      50.691 154.944  28.275  0.00  0.00    +0.007 C 
ATOM      7  C   UNL     1      49.705 155.729  28.831  0.00  0.00    +0.038 C 
ATOM      8  C   UNL     1      50.057 156.702  29.762  0.00  0.00    +0.151 C 
ATOM      9  C   UNL     1      51.405 156.840  30.093  0.00  0.00    +0.067 C 
BRANCH   8  10
ATOM     10  O   UNL     1      49.135 157.522  30.359  0.00  0.00    -0.403 OA
BRANCH  10  11
ATOM     11  P   UNL     1      49.360 159.226  30.195  0.00  0.00    +0.528 P 
ATOM     12  O   UNL     1      48.057 159.878  29.793  0.00  0.00    -0.216 OA
BRANCH  11  13
ATOM     13  O   UNL     1      49.843 159.799  31.710  0.00  0.00    -0.293 OA
ATOM     14  H   UNL     1      49.151 159.609  32.363  0.00  0.00    +0.223 HD
ENDBRANCH  11  13
BRANCH  11  15
ATOM     15  O   UNL     1      50.578 159.570  29.088  0.00  0.00    -0.293 OA
ATOM     16  H   UNL     1      51.401 159.141  29.369  0.00  0.00    +0.223 HD
ENDBRANCH  11  15
ENDBRANCH  10  11
ENDBRANCH   8  10
ENDBRANCH   1   5
BRANCH   2  17
ATOM     17  N   UNL     1      55.067 153.056  28.369  0.00  0.00    -0.190 N 
ATOM     18  C   UNL     1      55.874 152.391  29.361  0.00  0.00    +0.317 C 
ATOM     19  O   UNL     1      55.585 152.574  30.569  0.00  0.00    -0.251 OA
ATOM     20  N   UNL     1      56.963 151.553  29.003  0.00  0.00    -0.312 N 
ATOM     21  H   UNL     1      55.274 152.927  27.415  0.00  0.00    +0.179 HD
ATOM     22  H   UNL     1      57.185 151.413  28.054  0.00  0.00    +0.147 HD
ATOM     23  H   UNL     1      57.496 151.112  29.704  0.00  0.00    +0.147 HD
ENDBRANCH   2  17
BRANCH   1  24
ATOM     24  S   UNL     1      52.852 153.703  26.397  0.00  0.00    -0.133 S 
ATOM     25  C   UNL     1      52.578 151.917  25.941  0.00  0.00    +0.129 C 
ATOM     26  N   UNL     1      53.044 151.822  24.769  0.00  0.00    -0.178 NA
ATOM     27  N   UNL     1      53.572 152.936  24.193  0.00  0.00    -0.247 N 
ATOM     28  C   UNL     1      54.234 153.801  25.167  0.00  0.00    +0.154 C 
ATOM     29  H   UNL     1      51.824 154.591  26.339  0.00  0.00    +0.097 HD
ATOM     30  H   UNL     1      53.515 153.136  23.231  0.00  0.00    +0.170 HD
BRANCH  25  31
ATOM     31  C   UNL     1      51.976 150.934  26.770  0.00  0.00    +0.114 C 
ATOM     32  N   UNL     1      51.828 149.747  26.294  0.00  0.00    -0.295 NA
ATOM     33  H   UNL     1      51.414 149.044  26.845  0.00  0.00    +0.187 HD
ENDBRANCH  25  31
ENDBRANCH   1  24
TORSDOF 8
