REMARK  Name = =
REMARK  8 active torsions:
REMARK  status: ('A' for Active; 'I' for Inactive)
REMARK    1  A    between atoms: C_1  and  C_5
REMARK    2  A    between atoms: C_1  and  S_19
REMARK    3  A    between atoms: N_2  and  N_15
REMARK    4  A    between atoms: C_8  and  O_10
REMARK    5  A    between atoms: O_10  and  P_11
REMARK    6  A    between atoms: P_11  and  O_13
REMARK    7  A    between atoms: P_11  and  O_14
REMARK    8  A    between atoms: C_20  and  C_24
REMARK                            x       y       z     vdW  Elec       q    Type
REMARK                         _______ _______ _______ _____ _____    ______ ____
ROOT
ATOM      1  C   UNL     1      52.688 154.314  27.943  0.00  0.00    +0.113 C 
ATOM      2  N   UNL     1      53.433 153.540  28.528  0.00  0.00    -0.173 NA
ENDROOT
BRANCH   1   5
ATOM      3  F   UNL     1      53.902 156.861  27.494  0.00  0.00    -0.204 F 
ATOM      4  C   UNL     1      52.773 156.768  28.194  0.00  0.00    +0.145 C 
ATOM      5  C   UNL     1      52.142 155.563  28.415  0.00  0.00    +0.051 C 
ATOM      6  C   UNL     1      50.971 155.662  29.161  0.00  0.00    +0.007 C 
ATOM      7  C   UNL     1      50.459 156.830  29.649  0.00  0.00    +0.038 C 
ATOM      8  C   UNL     1      51.108 158.009  29.412  0.00  0.00    +0.151 C 
ATOM      9  C   UNL     1      52.253 157.977  28.693  0.00  0.00    +0.067 C 
BRANCH   8  10
ATOM     10  O   UNL     1      50.547 159.174  29.930  0.00  0.00    -0.403 OA
BRANCH  10  11
ATOM     11  P   UNL     1      49.060 159.188  30.731  0.00  0.00    +0.528 P 
ATOM     12  O   UNL     1      48.774 160.560  31.268  0.00  0.00    -0.216 OA
BRANCH  11  13
ATOM     13  O   UNL     1      49.031 158.118  32.052  0.00  0.00    -0.293 OA
ATOM     14  H   UNL     1      49.723 158.366  32.684  0.00  0.00    +0.223 HD
ENDBRANCH  11  13
BRANCH  11  15
ATOM     15  O   UNL     1      47.856 158.766  29.619  0.00  0.00    -0.293 OA
ATOM     16  H   UNL     1      47.879 159.381  28.869  0.00  0.00    +0.223 HD
ENDBRANCH  11  15
ENDBRANCH  10  11
ENDBRANCH   8  10
ENDBRANCH   1   5
BRANCH   2  17
ATOM     17  N   UNL     1      54.118 153.240  29.610  0.00  0.00    -0.190 N 
ATOM     18  C   UNL     1      55.458 152.690  29.514  0.00  0.00    +0.317 C 
ATOM     19  O   UNL     1      55.982 152.493  28.376  0.00  0.00    -0.251 OA
ATOM     20  N   UNL     1      56.234 152.352  30.641  0.00  0.00    -0.312 N 
ATOM     21  H   UNL     1      53.717 153.390  30.496  0.00  0.00    +0.179 HD
ATOM     22  H   UNL     1      55.872 152.486  31.546  0.00  0.00    +0.147 HD
ATOM     23  H   UNL     1      57.138 151.982  30.523  0.00  0.00    +0.147 HD
ENDBRANCH   2  17
BRANCH   1  24
ATOM     24  S   UNL     1      52.248 153.903  26.182  0.00  0.00    -0.132 S 
ATOM     25  C   UNL     1      53.688 153.504  25.144  0.00  0.00    +0.133 C 
ATOM     26  N   UNL     1      53.938 152.255  25.374  0.00  0.00    -0.178 NA
ATOM     27  N   UNL     1      53.114 151.637  26.263  0.00  0.00    -0.247 N 
ATOM     28  C   UNL     1      51.735 152.030  26.112  0.00  0.00    +0.154 C 
ATOM     29  H   UNL     1      51.433 154.930  25.820  0.00  0.00    +0.097 HD
ATOM     30  H   UNL     1      53.426 150.991  26.937  0.00  0.00    +0.170 HD
BRANCH  25  31
ATOM     31  C   UNL     1      54.447 154.301  24.236  0.00  0.00    +0.125 C 
ATOM     32  N   UNL     1      54.980 153.788  23.156  0.00  0.00    -0.291 NA
ATOM     33  I   UNL     1      54.703 156.354  24.617  0.00  0.00    -0.020 I 
ATOM     34  H   UNL     1      55.500 154.359  22.545  0.00  0.00    +0.187 HD
ENDBRANCH  25  31
ENDBRANCH   1  24
TORSDOF 8
