MODEL 1
REMARK VINA RESULT:    -6.605      0.000      0.000
REMARK INTER + INTRA:          -9.471
REMARK INTER:                  -8.922
REMARK INTRA:                  -0.549
REMARK UNBOUND:                -0.549
REMARK  Name = =
REMARK  7 active torsions:
REMARK  status: ('A' for Active; 'I' for Inactive)
REMARK    1  A    between atoms: C_1  and  C_12
REMARK    2  A    between atoms: C_11  and  O_17
REMARK    3  A    between atoms: C_12  and  O_13
REMARK    4  A    between atoms: O_13  and  C_15
REMARK    5  A    between atoms: O_17  and  P_18
REMARK    6  A    between atoms: P_18  and  N_20
REMARK    7  A    between atoms: P_18  and  O_21
REMARK                            x       y       z     vdW  Elec       q    Type
REMARK                         _______ _______ _______ _____ _____    ______ ____
ROOT
ATOM      1  C   UNL     1      49.168 166.533  40.964  0.00  0.00    +0.072 C 
ATOM      2  C   UNL     1      48.210 165.510  40.993  0.00  0.00    +0.013 C 
ATOM      3  C   UNL     1      48.477 164.392  39.888  0.00  0.00    +0.035 C 
ATOM      4  C   UNL     1      48.617 163.312  40.902  0.00  0.00    +0.137 C 
ATOM      5  C   UNL     1      47.478 162.958  41.423  0.00  0.00    -0.002 C 
ATOM      6  C   UNL     1      46.444 164.050  41.611  0.00  0.00    -0.028 C 
ATOM      7  C   UNL     1      46.815 165.314  41.217  0.00  0.00    +0.026 C 
ATOM      8  O   UNL     1      49.738 162.698  41.335  0.00  0.00    -0.352 OA
ATOM      9  C   UNL     1      51.039 163.376  41.681  0.00  0.00    +0.145 C 
ATOM     10  C   UNL     1      50.834 164.834  42.018  0.00  0.00    +0.062 C 
ATOM     11  C   UNL     1      50.567 165.836  40.997  0.00  0.00    +0.131 C 
ENDROOT
BRANCH   1  12
ATOM     12  C   UNL     1      49.123 167.374  42.219  0.00  0.00    +0.212 C 
BRANCH  12  13
ATOM     13  O   UNL     1      48.402 168.539  42.139  0.00  0.00    -0.435 OA
BRANCH  13  15
ATOM     14  N   UNL     1      48.168 170.984  42.426  0.00  0.00    -0.295 N 
ATOM     15  C   UNL     1      48.905 169.767  42.500  0.00  0.00    +0.398 C 
ATOM     16  O   UNL     1      50.091 169.734  42.905  0.00  0.00    -0.227 OA
ATOM     17  H   UNL     1      47.238 170.977  42.104  0.00  0.00    +0.148 HD
ATOM     18  H   UNL     1      48.589 171.832  42.699  0.00  0.00    +0.148 HD
ENDBRANCH  13  15
ENDBRANCH  12  13
ENDBRANCH   1  12
BRANCH  11  19
ATOM     19  O   UNL     1      51.410 166.987  41.190  0.00  0.00    -0.285 OA
BRANCH  19  20
ATOM     20  P   UNL     1      52.762 166.932  40.187  0.00  0.00    +0.403 P 
ATOM     21  O   UNL     1      53.970 167.204  41.017  0.00  0.00    -0.240 OA
BRANCH  20  22
ATOM     22  N   UNL     1      52.872 165.382  39.388  0.00  0.00    -0.236 NA
ATOM     23  H   UNL     1      52.086 164.797  39.671  0.00  0.00    +0.130 HD
ATOM     24  H   UNL     1      53.746 164.926  39.649  0.00  0.00    +0.130 HD
ENDBRANCH  20  22
BRANCH  20  25
ATOM     25  O   UNL     1      52.609 168.117  38.971  0.00  0.00    -0.312 OA
ATOM     26  H   UNL     1      53.487 168.468  38.750  0.00  0.00    +0.221 HD
ENDBRANCH  20  25
ENDBRANCH  19  20
ENDBRANCH  11  19
TORSDOF 7
ENDMDL
