REMARK  Name = =
REMARK  7 active torsions:
REMARK  status: ('A' for Active; 'I' for Inactive)
REMARK    1  A    between atoms: C_1  and  C_12
REMARK    2  A    between atoms: C_11  and  O_17
REMARK    3  A    between atoms: C_12  and  O_13
REMARK    4  A    between atoms: O_13  and  C_15
REMARK    5  A    between atoms: O_17  and  P_18
REMARK    6  A    between atoms: P_18  and  N_20
REMARK    7  A    between atoms: P_18  and  O_21
REMARK                            x       y       z     vdW  Elec       q    Type
REMARK                         _______ _______ _______ _____ _____    ______ ____
ROOT
ATOM      1  C   UNL     1      52.596 153.637  27.889  0.00  0.00    +0.072 C 
ATOM      2  C   UNL     1      52.311 154.866  28.499  0.00  0.00    +0.013 C 
ATOM      3  C   UNL     1      53.580 155.829  28.555  0.00  0.00    +0.035 C 
ATOM      4  C   UNL     1      52.910 156.887  27.751  0.00  0.00    +0.137 C 
ATOM      5  C   UNL     1      52.006 157.537  28.424  0.00  0.00    -0.002 C 
ATOM      6  C   UNL     1      51.218 156.746  29.449  0.00  0.00    -0.028 C 
ATOM      7  C   UNL     1      51.533 155.413  29.563  0.00  0.00    +0.026 C 
ATOM      8  O   UNL     1      53.111 157.223  26.459  0.00  0.00    -0.352 OA
ATOM      9  C   UNL     1      53.268 156.260  25.310  0.00  0.00    +0.145 C 
ATOM     10  C   UNL     1      52.654 154.916  25.623  0.00  0.00    +0.062 C 
ATOM     11  C   UNL     1      53.286 153.965  26.525  0.00  0.00    +0.131 C 
ENDROOT
BRANCH   1  12
ATOM     12  C   UNL     1      51.334 152.893  27.517  0.00  0.00    +0.212 C 
BRANCH  12  13
ATOM     13  O   UNL     1      51.032 151.796  28.284  0.00  0.00    -0.435 OA
BRANCH  13  15
ATOM     14  N   UNL     1      51.360 149.423  28.896  0.00  0.00    -0.295 N 
ATOM     15  C   UNL     1      51.495 150.530  28.010  0.00  0.00    +0.398 C 
ATOM     16  O   UNL     1      52.060 150.423  26.896  0.00  0.00    -0.227 OA
ATOM     17  H   UNL     1      50.911 149.539  29.764  0.00  0.00    +0.148 HD
ATOM     18  H   UNL     1      51.716 148.541  28.640  0.00  0.00    +0.148 HD
ENDBRANCH  13  15
ENDBRANCH  12  13
ENDBRANCH   1  12
BRANCH  11  19
ATOM     19  O   UNL     1      53.305 152.651  25.937  0.00  0.00    -0.285 OA
BRANCH  19  20
ATOM     20  P   UNL     1      54.636 152.452  24.924  0.00  0.00    +0.403 P 
ATOM     21  O   UNL     1      54.654 151.038  24.451  0.00  0.00    -0.240 OA
BRANCH  20  22
ATOM     22  N   UNL     1      54.563 153.572  23.585  0.00  0.00    -0.236 NA
ATOM     23  H   UNL     1      55.376 153.437  22.984  0.00  0.00    +0.130 HD
ATOM     24  H   UNL     1      54.559 154.528  23.941  0.00  0.00    +0.130 HD
ENDBRANCH  20  22
BRANCH  20  25
ATOM     25  O   UNL     1      56.062 152.796  25.793  0.00  0.00    -0.312 OA
ATOM     26  H   UNL     1      56.135 152.190  26.547  0.00  0.00    +0.221 HD
ENDBRANCH  20  25
ENDBRANCH  19  20
ENDBRANCH  11  19
TORSDOF 7
