REMARK  Name = =
REMARK  1 active torsions:
REMARK  status: ('A' for Active; 'I' for Inactive)
REMARK    1  A    between atoms: C_2  and  O_12
REMARK                            x       y       z     vdW  Elec       q    Type
REMARK                         _______ _______ _______ _____ _____    ______ ____
ROOT
ATOM      1  C   UNL     1     -13.515 -43.540  27.207  0.00  0.00    +0.037 C 
ATOM      2  C   UNL     1     -12.945 -42.303  27.113  0.00  0.00    +0.137 C 
ATOM      3  C   UNL     1     -13.355 -41.431  26.120  0.00  0.00    +0.074 C 
ATOM      4  C   UNL     1     -14.344 -41.854  25.245  0.00  0.00    +0.152 C 
ATOM      5  C   UNL     1     -14.931 -43.098  25.324  0.00  0.00    +0.035 C 
ATOM      6  C   UNL     1     -14.498 -43.957  26.336  0.00  0.00    +0.006 C 
ATOM      7  C   UNL     1     -15.915 -43.494  24.438  0.00  0.00    +0.010 C 
ATOM      8  C   UNL     1     -16.289 -42.593  23.469  0.00  0.00    +0.082 C 
ATOM      9  C   UNL     1     -15.657 -41.363  23.451  0.00  0.00    +0.346 C 
ATOM     10  O   UNL     1     -15.997 -40.522  22.555  0.00  0.00    -0.244 OA
ATOM     11  O   UNL     1     -14.730 -41.036  24.311  0.00  0.00    -0.421 OA
ENDROOT
BRANCH   2  12
ATOM     12  O   UNL     1     -11.943 -41.908  28.018  0.00  0.00    -0.505 OA
ATOM     13  H   UNL     1     -11.662 -42.495  28.692  0.00  0.00    +0.292 HD
ENDBRANCH   2  12
TORSDOF 1
