REMARK  Name = =
REMARK  7 active torsions:
REMARK  status: ('A' for Active; 'I' for Inactive)
REMARK    1  A    between atoms: O_1  and  C_3
REMARK    2  A    between atoms: O_1  and  P_13
REMARK    3  A    between atoms: P_13  and  O_14
REMARK    4  A    between atoms: P_13  and  O_15
REMARK    5  A    between atoms: P_13  and  O_16
REMARK    6  A    between atoms: P_13  and  C_17
REMARK    7  A    between atoms: C_17  and  O_19
REMARK                            x       y       z     vdW  Elec       q    Type
REMARK                         _______ _______ _______ _____ _____    ______ ____
ROOT
ATOM      1  O   UNL     1     -11.669 -44.181  28.167  0.00  0.00    -0.415 OA
ENDROOT
BRANCH   1   3
ATOM      2  C   UNL     1      -9.558 -44.314  29.403  0.00  0.00    +0.038 C 
ATOM      3  C   UNL     1     -10.851 -43.900  29.283  0.00  0.00    +0.151 C 
ATOM      4  C   UNL     1     -11.445 -43.160  30.283  0.00  0.00    +0.075 C 
ATOM      5  C   UNL     1     -10.741 -42.815  31.443  0.00  0.00    +0.152 C 
ATOM      6  C   UNL     1      -9.429 -43.250  31.536  0.00  0.00    +0.035 C 
ATOM      7  C   UNL     1      -8.816 -43.993  30.543  0.00  0.00    +0.006 C 
ATOM      8  C   UNL     1      -8.745 -42.906  32.677  0.00  0.00    +0.010 C 
ATOM      9  C   UNL     1      -9.388 -42.166  33.644  0.00  0.00    +0.082 C 
ATOM     10  C   UNL     1     -10.699 -41.765  33.484  0.00  0.00    +0.346 C 
ATOM     11  O   UNL     1     -11.278 -41.085  34.380  0.00  0.00    -0.244 OA
ATOM     12  O   UNL     1     -11.320 -42.112  32.382  0.00  0.00    -0.421 OA
ENDBRANCH   1   3
BRANCH   1  13
ATOM     13  P   UNL     1     -13.102 -43.316  28.123  0.00  0.00    +0.418 P 
BRANCH  13  14
ATOM     14  O   UNL     1     -14.232 -43.590  29.089  0.00  0.00    -0.306 OA
ATOM     15  H   UNL     1     -13.874 -43.975  29.904  0.00  0.00    +0.222 HD
ENDBRANCH  13  14
BRANCH  13  16
ATOM     16  O   UNL     1     -11.811 -42.513  27.352  0.00  0.00    -0.306 OA
ATOM     17  H   UNL     1     -11.003 -42.620  27.878  0.00  0.00    +0.222 HD
ENDBRANCH  13  16
BRANCH  13  18
ATOM     18  O   UNL     1     -13.174 -44.940  27.679  0.00  0.00    -0.306 OA
ATOM     19  H   UNL     1     -12.810 -45.487  28.393  0.00  0.00    +0.222 HD
ENDBRANCH  13  18
BRANCH  13  20
ATOM     20  C   UNL     1     -13.795 -42.638  26.703  0.00  0.00    +0.432 C 
ATOM     21  O   UNL     1     -14.520 -41.597  26.889  0.00  0.00    -0.235 OA
BRANCH  20  22
ATOM     22  O   UNL     1     -13.706 -43.029  25.379  0.00  0.00    -0.471 OA
ATOM     23  H   UNL     1     -13.197 -43.780  25.146  0.00  0.00    +0.296 HD
ENDBRANCH  20  22
ENDBRANCH  13  20
ENDBRANCH   1  13
TORSDOF 7
