REMARK  Name = =
REMARK  8 active torsions:
REMARK  status: ('A' for Active; 'I' for Inactive)
REMARK    1  A    between atoms: N_1  and  C_7
REMARK    2  A    between atoms: C_3  and  C_19
REMARK    3  A    between atoms: C_4  and  N_28
REMARK    4  A    between atoms: C_8  and  N_14
REMARK    5  A    between atoms: N_21  and  C_22
REMARK    6  A    between atoms: N_28  and  P_29
REMARK    7  A    between atoms: P_29  and  N_31
REMARK    8  A    between atoms: P_29  and  O_32
REMARK                            x       y       z     vdW  Elec       q    Type
REMARK                         _______ _______ _______ _____ _____    ______ ____
ROOT
ATOM      1  N   UNL     1      -5.255  -3.975  31.980  0.00  0.00    -0.272 NA
ATOM      2  C   UNL     1      -4.980  -2.753  31.377  0.00  0.00    +0.083 C 
ATOM      3  C   UNL     1      -5.626  -1.581  32.124  0.00  0.00    +0.107 C 
ATOM      4  C   UNL     1      -7.091  -1.779  32.389  0.00  0.00    +0.074 C 
ATOM      5  C   UNL     1      -7.414  -3.195  32.801  0.00  0.00    +0.034 C 
ATOM      6  C   UNL     1      -6.112  -3.892  33.157  0.00  0.00    +0.074 C 
ENDROOT
BRANCH   1   7
ATOM      7  C   UNL     1      -4.370  -5.028  32.107  0.00  0.00    +0.073 C 
ATOM      8  C   UNL     1      -3.505  -5.492  31.004  0.00  0.00    +0.079 C 
ATOM      9  C   UNL     1      -3.281  -6.995  31.279  0.00  0.00    +0.082 C 
ATOM     10  C   UNL     1      -3.024  -7.188  32.738  0.00  0.00    +0.152 C 
ATOM     11  O   UNL     1      -2.958  -8.354  33.190  0.00  0.00    -0.296 OA
ATOM     12  C   UNL     1      -2.851  -6.055  33.637  0.00  0.00    +0.066 C 
ATOM     13  C   UNL     1      -3.511  -4.943  33.355  0.00  0.00    +0.025 C 
BRANCH   8  14
ATOM     14  N   UNL     1      -2.372  -4.826  30.640  0.00  0.00    -0.272 NA
ATOM     15  C   UNL     1      -2.296  -3.465  30.334  0.00  0.00    +0.072 C 
ATOM     16  C   UNL     1      -1.172  -3.466  29.260  0.00  0.00    +0.019 C 
ATOM     17  C   UNL     1      -0.185  -4.393  29.878  0.00  0.00    +0.019 C 
ATOM     18  C   UNL     1      -1.089  -5.378  30.617  0.00  0.00    +0.072 C 
ENDBRANCH   8  14
ENDBRANCH   1   7
BRANCH   3  19
ATOM     19  C   UNL     1      -5.397  -0.323  31.387  0.00  0.00    +0.227 C 
ATOM     20  O   UNL     1      -4.358  -0.208  30.671  0.00  0.00    -0.275 OA
ATOM     21  N   UNL     1      -6.273   0.777  31.429  0.00  0.00    -0.280 N 
ATOM     22  H   UNL     1      -7.081   0.691  31.985  0.00  0.00    +0.152 HD
BRANCH  21  23
ATOM     23  C   UNL     1      -6.081   2.031  30.717  0.00  0.00    +0.193 C 
ATOM     24  N   UNL     1      -7.163   2.915  31.059  0.00  0.00    -0.270 NA
ATOM     25  C   UNL     1      -7.082   4.141  30.314  0.00  0.00    +0.072 C 
ATOM     26  C   UNL     1      -5.765   4.225  29.610  0.00  0.00    +0.034 C 
ATOM     27  C   UNL     1      -5.562   3.055  28.674  0.00  0.00    +0.072 C 
ATOM     28  N   UNL     1      -6.089   1.824  29.281  0.00  0.00    -0.270 NA
ATOM     29  H   UNL     1      -7.118   3.127  32.056  0.00  0.00    +0.126 HD
ATOM     30  H   UNL     1      -5.497   1.030  29.037  0.00  0.00    +0.126 HD
ENDBRANCH  21  23
ENDBRANCH   3  19
BRANCH   4  31
ATOM     31  N   UNL     1      -7.928  -1.421  31.289  0.00  0.00    -0.224 NA
ATOM     32  H   UNL     1      -7.711  -2.015  30.489  0.00  0.00    +0.133 HD
BRANCH  31  33
ATOM     33  P   UNL     1      -9.597  -1.637  31.737  0.00  0.00    +0.339 P 
ATOM     34  O   UNL     1      -9.798  -1.113  33.164  0.00  0.00    -0.255 OA
BRANCH  33  35
ATOM     35  N   UNL     1     -10.139  -3.273  31.716  0.00  0.00    -0.247 NA
ATOM     36  H   UNL     1      -9.526  -3.842  32.300  0.00  0.00    +0.129 HD
ATOM     37  H   UNL     1     -10.120  -3.625  30.759  0.00  0.00    +0.129 HD
ENDBRANCH  33  35
BRANCH  33  38
ATOM     38  O   UNL     1     -10.626  -0.703  30.761  0.00  0.00    -0.322 OA
ATOM     39  H   UNL     1     -10.328   0.220  30.767  0.00  0.00    +0.220 HD
ENDBRANCH  33  38
ENDBRANCH  31  33
ENDBRANCH   4  31
TORSDOF 8
