REMARK  Name = =
REMARK  2 active torsions:
REMARK  status: ('A' for Active; 'I' for Inactive)
REMARK    1  A    between atoms: C_1  and  O_9
REMARK    2  A    between atoms: C_4  and  C_7
REMARK                            x       y       z     vdW  Elec       q    Type
REMARK                         _______ _______ _______ _____ _____    ______ ____
ROOT
ATOM      1  C   UNL     1      51.519 155.810  29.157  0.00  0.00    +0.134 C 
ATOM      2  C   UNL     1      52.429 156.822  28.881  0.00  0.00    +0.037 C 
ATOM      3  C   UNL     1      52.140 158.125  29.252  0.00  0.00    +0.006 C 
ATOM      4  C   UNL     1      50.971 158.478  29.895  0.00  0.00    +0.042 C 
ATOM      5  C   UNL     1      50.075 157.466  30.164  0.00  0.00    +0.006 C 
ATOM      6  C   UNL     1      50.355 156.160  29.798  0.00  0.00    +0.037 C 
ENDROOT
BRANCH   4   7
ATOM      7  C   UNL     1      50.721 159.866  30.261  0.00  0.00    +0.234 C 
ATOM      8  O   UNL     1      49.953 160.178  31.204  0.00  0.00    -0.283 OA
ENDBRANCH   4   7
BRANCH   1   9
ATOM      9  O   UNL     1      51.830 154.511  28.776  0.00  0.00    -0.506 OA
ATOM     10  H   UNL     1      51.229 153.814  28.953  0.00  0.00    +0.292 HD
ENDBRANCH   1   9
TORSDOF 2
