REMARK  Name = =
REMARK  2 active torsions:
REMARK  status: ('A' for Active; 'I' for Inactive)
REMARK    1  A    between atoms: C_1  and  O_9
REMARK    2  A    between atoms: C_4  and  C_7
REMARK                            x       y       z     vdW  Elec       q    Type
REMARK                         _______ _______ _______ _____ _____    ______ ____
ROOT
ATOM      1  C   UNL     1      51.375 155.889  28.685  0.00  0.00    +0.154 C 
ATOM      2  C   UNL     1      52.381 156.812  28.488  0.00  0.00    +0.038 C 
ATOM      3  C   UNL     1      52.356 158.044  29.105  0.00  0.00    +0.006 C 
ATOM      4  C   UNL     1      51.335 158.426  29.949  0.00  0.00    +0.042 C 
ATOM      5  C   UNL     1      50.329 157.501  30.146  0.00  0.00    +0.006 C 
ATOM      6  C   UNL     1      50.351 156.268  29.529  0.00  0.00    +0.038 C 
ENDROOT
BRANCH   4   7
ATOM      7  C   UNL     1      51.313 159.734  30.601  0.00  0.00    +0.234 C 
ATOM      8  O   UNL     1      50.396 160.089  31.378  0.00  0.00    -0.283 OA
ENDBRANCH   4   7
BRANCH   1   9
ATOM      9  O   UNL     1      51.390 154.637  28.063  0.00  0.00    -0.416 OA
ATOM     10 BR   UNL     1      52.345 153.190  28.769  0.00  0.00    +0.179 Br
ENDBRANCH   1   9
TORSDOF 2
