REMARK  Name = =
REMARK  0 active torsions:
REMARK  status: ('A' for Active; 'I' for Inactive)
REMARK                            x       y       z     vdW  Elec       q    Type
REMARK                         _______ _______ _______ _____ _____    ______ ____
ROOT
ATOM      1  C   UNL     1      51.626 156.719  28.742  0.00  0.00    +0.000 C 
ATOM      2  C   UNL     1      51.889 155.515  28.092  0.00  0.00    +0.000 C 
ATOM      3  C   UNL     1      51.115 154.396  28.311  0.00  0.00    +0.000 C 
ATOM      4  C   UNL     1      50.074 154.509  29.196  0.00  0.00    +0.000 C 
ATOM      5  C   UNL     1      49.794 155.713  29.860  0.00  0.00    +0.000 C 
ATOM      6  C   UNL     1      50.562 156.817  29.640  0.00  0.00    +0.000 C 
ATOM      7  C   UNL     1      50.273 158.009  30.308  0.00  0.00    +0.000 C 
ATOM      8  C   UNL     1      51.095 159.088  30.035  0.00  0.00    +0.000 C 
ATOM      9  C   UNL     1      50.857 160.307  30.672  0.00  0.00    +0.000 C 
ATOM     10  C   UNL     1      49.824 160.421  31.549  0.00  0.00    +0.000 C 
ATOM     11  C   UNL     1      49.005 159.315  31.810  0.00  0.00    +0.000 C 
ATOM     12  C   UNL     1      49.224 158.107  31.193  0.00  0.00    +0.000 C 
ATOM     13  C   UNL     1      52.146 158.990  29.148  0.00  0.00    +0.000 C 
ATOM     14  C   UNL     1      52.421 157.803  28.493  0.00  0.00    +0.000 C 
ATOM     15  C   UNL     1      53.462 157.682  27.607  0.00  0.00    +0.000 C 
ATOM     16  C   UNL     1      53.718 156.492  26.966  0.00  0.00    +0.000 C 
ATOM     17  C   UNL     1      52.931 155.377  27.197  0.00  0.00    +0.000 C 
ATOM     18  C   UNL     1      53.180 154.188  26.563  0.00  0.00    +0.000 C 
ATOM     19  C   UNL     1      52.401 153.072  26.787  0.00  0.00    +0.000 C 
ATOM     20  C   UNL     1      51.351 153.170  27.674  0.00  0.00    +0.000 C 
ENDROOT
TORSDOF 0
