REMARK  Name = =
REMARK  1 active torsions:
REMARK  status: ('A' for Active; 'I' for Inactive)
REMARK    1  A    between atoms: C_20  and  O_21
REMARK                            x       y       z     vdW  Elec       q    Type
REMARK                         _______ _______ _______ _____ _____    ______ ____
ROOT
ATOM      1  C   UNL     1      51.712 156.459  28.652  0.00  0.00    +0.000 C 
ATOM      2  C   UNL     1      52.076 155.255  28.090  0.00  0.00    +0.003 C 
ATOM      3  C   UNL     1      51.517 154.055  28.501  0.00  0.00    +0.034 C 
ATOM      4  C   UNL     1      50.576 154.122  29.503  0.00  0.00    +0.003 C 
ATOM      5  C   UNL     1      50.191 155.311  30.083  0.00  0.00    +0.000 C 
ATOM      6  C   UNL     1      50.756 156.484  29.662  0.00  0.00    +0.000 C 
ATOM      7  C   UNL     1      50.379 157.692  30.239  0.00  0.00    +0.000 C 
ATOM      8  C   UNL     1      50.968 158.867  29.793  0.00  0.00    +0.000 C 
ATOM      9  C   UNL     1      50.607 160.072  30.349  0.00  0.00    +0.000 C 
ATOM     10  C   UNL     1      49.652 160.096  31.360  0.00  0.00    +0.000 C 
ATOM     11  C   UNL     1      49.056 158.940  31.816  0.00  0.00    +0.000 C 
ATOM     12  C   UNL     1      49.423 157.736  31.251  0.00  0.00    +0.000 C 
ATOM     13  C   UNL     1      51.912 158.834  28.792  0.00  0.00    +0.000 C 
ATOM     14  C   UNL     1      52.291 157.630  28.215  0.00  0.00    +0.000 C 
ATOM     15  C   UNL     1      53.243 157.624  27.212  0.00  0.00    +0.000 C 
ATOM     16  C   UNL     1      53.623 156.428  26.635  0.00  0.00    +0.000 C 
ATOM     17  C   UNL     1      53.039 155.250  27.076  0.00  0.00    +0.000 C 
ATOM     18  C   UNL     1      53.418 154.056  26.500  0.00  0.00    +0.003 C 
ATOM     19  C   UNL     1      52.837 152.877  26.938  0.00  0.00    +0.037 C 
ATOM     20  C   UNL     1      51.889 152.856  27.933  0.00  0.00    +0.134 C 
ENDROOT
BRANCH  20  21
ATOM     21  O   UNL     1      51.338 151.653  28.335  0.00  0.00    -0.506 OA
ATOM     22  H   UNL     1      51.611 150.854  27.930  0.00  0.00    +0.292 HD
ENDBRANCH  20  21
TORSDOF 1
