REMARK  Name = =
REMARK  3 active torsions:
REMARK  status: ('A' for Active; 'I' for Inactive)
REMARK    1  A    between atoms: C_20  and  O_21
REMARK    2  A    between atoms: O_21  and  N_22
REMARK    3  A    between atoms: N_25  and  C_26
REMARK                            x       y       z     vdW  Elec       q    Type
REMARK                         _______ _______ _______ _____ _____    ______ ____
ROOT
ATOM      1  C   UNL     1      51.773 156.839  28.643  0.00  0.00    +0.000 C 
ATOM      2  C   UNL     1      52.115 155.682  27.973  0.00  0.00    +0.003 C 
ATOM      3  C   UNL     1      51.420 154.500  28.141  0.00  0.00    +0.037 C 
ATOM      4  C   UNL     1      50.361 154.500  29.005  0.00  0.00    +0.003 C 
ATOM      5  C   UNL     1      49.984 155.631  29.696  0.00  0.00    +0.000 C 
ATOM      6  C   UNL     1      50.682 156.795  29.520  0.00  0.00    +0.000 C 
ATOM      7  C   UNL     1      50.359 157.982  30.194  0.00  0.00    +0.000 C 
ATOM      8  C   UNL     1      51.105 159.151  29.990  0.00  0.00    +0.000 C 
ATOM      9  C   UNL     1      50.786 160.334  30.661  0.00  0.00    +0.000 C 
ATOM     10  C   UNL     1      49.725 160.313  31.521  0.00  0.00    +0.000 C 
ATOM     11  C   UNL     1      48.992 159.180  31.725  0.00  0.00    +0.000 C 
ATOM     12  C   UNL     1      49.301 157.998  31.064  0.00  0.00    +0.000 C 
ATOM     13  C   UNL     1      52.166 159.160  29.123  0.00  0.00    +0.000 C 
ATOM     14  C   UNL     1      52.495 158.017  28.458  0.00  0.00    +0.000 C 
ATOM     15  C   UNL     1      53.576 158.053  27.593  0.00  0.00    +0.000 C 
ATOM     16  C   UNL     1      53.923 156.908  26.924  0.00  0.00    +0.000 C 
ATOM     17  C   UNL     1      53.207 155.728  27.104  0.00  0.00    +0.000 C 
ATOM     18  C   UNL     1      53.548 154.574  26.444  0.00  0.00    +0.003 C 
ATOM     19  C   UNL     1      52.834 153.379  26.623  0.00  0.00    +0.040 C 
ATOM     20  C   UNL     1      51.763 153.319  27.471  0.00  0.00    +0.170 C 
ENDROOT
BRANCH  20  21
ATOM     21  O   UNL     1      51.018 152.188  27.695  0.00  0.00    -0.383 OA
BRANCH  21  22
ATOM     22  N   UNL     1      50.957 151.456  28.771  0.00  0.00    -0.132 N 
ATOM     23  C   UNL     1      51.458 150.029  28.876  0.00  0.00    +0.334 C 
ATOM     24  O   UNL     1      51.891 149.622  27.842  0.00  0.00    -0.250 OA
ATOM     25  N   UNL     1      51.262 149.605  30.177  0.00  0.00    -0.259 N 
ATOM     26  H   UNL     1      50.556 151.859  29.575  0.00  0.00    +0.197 HD
ATOM     27  H   UNL     1      50.855 150.044  30.959  0.00  0.00    +0.153 HD
BRANCH  25  28
ATOM     28  C   UNL     1      51.972 148.045  29.966  0.00  0.00    +0.278 C 
ATOM     29  O   UNL     1      52.369 147.842  28.894  0.00  0.00    -0.196 OA
ENDBRANCH  25  28
ENDBRANCH  21  22
ENDBRANCH  20  21
TORSDOF 3
