REMARK  Name = =
REMARK  0 active torsions:
REMARK  status: ('A' for Active; 'I' for Inactive)
REMARK                            x       y       z     vdW  Elec       q    Type
REMARK                         _______ _______ _______ _____ _____    ______ ____
ROOT
ATOM      1  C   UNL     1      48.364 158.799  30.739  0.00  0.00    +0.102 C 
ATOM      2  C   UNL     1      49.572 158.323  30.270  0.00  0.00    +0.037 C 
ATOM      3  C   UNL     1      50.571 159.253  30.064  0.00  0.00    +0.085 C 
ATOM      4  N   UNL     1      50.368 160.569  30.312  0.00  0.00    -0.224 NA
ATOM      5  C   UNL     1      49.184 161.017  30.770  0.00  0.00    +0.199 C 
ATOM      6  N   UNL     1      48.215 160.106  30.969  0.00  0.00    -0.222 NA
ATOM      7  C   UNL     1      51.785 158.796  29.595  0.00  0.00    +0.019 C 
ATOM      8  C   UNL     1      52.001 157.446  29.337  0.00  0.00    +0.002 C 
ATOM      9  C   UNL     1      51.003 156.517  29.544  0.00  0.00    +0.000 C 
ATOM     10  C   UNL     1      49.791 156.984  30.013  0.00  0.00    +0.003 C 
ENDROOT
TORSDOF 0
