REMARK  Name = =
REMARK  3 active torsions:
REMARK  status: ('A' for Active; 'I' for Inactive)
REMARK    1  A    between atoms: C_1  and  C_16
REMARK    2  A    between atoms: C_4  and  O_17
REMARK    3  A    between atoms: O_17  and  C_18
REMARK                            x       y       z     vdW  Elec       q    Type
REMARK                         _______ _______ _______ _____ _____    ______ ____
ROOT
ATOM      1  C   UNL     1      52.738 156.307  27.482  0.00  0.00    +0.000 C 
ATOM      2  C   UNL     1      51.762 157.251  27.151  0.00  0.00    +0.003 C 
ATOM      3  C   UNL     1      51.013 157.835  28.136  0.00  0.00    +0.037 C 
ATOM      4  C   UNL     1      51.180 157.529  29.463  0.00  0.00    +0.145 C 
ATOM      5  C   UNL     1      52.131 156.605  29.818  0.00  0.00    +0.037 C 
ATOM      6  C   UNL     1      52.884 156.019  28.824  0.00  0.00    +0.003 C 
ENDROOT
BRANCH   1  16
ATOM      7  C   UNL     1      52.776 153.485  27.009  0.00  0.00    +0.102 C 
ATOM      8  C   UNL     1      53.475 154.342  26.183  0.00  0.00    +0.037 C 
ATOM      9  C   UNL     1      54.162 153.746  25.131  0.00  0.00    +0.085 C 
ATOM     10  N   UNL     1      54.130 152.401  24.953  0.00  0.00    -0.224 NA
ATOM     11  C   UNL     1      53.445 151.580  25.764  0.00  0.00    +0.199 C 
ATOM     12  N   UNL     1      52.776 152.138  26.785  0.00  0.00    -0.222 NA
ATOM     13  C   UNL     1      54.886 154.562  24.283  0.00  0.00    +0.019 C 
ATOM     14  C   UNL     1      54.913 155.926  24.490  0.00  0.00    +0.002 C 
ATOM     15  C   UNL     1      54.229 156.509  25.534  0.00  0.00    +0.000 C 
ATOM     16  C   UNL     1      53.487 155.700  26.407  0.00  0.00    +0.003 C 
ENDBRANCH   1  16
BRANCH   4  17
ATOM     17  O   UNL     1      50.419 158.123  30.461  0.00  0.00    -0.453 OA
BRANCH  17  18
ATOM     18  C   UNL     1      50.729 159.404  30.866  0.00  0.00    +0.145 C 
ATOM     19  C   UNL     1      51.850 160.004  30.346  0.00  0.00    +0.037 C 
ATOM     20  C   UNL     1      52.223 161.285  30.705  0.00  0.00    +0.003 C 
ATOM     21  C   UNL     1      51.441 161.974  31.612  0.00  0.00    +0.000 C 
ATOM     22  C   UNL     1      50.307 161.389  32.149  0.00  0.00    +0.003 C 
ATOM     23  C   UNL     1      49.971 160.114  31.767  0.00  0.00    +0.037 C 
ENDBRANCH  17  18
ENDBRANCH   4  17
TORSDOF 3
