REMARK  Name = =
REMARK  6 active torsions:
REMARK  status: ('A' for Active; 'I' for Inactive)
REMARK    1  A    between atoms: O_1  and  C_5
REMARK    2  A    between atoms: O_1  and  C_18
REMARK    3  A    between atoms: C_2  and  C_17
REMARK    4  A    between atoms: C_23  and  N_24
REMARK    5  A    between atoms: N_24  and  C_25
REMARK    6  A    between atoms: C_28  and  O_31
REMARK                            x       y       z     vdW  Elec       q    Type
REMARK                         _______ _______ _______ _____ _____    ______ ____
ROOT
ATOM      1  O   UNL     1      52.349 157.110  29.698  0.00  0.00    -0.452 OA
ENDROOT
BRANCH   1   5
ATOM      2  C   UNL     1      53.133 154.151  26.881  0.00  0.00    +0.000 C 
ATOM      3  C   UNL     1      53.037 155.470  26.461  0.00  0.00    +0.003 C 
ATOM      4  C   UNL     1      52.778 156.446  27.390  0.00  0.00    +0.037 C 
ATOM      5  C   UNL     1      52.604 156.191  28.746  0.00  0.00    +0.145 C 
ATOM      6  C   UNL     1      52.700 154.853  29.171  0.00  0.00    +0.037 C 
ATOM      7  C   UNL     1      52.960 153.893  28.228  0.00  0.00    +0.003 C 
BRANCH   2  17
ATOM      8  C   UNL     1      52.155 151.454  27.093  0.00  0.00    +0.102 C 
ATOM      9  C   UNL     1      52.966 151.864  26.047  0.00  0.00    +0.037 C 
ATOM     10  C   UNL     1      53.299 150.919  25.109  0.00  0.00    +0.085 C 
ATOM     11  N   UNL     1      52.861 149.634  25.190  0.00  0.00    -0.224 NA
ATOM     12  C   UNL     1      52.075 149.263  26.220  0.00  0.00    +0.199 C 
ATOM     13  N   UNL     1      51.751 150.172  27.128  0.00  0.00    -0.222 NA
ATOM     14  C   UNL     1      54.095 151.198  24.004  0.00  0.00    +0.019 C 
ATOM     15  C   UNL     1      54.542 152.490  23.895  0.00  0.00    +0.002 C 
ATOM     16  C   UNL     1      54.231 153.467  24.815  0.00  0.00    +0.000 C 
ATOM     17  C   UNL     1      53.424 153.134  25.912  0.00  0.00    +0.003 C 
ENDBRANCH   2  17
ENDBRANCH   1   5
BRANCH   1  18
ATOM     18  C   UNL     1      52.565 158.415  29.893  0.00  0.00    +0.159 C 
ATOM     19  C   UNL     1      53.922 158.785  30.043  0.00  0.00    +0.039 C 
ATOM     20  C   UNL     1      54.310 160.078  30.250  0.00  0.00    +0.003 C 
ATOM     21  C   UNL     1      53.367 161.088  30.319  0.00  0.00    +0.001 C 
ATOM     22  C   UNL     1      52.045 160.763  30.178  0.00  0.00    +0.018 C 
ATOM     23  C   UNL     1      51.649 159.446  29.968  0.00  0.00    +0.083 C 
BRANCH  23  24
ATOM     24  N   UNL     1      50.276 159.189  29.799  0.00  0.00    -0.310 N 
ATOM     25  H   UNL     1      50.023 158.310  29.435  0.00  0.00    +0.152 HD
BRANCH  24  26
ATOM     26  C   UNL     1      49.231 160.086  30.108  0.00  0.00    +0.049 C 
ATOM     27  C   UNL     1      48.281 160.465  29.155  0.00  0.00    +0.018 C 
ATOM     28  C   UNL     1      47.231 161.301  29.459  0.00  0.00    +0.038 C 
ATOM     29  C   UNL     1      47.106 161.784  30.743  0.00  0.00    +0.134 C 
ATOM     30  C   UNL     1      48.019 161.433  31.706  0.00  0.00    +0.038 C 
ATOM     31  C   UNL     1      49.071 160.585  31.370  0.00  0.00    +0.018 C 
BRANCH  29  32
ATOM     32  O   UNL     1      46.047 162.632  31.066  0.00  0.00    -0.506 OA
ATOM     33  H   UNL     1      45.423 162.873  30.410  0.00  0.00    +0.292 HD
ENDBRANCH  29  32
ENDBRANCH  24  26
ENDBRANCH  23  24
ENDBRANCH   1  18
TORSDOF 6
