REMARK  Name = =
REMARK  6 active torsions:
REMARK  status: ('A' for Active; 'I' for Inactive)
REMARK    1  A    between atoms: C_4  and  N_19
REMARK    2  A    between atoms: C_9  and  N_43
REMARK    3  A    between atoms: O_29  and  O_32
REMARK    4  A    between atoms: O_32  and  O_33
REMARK    5  A    between atoms: O_33  and  C_34
REMARK    6  A    between atoms: N_43  and  N_44
REMARK                            x       y       z     vdW  Elec       q    Type
REMARK                         _______ _______ _______ _____ _____    ______ ____
ROOT
ATOM      1  C   UNL     1      -2.243  -3.286  28.458  0.00  0.00    +0.000 C 
ATOM      2  C   UNL     1      -1.713  -4.706  28.664  0.00  0.00    +0.002 C 
ATOM      3  C   UNL     1      -0.414  -4.912  28.104  0.00  0.00    +0.019 C 
ATOM      4  C   UNL     1       0.751  -5.533  28.614  0.00  0.00    +0.082 C 
ATOM      5  C   UNL     1       1.887  -5.064  27.681  0.00  0.00    +0.036 C 
ATOM      6  C   UNL     1       2.663  -6.125  27.068  0.00  0.00    +0.082 C 
ATOM      7  C   UNL     1       4.136  -6.108  27.195  0.00  0.00    +0.143 C 
ATOM      8  O   UNL     1       4.377  -5.846  25.873  0.00  0.00    -0.334 OA
ATOM      9  C   UNL     1       3.005  -5.845  25.621  0.00  0.00    +0.209 C 
ATOM     10  C   UNL     1       4.733  -5.226  28.219  0.00  0.00    -0.001 C 
ATOM     11  C   UNL     1       4.001  -4.003  28.596  0.00  0.00    -0.021 C 
ATOM     12  C   UNL     1       2.595  -3.862  28.154  0.00  0.00    +0.081 C 
ATOM     13  C   UNL     1       2.266  -2.570  27.567  0.00  0.00    +0.154 C 
ATOM     14  O   UNL     1       3.199  -1.933  27.173  0.00  0.00    -0.296 OA
ATOM     15  C   UNL     1       0.967  -1.800  27.322  0.00  0.00    +0.065 C 
ATOM     16  C   UNL     1      -0.137  -2.761  27.301  0.00  0.00    +0.007 C 
ATOM     17  C   UNL     1      -1.214  -2.342  27.917  0.00  0.00    +0.000 C 
ATOM     18  C   UNL     1      -0.278  -4.173  26.770  0.00  0.00    +0.002 C 
ENDROOT
BRANCH   4  19
ATOM     19  N   UNL     1       1.285  -5.340  29.910  0.00  0.00    -0.243 N 
ATOM     20  C   UNL     1       2.026  -6.377  30.426  0.00  0.00    +0.074 C 
ATOM     21  C   UNL     1       2.600  -6.315  31.681  0.00  0.00    +0.074 C 
ATOM     22  C   UNL     1       2.447  -5.189  32.471  0.00  0.00    +0.254 C 
ATOM     23  O   UNL     1       2.967  -5.133  33.609  0.00  0.00    -0.270 OA
ATOM     24  N   UNL     1       1.725  -4.199  31.946  0.00  0.00    -0.236 N 
ATOM     25  C   UNL     1       1.175  -4.289  30.711  0.00  0.00    +0.314 C 
ATOM     26  O   UNL     1       0.532  -3.299  30.341  0.00  0.00    -0.252 OA
ATOM     27  H   UNL     1       1.587  -3.378  32.471  0.00  0.00    +0.159 HD
ENDBRANCH   4  19
BRANCH   9  28
ATOM     28  N   UNL     1       2.565  -6.855  24.692  0.00  0.00    -0.198 N 
ATOM     29  H   UNL     1       1.814  -6.652  24.089  0.00  0.00    +0.174 HD
BRANCH  28  30
ATOM     30  N   UNL     1       3.170  -8.113  24.620  0.00  0.00    +0.044 NA
ATOM     31  O   UNL     1       4.255  -8.279  24.066  0.00  0.00    -0.126 OA
ENDBRANCH  28  30
ENDBRANCH   9  28
TORSDOF 3
REMARK  Name = =
REMARK  6 active torsions:
REMARK  status: ('A' for Active; 'I' for Inactive)
REMARK    1  A    between atoms: C_4  and  N_19
REMARK    2  A    between atoms: C_9  and  N_43
REMARK    3  A    between atoms: O_29  and  O_32
REMARK    4  A    between atoms: O_32  and  O_33
REMARK    5  A    between atoms: O_33  and  C_34
REMARK    6  A    between atoms: N_43  and  N_44
REMARK                            x       y       z     vdW  Elec       q    Type
REMARK                         _______ _______ _______ _____ _____    ______ ____
ROOT
ATOM      1  P   UNL     1       0.436  -7.341  28.405  0.00  0.00    +0.000 P 
ENDROOT
TORSDOF 0
REMARK  Name = =
REMARK  6 active torsions:
REMARK  status: ('A' for Active; 'I' for Inactive)
REMARK    1  A    between atoms: C_4  and  N_19
REMARK    2  A    between atoms: C_9  and  N_43
REMARK    3  A    between atoms: O_29  and  O_32
REMARK    4  A    between atoms: O_32  and  O_33
REMARK    5  A    between atoms: O_33  and  C_34
REMARK    6  A    between atoms: N_43  and  N_44
REMARK                            x       y       z     vdW  Elec       q    Type
REMARK                         _______ _______ _______ _____ _____    ______ ____
ROOT
ATOM      1  O   HOH     1       1.444  -8.059  29.212  0.00  0.00    -0.253 OA
ATOM      2  H   HOH     0       2.414  -8.059  29.212  0.00  0.00    +0.253 HD
ENDROOT
TORSDOF 0
REMARK  Name = =
REMARK  6 active torsions:
REMARK  status: ('A' for Active; 'I' for Inactive)
REMARK    1  A    between atoms: C_4  and  N_19
REMARK    2  A    between atoms: C_9  and  N_43
REMARK    3  A    between atoms: O_29  and  O_32
REMARK    4  A    between atoms: O_32  and  O_33
REMARK    5  A    between atoms: O_33  and  C_34
REMARK    6  A    between atoms: N_43  and  N_44
REMARK                            x       y       z     vdW  Elec       q    Type
REMARK                         _______ _______ _______ _____ _____    ______ ____
ROOT
ATOM      1  C   UNL     1       0.235  -9.377  25.878  0.00  0.00    +0.185 C 
ATOM      2  C   UNL     1      -0.028  -9.368  24.435  0.00  0.00    +0.039 C 
ATOM      3  C   UNL     1      -0.101 -10.452  23.684  0.00  0.00    +0.009 C 
ATOM      4  C   UNL     1       0.080 -11.774  24.258  0.00  0.00    +0.148 C 
ATOM      5  N   UNL     1      -0.046 -12.618  23.298  0.00  0.00    -0.262 NA
ATOM      6  C   UNL     1      -0.306 -11.971  22.064  0.00  0.00    +0.094 C 
ATOM      7  C   UNL     1      -0.351 -10.653  22.240  0.00  0.00    +0.018 C 
ATOM      8  C   UNL     1       0.342 -11.862  25.683  0.00  0.00    +0.005 C 
ATOM      9  C   UNL     1       0.406 -10.745  26.384  0.00  0.00    +0.039 C 
ENDROOT
BRANCH   1  10
ATOM     10  O   UNL     1      -0.712  -8.734  26.625  0.00  0.00    -0.306 OA
BRANCH  10  11
ATOM     11  O   UNL     1      -0.479  -7.530  26.954  0.00  0.00    -0.015 OA
BRANCH  11  12
ATOM     12  O   UNL     1       1.086  -7.645  26.911  0.00  0.00    -0.210 OA
ATOM     13  H   UNL     1       1.480  -6.789  27.143  0.00  0.00    +0.257 HD
ENDBRANCH  11  12
ENDBRANCH  10  11
ENDBRANCH   1  10
TORSDOF 3
REMARK  Name = =
REMARK  6 active torsions:
REMARK  status: ('A' for Active; 'I' for Inactive)
REMARK    1  A    between atoms: C_4  and  N_19
REMARK    2  A    between atoms: C_9  and  N_43
REMARK    3  A    between atoms: O_29  and  O_32
REMARK    4  A    between atoms: O_32  and  O_33
REMARK    5  A    between atoms: O_33  and  C_34
REMARK    6  A    between atoms: N_43  and  N_44
REMARK                            x       y       z     vdW  Elec       q    Type
REMARK                         _______ _______ _______ _____ _____    ______ ____
ROOT
ATOM      1  C   UNL     1      -0.826  -7.719  29.461  0.00  0.00    +0.000 C 
ATOM      2  C   UNL     1      -1.296  -8.858  29.935  0.00  0.00    +0.000 C 
ENDROOT
TORSDOF 0
