MODEL 1
REMARK VINA RESULT:   -10.966      0.000      0.000
REMARK INTER + INTRA:         -12.916
REMARK INTER:                 -13.851
REMARK INTRA:                   0.935
REMARK UNBOUND:                 0.935
REMARK  Name = =
REMARK  5 active torsions:
REMARK  status: ('A' for Active; 'I' for Inactive)
REMARK    1  A    between atoms: C_1  and  C_11
REMARK    2  A    between atoms: C_8  and  N_17
REMARK    3  A    between atoms: N_17  and  C_18
REMARK    4  A    between atoms: C_21  and  C_24
REMARK    5  A    between atoms: C_24  and  O_26
REMARK                            x       y       z     vdW  Elec       q    Type
REMARK                         _______ _______ _______ _____ _____    ______ ____
ROOT
ATOM      1  C   UNL     1      52.513 153.799  26.490  0.00  0.00    +0.062 C 
ATOM      2  C   UNL     1      52.537 154.975  27.202  0.00  0.00    +0.031 C 
ATOM      3  C   UNL     1      52.156 154.931  28.551  0.00  0.00    +0.085 C 
ATOM      4  N   UNL     1      51.774 153.788  29.147  0.00  0.00    -0.224 NA
ATOM      5  C   UNL     1      51.758 152.663  28.437  0.00  0.00    +0.199 C 
ATOM      6  N   UNL     1      52.120 152.697  27.149  0.00  0.00    -0.228 NA
ATOM      7  C   UNL     1      52.148 156.064  29.326  0.00  0.00    +0.034 C 
ATOM      8  C   UNL     1      52.527 157.273  28.754  0.00  0.00    +0.050 C 
ATOM      9  C   UNL     1      52.900 157.299  27.425  0.00  0.00    +0.015 C 
ATOM     10  C   UNL     1      52.911 156.168  26.636  0.00  0.00    +0.004 C 
ENDROOT
BRANCH   1  11
ATOM     11  C   UNL     1      52.926 153.749  25.065  0.00  0.00    +0.043 C 
ATOM     12  C   UNL     1      53.620 152.391  24.846  0.00  0.00    +0.025 C 
ATOM     13  C   UNL     1      55.011 152.520  25.423  0.00  0.00    +0.089 C 
ATOM     14  N   UNL     1      55.800 153.183  24.389  0.00  0.00    -0.218 NA
ATOM     15  C   UNL     1      55.042 154.258  23.780  0.00  0.00    +0.089 C 
ATOM     16  C   UNL     1      53.967 154.792  24.717  0.00  0.00    +0.025 C 
ENDBRANCH   1  11
BRANCH   8  17
ATOM     17  N   UNL     1      52.520 158.443  29.559  0.00  0.00    -0.312 N 
ATOM     18  H   UNL     1      53.350 158.943  29.732  0.00  0.00    +0.152 HD
BRANCH  17  19
ATOM     19  C   UNL     1      51.282 158.873  30.109  0.00  0.00    +0.048 C 
ATOM     20  C   UNL     1      50.162 158.067  30.034  0.00  0.00    +0.015 C 
ATOM     21  C   UNL     1      48.974 158.494  30.568  0.00  0.00    +0.008 C 
ATOM     22  C   UNL     1      48.861 159.719  31.185  0.00  0.00    +0.076 C 
ATOM     23  C   UNL     1      49.971 160.517  31.256  0.00  0.00    +0.008 C 
ATOM     24  C   UNL     1      51.176 160.101  30.724  0.00  0.00    +0.015 C 
BRANCH  22  25
ATOM     25  C   UNL     1      47.602 160.182  31.754  0.00  0.00    +0.338 C 
ATOM     26  O   UNL     1      47.650 160.875  32.798  0.00  0.00    -0.245 OA
BRANCH  25  27
ATOM     27  O   UNL     1      46.380 159.882  31.182  0.00  0.00    -0.477 OA
ATOM     28  H   UNL     1      46.311 159.181  30.565  0.00  0.00    +0.295 HD
ENDBRANCH  25  27
ENDBRANCH  22  25
ENDBRANCH  17  19
ENDBRANCH   8  17
TORSDOF 5
ENDMDL
