MODEL 1
REMARK VINA RESULT:    -7.722      0.000      0.000
REMARK INTER + INTRA:         -11.749
REMARK INTER:                 -10.656
REMARK INTRA:                  -1.094
REMARK UNBOUND:                -1.094
REMARK  Name = =
REMARK  7 active torsions:
REMARK  status: ('A' for Active; 'I' for Inactive)
REMARK    1  A    between atoms: O_1  and  C_7
REMARK    2  A    between atoms: O_1  and  C_16
REMARK    3  A    between atoms: C_2  and  O_8
REMARK    4  A    between atoms: O_8  and  C_15
REMARK    5  A    between atoms: C_21  and  C_22
REMARK    6  A    between atoms: C_22  and  C_23
REMARK    7  A    between atoms: C_22  and  O_29
REMARK                            x       y       z     vdW  Elec       q    Type
REMARK                         _______ _______ _______ _____ _____    ______ ____
ROOT
ATOM      1  O   UNL     1      52.372 162.716  42.026  0.00  0.00    -0.450 OA
ENDROOT
BRANCH   1   7
ATOM      2  C   UNL     1      51.218 160.609  42.457  0.00  0.00    +0.202 C 
ATOM      3  C   UNL     1      51.335 159.242  42.533  0.00  0.00    +0.140 C 
ATOM      4  N   UNL     1      52.502 158.567  42.313  0.00  0.00    -0.239 NA
ATOM      5  C   UNL     1      53.615 159.233  42.001  0.00  0.00    +0.102 C 
ATOM      6  C   UNL     1      53.542 160.601  41.915  0.00  0.00    +0.061 C 
ATOM      7  C   UNL     1      52.398 161.339  42.126  0.00  0.00    +0.183 C 
BRANCH   2   8
ATOM      8  O   UNL     1      50.123 161.281  42.663  0.00  0.00    -0.419 OA
BRANCH   8  15
ATOM      9  O   UNL     1      48.254 162.584  43.034  0.00  0.00    -0.420 OA
ATOM     10  C   UNL     1      47.230 163.276  42.678  0.00  0.00    +0.186 C 
ATOM     11  C   UNL     1      46.862 163.473  41.361  0.00  0.00    +0.083 C 
ATOM     12  C   UNL     1      47.665 162.879  40.419  0.00  0.00    +0.205 C 
ATOM     13  O   UNL     1      47.421 162.996  39.196  0.00  0.00    -0.286 OA
ATOM     14  C   UNL     1      48.774 162.133  40.851  0.00  0.00    +0.120 C 
ATOM     15  C   UNL     1      49.097 161.967  42.175  0.00  0.00    +0.305 C 
ENDBRANCH   8  15
ENDBRANCH   2   8
ENDBRANCH   1   7
BRANCH   1  16
ATOM     16  C   UNL     1      53.575 163.436  41.926  0.00  0.00    +0.147 C 
ATOM     17  C   UNL     1      54.572 163.103  42.863  0.00  0.00    +0.058 C 
ATOM     18  C   UNL     1      55.755 163.775  42.808  0.00  0.00    +0.102 C 
ATOM     19  N   UNL     1      55.964 164.739  41.877  0.00  0.00    -0.242 NA
ATOM     20  C   UNL     1      55.027 165.064  40.983  0.00  0.00    +0.100 C 
ATOM     21  C   UNL     1      53.814 164.411  40.999  0.00  0.00    +0.062 C 
BRANCH  21  22
ATOM     22  C   UNL     1      52.794 164.752  39.959  0.00  0.00    +0.159 C 
BRANCH  22  23
ATOM     23  C   UNL     1      51.794 165.715  40.505  0.00  0.00    +0.009 C 
ATOM     24  C   UNL     1      50.552 165.216  40.840  0.00  0.00    -0.002 C 
ATOM     25  C   UNL     1      49.598 166.069  41.346  0.00  0.00    -0.000 C 
ATOM     26  C   UNL     1      49.931 167.399  41.498  0.00  0.00    -0.000 C 
ATOM     27  C   UNL     1      51.189 167.890  41.156  0.00  0.00    -0.000 C 
ATOM     28  C   UNL     1      52.148 167.038  40.647  0.00  0.00    -0.002 C 
ENDBRANCH  22  23
BRANCH  22  29
ATOM     29  O   UNL     1      53.450 165.452  38.952  0.00  0.00    -0.375 OA
ATOM     30  H   UNL     1      53.776 166.295  39.304  0.00  0.00    +0.211 HD
ENDBRANCH  22  29
ENDBRANCH  21  22
ENDBRANCH   1  16
TORSDOF 7
ENDMDL
