REMARK  Name = =
REMARK  6 active torsions:
REMARK  status: ('A' for Active; 'I' for Inactive)
REMARK    1  A    between atoms: C_1  and  C_12
REMARK    2  A    between atoms: C_1  and  C_21
REMARK    3  A    between atoms: C_15  and  N_18
REMARK    4  A    between atoms: C_19  and  O_33
REMARK    5  A    between atoms: C_22  and  N_24
REMARK    6  A    between atoms: O_33  and  S_34
REMARK                            x       y       z     vdW  Elec       q    Type
REMARK                         _______ _______ _______ _____ _____    ______ ____
ROOT
ATOM      1  C   UNL     1     -21.169 -41.719  25.287  0.00  0.00    +0.152 C 
ATOM      2  C   UNL     1     -21.509 -41.349  26.726  0.00  0.00    +0.185 C 
ATOM      3  O   UNL     1     -21.209 -40.319  27.356  0.00  0.00    -0.291 OA
ATOM      4  C   UNL     1     -22.278 -42.489  27.214  0.00  0.00    +0.038 C 
ATOM      5  C   UNL     1     -21.874 -43.593  26.458  0.00  0.00    +0.038 C 
ATOM      6  C   UNL     1     -22.458 -44.823  26.724  0.00  0.00    +0.003 C 
ATOM      7  C   UNL     1     -23.418 -44.974  27.704  0.00  0.00    +0.000 C 
ATOM      8  C   UNL     1     -23.797 -43.867  28.432  0.00  0.00    +0.000 C 
ATOM      9  C   UNL     1     -23.243 -42.621  28.203  0.00  0.00    +0.003 C 
ATOM     10  C   UNL     1     -20.849 -43.131  25.500  0.00  0.00    +0.185 C 
ATOM     11  O   UNL     1     -19.984 -43.921  25.079  0.00  0.00    -0.291 OA
ENDROOT
BRANCH   1  12
ATOM     12  C   UNL     1     -22.469 -41.604  24.596  0.00  0.00    -0.007 C 
ATOM     13  C   UNL     1     -22.918 -42.522  23.670  0.00  0.00    -0.002 C 
ATOM     14  C   UNL     1     -24.143 -42.396  23.067  0.00  0.00    +0.014 C 
ATOM     15  C   UNL     1     -24.977 -41.331  23.369  0.00  0.00    +0.042 C 
ATOM     16  C   UNL     1     -24.535 -40.398  24.301  0.00  0.00    +0.014 C 
ATOM     17  C   UNL     1     -23.294 -40.537  24.906  0.00  0.00    -0.002 C 
BRANCH  15  18
ATOM     18  N   UNL     1     -26.244 -41.143  22.785  0.00  0.00    -0.357 N 
ATOM     19  H   UNL     1     -26.581 -41.788  22.122  0.00  0.00    +0.142 HD
ATOM     20  H   UNL     1     -26.793 -40.366  23.039  0.00  0.00    +0.142 HD
ENDBRANCH  15  18
ENDBRANCH   1  12
BRANCH   1  23
ATOM     21  C   UNL     1     -17.997 -41.787  24.847  0.00  0.00    +0.278 C 
ATOM     22  N   UNL     1     -18.880 -41.148  25.448  0.00  0.00    -0.229 NA
ATOM     23  C   UNL     1     -20.119 -40.826  24.771  0.00  0.00    +0.150 C 
ATOM     24  C   UNL     1     -19.871 -40.720  23.328  0.00  0.00    +0.139 C 
ATOM     25  S   UNL     1     -18.655 -42.102  23.178  0.00  0.00    -0.038 S 
BRANCH  24  26
ATOM     26  N   UNL     1     -20.872 -40.694  22.378  0.00  0.00    -0.256 NA
ATOM     27  C   UNL     1     -21.558 -39.424  22.401  0.00  0.00    +0.100 C 
ATOM     28  C   UNL     1     -21.117 -38.636  21.241  0.00  0.00    -0.009 C 
ATOM     29  C   UNL     1     -20.385 -39.459  20.446  0.00  0.00    -0.009 C 
ATOM     30  C   UNL     1     -20.316 -40.798  21.044  0.00  0.00    +0.100 C 
ATOM     31  C   UNL     1     -19.845 -38.983  19.281  0.00  0.00    -0.003 C 
ATOM     32  C   UNL     1     -20.036 -37.671  18.907  0.00  0.00    -0.000 C 
ATOM     33  C   UNL     1     -20.777 -36.815  19.701  0.00  0.00    -0.000 C 
ATOM     34  C   UNL     1     -21.303 -37.320  20.857  0.00  0.00    -0.003 C 
ENDBRANCH  24  26
BRANCH  21  35
ATOM     35  O   UNL     1     -16.773 -42.167  25.361  0.00  0.00    -0.337 OA
BRANCH  35  36
ATOM     36  S   UNL     1     -16.283 -41.751  26.951  0.00  0.00    +0.011 S 
ATOM     37  O   UNL     1     -14.813 -41.431  26.872  0.00  0.00    -0.065 OA
ATOM     38  O   UNL     1     -16.460 -42.911  27.886  0.00  0.00    -0.065 OA
ATOM     39  H   UNL     1     -17.025 -40.709  27.413  0.00  0.00    +0.227 HD
ENDBRANCH  35  36
ENDBRANCH  21  35
ENDBRANCH   1  23
TORSDOF 6
