REMARK  Name = =
REMARK  0 active torsions:
REMARK  status: ('A' for Active; 'I' for Inactive)
REMARK                            x       y       z     vdW  Elec       q    Type
REMARK                         _______ _______ _______ _____ _____    ______ ____
ROOT
ATOM      1  N   UNL     1      -4.559  -3.897  30.816  0.00  0.00    -0.306 N 
ATOM      2  C   UNL     1      -5.345  -2.981  31.409  0.00  0.00    +0.076 A 
ATOM      3  C   UNL     1      -4.739  -1.758  31.253  0.00  0.00    +0.076 A 
ATOM      4  C   UNL     1      -5.315  -0.601  31.765  0.00  0.00    +0.019 C 
ATOM      5  C   UNL     1      -6.513  -0.636  32.445  0.00  0.00    +0.002 C 
ATOM      6  C   UNL     1      -7.105  -1.879  32.590  0.00  0.00    +0.002 C 
ATOM      7  C   UNL     1      -6.554  -3.035  32.094  0.00  0.00    +0.019 C 
ATOM      8  N   UNL     1      -3.607  -1.996  30.567  0.00  0.00    -0.306 N 
ATOM      9  C   UNL     1      -3.473  -3.302  30.286  0.00  0.00    +0.325 A 
ATOM     10  O   UNL     1      -2.542  -3.888  29.661  0.00  0.00    -0.247 OA
ATOM     11  H   UNL     1      -4.750  -4.862  30.775  0.00  0.00    +0.170 HD
ATOM     12  H   UNL     1      -2.960  -1.302  30.305  0.00  0.00    +0.170 HD
ENDROOT
TORSDOF 0
