REMARK  Name = =
REMARK  2 active torsions:
REMARK  status: ('A' for Active; 'I' for Inactive)
REMARK    1  A    between atoms: N_1  and  S_11
REMARK    2  A    between atoms: S_11  and  O_13
REMARK                            x       y       z     vdW  Elec       q    Type
REMARK                         _______ _______ _______ _____ _____    ______ ____
ROOT
ATOM      1  N   UNL     1      -4.068  -3.730  31.190  0.00  0.00    -0.165 N 
ATOM      2  C   UNL     1      -4.965  -2.960  31.824  0.00  0.00    +0.102 A 
ATOM      3  C   UNL     1      -4.874  -1.649  31.389  0.00  0.00    +0.078 A 
ATOM      4  C   UNL     1      -5.685  -0.650  31.882  0.00  0.00    +0.019 C 
ATOM      5  C   UNL     1      -6.627  -0.944  32.843  0.00  0.00    +0.002 C 
ATOM      6  C   UNL     1      -6.712  -2.254  33.271  0.00  0.00    +0.002 C 
ATOM      7  C   UNL     1      -5.896  -3.248  32.773  0.00  0.00    +0.021 C 
ATOM      8  N   UNL     1      -3.881  -1.657  30.461  0.00  0.00    -0.304 N 
ATOM      9  C   UNL     1      -3.412  -2.914  30.356  0.00  0.00    +0.347 A 
ATOM     10  O   UNL     1      -2.486  -3.230  29.574  0.00  0.00    -0.245 OA
ATOM     11  H   UNL     1      -3.560  -0.877  29.953  0.00  0.00    +0.171 HD
ENDROOT
BRANCH   1  12
ATOM     12  S   UNL     1      -3.775  -5.446  31.372  0.00  0.00    +0.048 S 
ATOM     13  O   UNL     1      -3.243  -5.777  32.751  0.00  0.00    -0.058 OA
BRANCH  12  14
ATOM     14  O   UNL     1      -2.796  -6.010  30.131  0.00  0.00    -0.260 OA
ATOM     15  H   UNL     1      -3.186  -5.769  29.276  0.00  0.00    +0.244 HD
ENDBRANCH  12  14
ENDBRANCH   1  12
TORSDOF 2
