REMARK  Name = =
REMARK  3 active torsions:
REMARK  status: ('A' for Active; 'I' for Inactive)
REMARK    1  A    between atoms: N_1  and  S_11
REMARK    2  A    between atoms: S_11  and  O_13
REMARK    3  A    between atoms: O_13  and  N_14
REMARK                            x       y       z     vdW  Elec       q    Type
REMARK                         _______ _______ _______ _____ _____    ______ ____
ROOT
ATOM      1  N   UNL     1       3.869  -3.324  22.042  0.00  0.00    -0.195 N 
ATOM      2  C   UNL     1       3.362  -2.284  22.733  0.00  0.00    +0.093 A 
ATOM      3  C   UNL     1       4.096  -1.143  22.413  0.00  0.00    +0.077 A 
ATOM      4  C   UNL     1       3.760   0.070  23.005  0.00  0.00    +0.019 C 
ATOM      5  C   UNL     1       2.699   0.083  23.895  0.00  0.00    +0.002 C 
ATOM      6  C   UNL     1       1.970  -1.037  24.217  0.00  0.00    +0.002 C 
ATOM      7  C   UNL     1       2.301  -2.251  23.628  0.00  0.00    +0.020 C 
ATOM      8  N   UNL     1       5.029  -1.511  21.539  0.00  0.00    -0.305 N 
ATOM      9  C   UNL     1       4.897  -2.827  21.310  0.00  0.00    +0.340 A 
ATOM     10  O   UNL     1       5.601  -3.554  20.536  0.00  0.00    -0.246 OA
ATOM     11  H   UNL     1       5.701  -0.919  21.130  0.00  0.00    +0.170 HD
ENDROOT
BRANCH   1  12
ATOM     12  S   UNL     1       3.341  -4.966  22.062  0.00  0.00    +0.224 S 
ATOM     13  O   UNL     1       1.854  -5.104  22.352  0.00  0.00    -0.107 OA
BRANCH  12  14
ATOM     14  O   UNL     1       3.683  -5.808  20.628  0.00  0.00    -0.166 OA
BRANCH  14  15
ATOM     15  N   UNL     1       2.625  -5.606  19.811  0.00  0.00    -0.145 N 
ATOM     16  C   UNL     1       2.380  -4.361  19.101  0.00  0.00    +0.152 C 
ATOM     17  C   UNL     1       1.134  -4.589  18.335  0.00  0.00    +0.003 C 
ATOM     18  C   UNL     1       0.650  -5.804  18.527  0.00  0.00    +0.057 C 
ATOM     19  C   UNL     1       1.561  -6.471  19.449  0.00  0.00    +0.272 C 
ATOM     20  O   UNL     1       1.453  -7.648  19.886  0.00  0.00    -0.268 OA
ENDBRANCH  14  15
ENDBRANCH  12  14
ENDBRANCH   1  12
TORSDOF 3
