REMARK  Name = =
REMARK  4 active torsions:
REMARK  status: ('A' for Active; 'I' for Inactive)
REMARK    1  A    between atoms: N_1  and  S_16
REMARK    2  A    between atoms: C_6  and  S_11
REMARK    3  A    between atoms: S_16  and  O_18
REMARK    4  A    between atoms: O_18  and  N_19
REMARK                            x       y       z     vdW  Elec       q    Type
REMARK                         _______ _______ _______ _____ _____    ______ ____
ROOT
ATOM      1  N   UNL     1       2.753  -4.193  20.490  0.00  0.00    -0.195 N 
ATOM      2  C   UNL     1       2.091  -5.038  19.680  0.00  0.00    +0.094 A 
ATOM      3  C   UNL     1       2.971  -5.532  18.707  0.00  0.00    +0.077 A 
ATOM      4  C   UNL     1       2.502  -6.435  17.762  0.00  0.00    +0.019 C 
ATOM      5  C   UNL     1       1.173  -6.818  17.812  0.00  0.00    +0.006 C 
ATOM      6  C   UNL     1       0.292  -6.352  18.752  0.00  0.00    +0.009 C 
ATOM      7  C   UNL     1       0.775  -5.453  19.687  0.00  0.00    +0.024 C 
ATOM      8  N   UNL     1       4.154  -4.961  18.968  0.00  0.00    -0.305 N 
ATOM      9  C   UNL     1       4.010  -4.167  20.031  0.00  0.00    +0.340 A 
ATOM     10  O   UNL     1       4.924  -3.469  20.559  0.00  0.00    -0.246 OA
ATOM     11  H   UNL     1       4.987  -5.103  18.463  0.00  0.00    +0.170 HD
ENDROOT
BRANCH   6  12
ATOM     12  S   UNL     1      -1.336  -6.842  18.789  0.00  0.00    -0.192 S 
ATOM     13  C   UNL     1      -2.533  -5.801  17.691  0.00  0.00    +0.059 C 
ATOM     14  C   UNL     1      -3.753  -6.328  18.385  0.00  0.00    +0.080 C 
ATOM     15  N   UNL     1      -3.609  -6.138  19.780  0.00  0.00    -0.289 NA
ATOM     16  C   UNL     1      -2.332  -6.526  20.248  0.00  0.00    +0.111 C 
ATOM     17  H   UNL     1      -1.054  -8.141  18.502  0.00  0.00    +0.089 HD
ATOM     18  H   UNL     1      -4.317  -6.693  20.261  0.00  0.00    +0.124 HD
ENDBRANCH   6  12
BRANCH   1  19
ATOM     19  S   UNL     1       2.080  -3.315  21.868  0.00  0.00    +0.224 S 
ATOM     20  O   UNL     1       2.005  -4.168  23.107  0.00  0.00    -0.107 OA
BRANCH  19  21
ATOM     21  O   UNL     1       2.961  -1.893  22.081  0.00  0.00    -0.166 OA
BRANCH  21  22
ATOM     22  N   UNL     1       2.926  -1.575  23.402  0.00  0.00    -0.145 N 
ATOM     23  C   UNL     1       1.921  -0.882  24.153  0.00  0.00    +0.152 C 
ATOM     24  C   UNL     1       2.428  -0.833  25.520  0.00  0.00    +0.003 C 
ATOM     25  C   UNL     1       3.602  -1.428  25.580  0.00  0.00    +0.057 C 
ATOM     26  C   UNL     1       3.985  -1.925  24.270  0.00  0.00    +0.272 C 
ATOM     27  O   UNL     1       5.043  -2.541  23.971  0.00  0.00    -0.268 OA
ENDBRANCH  21  22
ENDBRANCH  19  21
ENDBRANCH   1  19
TORSDOF 4
