REMARK  Name = =
REMARK  5 active torsions:
REMARK  status: ('A' for Active; 'I' for Inactive)
REMARK    1  A    between atoms: N_1  and  S_21
REMARK    2  A    between atoms: C_6  and  S_11
REMARK    3  A    between atoms: C_7  and  C_16
REMARK    4  A    between atoms: S_21  and  O_23
REMARK    5  A    between atoms: O_23  and  N_24
REMARK                            x       y       z     vdW  Elec       q    Type
REMARK                         _______ _______ _______ _____ _____    ______ ____
ROOT
ATOM      1  N   UNL     1       1.777  -4.929  20.068  0.00  0.00    -0.195 N 
ATOM      2  C   UNL     1       1.571  -3.939  20.941  0.00  0.00    +0.097 A 
ATOM      3  C   UNL     1       0.442  -3.279  20.511  0.00  0.00    +0.077 A 
ATOM      4  C   UNL     1      -0.003  -2.195  21.241  0.00  0.00    +0.019 C 
ATOM      5  C   UNL     1       0.677  -1.791  22.373  0.00  0.00    +0.006 C 
ATOM      6  C   UNL     1       1.801  -2.450  22.798  0.00  0.00    +0.012 C 
ATOM      7  C   UNL     1       2.243  -3.532  22.069  0.00  0.00    +0.060 C 
ATOM      8  N   UNL     1      -0.023  -3.883  19.376  0.00  0.00    -0.305 N 
ATOM      9  C   UNL     1       0.802  -4.898  19.107  0.00  0.00    +0.340 A 
ATOM     10  O   UNL     1       0.740  -5.716  18.149  0.00  0.00    -0.246 OA
ATOM     11  H   UNL     1      -0.816  -3.619  18.856  0.00  0.00    +0.170 HD
ENDROOT
BRANCH   6  12
ATOM     12  S   UNL     1       2.675  -1.934  24.288  0.00  0.00    -0.192 S 
ATOM     13  C   UNL     1       2.370  -0.260  24.815  0.00  0.00    +0.059 C 
ATOM     14  C   UNL     1       1.915  -0.460  26.238  0.00  0.00    +0.080 C 
ATOM     15  N   UNL     1       1.266  -1.715  26.327  0.00  0.00    -0.289 NA
ATOM     16  C   UNL     1       2.116  -2.744  25.824  0.00  0.00    +0.111 C 
ATOM     17  H   UNL     1       3.942  -2.210  23.878  0.00  0.00    +0.089 HD
ATOM     18  H   UNL     1       0.406  -1.690  25.779  0.00  0.00    +0.124 HD
ENDBRANCH   6  12
BRANCH   7  19
ATOM     19  C   UNL     1       3.451  -4.204  22.537  0.00  0.00    +0.188 C 
ATOM     20  N   UNL     1       3.623  -5.249  23.356  0.00  0.00    -0.217 NA
ATOM     21  C   UNL     1       4.931  -5.525  23.507  0.00  0.00    +0.304 C 
ATOM     22  O   UNL     1       5.556  -4.639  22.772  0.00  0.00    -0.208 OA
ATOM     23  N   UNL     1       4.717  -3.838  22.181  0.00  0.00    -0.110 NA
ENDBRANCH   7  19
BRANCH   1  24
ATOM     24  S   UNL     1       3.095  -6.072  20.163  0.00  0.00    +0.224 S 
ATOM     25  O   UNL     1       2.606  -7.379  20.747  0.00  0.00    -0.107 OA
BRANCH  24  26
ATOM     26  O   UNL     1       3.674  -6.326  18.603  0.00  0.00    -0.166 OA
BRANCH  26  27
ATOM     27  N   UNL     1       3.388  -7.540  18.075  0.00  0.00    -0.145 N 
ATOM     28  C   UNL     1       2.568  -8.600  18.554  0.00  0.00    +0.152 C 
ATOM     29  C   UNL     1       2.658  -9.668  17.544  0.00  0.00    +0.003 C 
ATOM     30  C   UNL     1       3.438  -9.287  16.573  0.00  0.00    +0.057 C 
ATOM     31  C   UNL     1       3.945  -7.960  16.819  0.00  0.00    +0.272 C 
ATOM     32  O   UNL     1       4.723  -7.289  16.088  0.00  0.00    -0.268 OA
ENDBRANCH  26  27
ENDBRANCH  24  26
ENDBRANCH   1  24
TORSDOF 5
