REMARK  Name = =
REMARK  7 active torsions:
REMARK  status: ('A' for Active; 'I' for Inactive)
REMARK    1  A    between atoms: N_1  and  S_33
REMARK    2  A    between atoms: C_5  and  C_11
REMARK    3  A    between atoms: C_6  and  S_23
REMARK    4  A    between atoms: C_7  and  C_28
REMARK    5  A    between atoms: C_18  and  C_21
REMARK    6  A    between atoms: S_33  and  O_35
REMARK    7  A    between atoms: O_35  and  N_36
REMARK                            x       y       z     vdW  Elec       q    Type
REMARK                         _______ _______ _______ _____ _____    ______ ____
ROOT
ATOM      1  N   UNL     1       1.092  -4.091  18.809  0.00  0.00    -0.195 N 
ATOM      2  C   UNL     1       1.548  -3.696  19.998  0.00  0.00    +0.097 A 
ATOM      3  C   UNL     1       1.298  -2.327  20.098  0.00  0.00    +0.077 A 
ATOM      4  C   UNL     1       1.630  -1.584  21.212  0.00  0.00    +0.015 C 
ATOM      5  C   UNL     1       2.251  -2.158  22.331  0.00  0.00    -0.012 C 
ATOM      6  C   UNL     1       2.529  -3.542  22.250  0.00  0.00    +0.008 C 
ATOM      7  C   UNL     1       2.173  -4.256  21.103  0.00  0.00    +0.060 C 
ATOM      8  N   UNL     1       0.711  -1.940  18.945  0.00  0.00    -0.305 N 
ATOM      9  C   UNL     1       0.595  -3.029  18.167  0.00  0.00    +0.340 A 
ATOM     10  O   UNL     1       0.084  -2.949  17.031  0.00  0.00    -0.246 OA
ATOM     11  H   UNL     1       0.421  -1.027  18.717  0.00  0.00    +0.170 HD
ENDROOT
BRANCH   5  12
ATOM     12  C   UNL     1       2.343  -1.300  23.506  0.00  0.00    +0.052 C 
ATOM     13  C   UNL     1       2.926   0.089  23.066  0.00  0.00    +0.056 C 
ATOM     14  C   UNL     1       4.389   0.163  23.171  0.00  0.00    +0.206 C 
ATOM     15  O   UNL     1       4.991  -1.092  23.655  0.00  0.00    -0.476 OA
ATOM     16  C   UNL     1       4.357  -1.522  24.856  0.00  0.00    +0.135 C 
ATOM     17  C   UNL     1       2.936  -1.630  24.780  0.00  0.00    +0.015 C 
ATOM     18  C   UNL     1       2.359  -1.999  25.952  0.00  0.00    -0.004 C 
ATOM     19  C   UNL     1       2.952  -2.274  27.160  0.00  0.00    -0.003 C 
ATOM     20  C   UNL     1       4.367  -2.175  27.191  0.00  0.00    +0.000 C 
ATOM     21  C   UNL     1       4.978  -1.801  26.017  0.00  0.00    +0.036 C 
BRANCH  19  22
ATOM     22  C   UNL     1       2.232  -2.419  28.338  0.00  0.00    +0.136 C 
ATOM     23  N   UNL     1       1.591  -2.562  29.408  0.00  0.00    -0.126 NA
ENDBRANCH  19  22
ENDBRANCH   5  12
BRANCH   6  24
ATOM     24  S   UNL     1       3.380  -4.315  23.586  0.00  0.00    -0.192 S 
ATOM     25  C   UNL     1       2.403  -5.313  24.741  0.00  0.00    +0.059 C 
ATOM     26  C   UNL     1       2.829  -6.670  24.315  0.00  0.00    +0.080 C 
ATOM     27  N   UNL     1       4.172  -6.730  23.940  0.00  0.00    -0.289 NA
ATOM     28  C   UNL     1       4.650  -5.518  23.385  0.00  0.00    +0.111 C 
ATOM     29  H   UNL     1       3.844  -3.089  23.948  0.00  0.00    +0.089 HD
ATOM     30  H   UNL     1       4.282  -7.470  23.247  0.00  0.00    +0.124 HD
ENDBRANCH   6  24
BRANCH   7  31
ATOM     31  C   UNL     1       2.533  -5.653  20.958  0.00  0.00    +0.188 C 
ATOM     32  N   UNL     1       1.903  -6.722  21.336  0.00  0.00    -0.217 NA
ATOM     33  C   UNL     1       2.552  -7.840  21.011  0.00  0.00    +0.304 C 
ATOM     34  O   UNL     1       3.623  -7.415  20.410  0.00  0.00    -0.208 OA
ATOM     35  N   UNL     1       3.707  -6.118  20.326  0.00  0.00    -0.110 NA
ENDBRANCH   7  31
BRANCH   1  36
ATOM     36  S   UNL     1       0.961  -5.740  18.184  0.00  0.00    +0.224 S 
ATOM     37  O   UNL     1      -0.190  -6.525  18.801  0.00  0.00    -0.107 OA
BRANCH  36  38
ATOM     38  O   UNL     1       0.567  -5.592  16.484  0.00  0.00    -0.166 OA
BRANCH  38  39
ATOM     39  N   UNL     1      -0.497  -6.344  16.160  0.00  0.00    -0.145 N 
ATOM     40  C   UNL     1      -1.849  -5.796  15.953  0.00  0.00    +0.152 C 
ATOM     41  C   UNL     1      -2.676  -6.966  15.658  0.00  0.00    +0.003 C 
ATOM     42  C   UNL     1      -1.976  -8.061  15.652  0.00  0.00    +0.057 C 
ATOM     43  C   UNL     1      -0.586  -7.723  15.961  0.00  0.00    +0.272 C 
ATOM     44  O   UNL     1       0.278  -8.650  16.003  0.00  0.00    -0.268 OA
ENDBRANCH  38  39
ENDBRANCH  36  38
ENDBRANCH   1  36
TORSDOF 7
