MODEL 1
REMARK VINA RESULT:    -9.259      0.000      0.000
REMARK INTER + INTRA:         -15.740
REMARK INTER:                 -14.672
REMARK INTRA:                  -1.068
REMARK UNBOUND:                -1.068
REMARK  Name = =
REMARK  12 active torsions:
REMARK  status: ('A' for Active; 'I' for Inactive)
REMARK    1  A    between atoms: O_1  and  C_3
REMARK    2  A    between atoms: O_1  and  S_16
REMARK    3  A    between atoms: C_2  and  C_9
REMARK    4  A    between atoms: C_4  and  O_15
REMARK    5  A    between atoms: N_8  and  N_11
REMARK    6  A    between atoms: N_11  and  C_13
REMARK    7  A    between atoms: C_13  and  N_14
REMARK    8  A    between atoms: S_16  and  P_17
REMARK    9  A    between atoms: P_17  and  O_18
REMARK   10  A    between atoms: P_17  and  O_19
REMARK   11  A    between atoms: P_17  and  O_20
REMARK   12  A    between atoms: O_20  and  N_21
REMARK                            x       y       z     vdW  Elec       q    Type
REMARK                         _______ _______ _______ _____ _____    ______ ____
ROOT
ATOM      1  O   UNL     1      51.064 158.724  29.212  0.00  0.00    -0.425 OA
ENDROOT
BRANCH   1   3
ATOM      2  C   UNL     1      50.753 160.162  31.104  0.00  0.00    +0.093 C 
ATOM      3  C   UNL     1      50.363 159.128  30.303  0.00  0.00    +0.192 C 
ATOM      4  C   UNL     1      49.185 158.444  30.624  0.00  0.00    +0.169 C 
ATOM      5  C   UNL     1      48.441 158.801  31.718  0.00  0.00    +0.040 C 
ATOM      6  C   UNL     1      48.821 159.839  32.536  0.00  0.00    +0.003 C 
ATOM      7  C   UNL     1      49.961 160.505  32.227  0.00  0.00    +0.008 C 
BRANCH   2   9
ATOM      8  N   UNL     1      52.726 161.492  31.906  0.00  0.00    -0.231 N 
ATOM      9  C   UNL     1      51.881 161.030  30.886  0.00  0.00    +0.264 C 
ATOM     10  O   UNL     1      52.163 161.434  29.701  0.00  0.00    -0.269 OA
ATOM     11  H   UNL     1      52.571 161.208  32.835  0.00  0.00    +0.173 HD
BRANCH   8  12
ATOM     12  N   UNL     1      53.807 162.369  31.605  0.00  0.00    -0.246 N 
ATOM     13  H   UNL     1      53.653 163.335  31.495  0.00  0.00    +0.172 HD
BRANCH  12  15
ATOM     14  S   UNL     1      56.229 162.041  32.618  0.00  0.00    -0.018 S 
ATOM     15  C   UNL     1      55.092 161.834  31.467  0.00  0.00    +0.144 C 
BRANCH  15  16
ATOM     16  N   UNL     1      55.464 161.084  30.318  0.00  0.00    -0.340 N 
ATOM     17  H   UNL     1      55.910 161.531  29.562  0.00  0.00    +0.144 HD
ATOM     18  H   UNL     1      55.277 160.118  30.279  0.00  0.00    +0.144 HD
ENDBRANCH  15  16
ENDBRANCH  12  15
ENDBRANCH   8  12
ENDBRANCH   2   9
BRANCH   4  19
ATOM     19  O   UNL     1      48.757 157.376  29.815  0.00  0.00    -0.503 OA
ATOM     20  H   UNL     1      48.797 157.450  28.882  0.00  0.00    +0.292 HD
ENDBRANCH   4  19
ENDBRANCH   1   3
BRANCH   1  21
ATOM     21  S   UNL     1      52.455 157.703  29.219  0.00  0.00    +0.055 S 
ATOM     22  H   UNL     1      53.012 157.741  30.459  0.00  0.00    +0.145 HD
BRANCH  21  23
ATOM     23  P   UNL     1      52.060 155.899  28.791  0.00  0.00    +0.337 P 
BRANCH  23  24
ATOM     24  O   UNL     1      50.711 155.420  29.714  0.00  0.00    -0.325 OA
ATOM     25  H   UNL     1      50.207 156.204  29.980  0.00  0.00    +0.220 HD
ENDBRANCH  23  24
BRANCH  23  26
ATOM     26  O   UNL     1      53.414 154.960  29.177  0.00  0.00    -0.325 OA
ATOM     27  H   UNL     1      54.178 155.269  28.664  0.00  0.00    +0.220 HD
ENDBRANCH  23  26
BRANCH  23  28
ATOM     28  O   UNL     1      51.651 155.779  27.175  0.00  0.00    -0.175 OA
BRANCH  28  29
ATOM     29  N   UNL     1      52.131 154.658  26.603  0.00  0.00    -0.029 N 
ATOM     30  S   UNL     1      53.132 154.684  25.187  0.00  0.00    +0.101 S 
ATOM     31  O   UNL     1      52.335 155.143  23.997  0.00  0.00    -0.148 OA
ATOM     32  O   UNL     1      54.383 155.453  25.372  0.00  0.00    -0.148 OA
ATOM     33  C   UNL     1      53.400 152.947  25.094  0.00  0.00    +0.132 C 
ATOM     34  C   UNL     1      52.696 152.387  26.104  0.00  0.00    +0.076 C 
ATOM     35  C   UNL     1      51.991 153.310  26.942  0.00  0.00    +0.293 C 
ATOM     36  O   UNL     1      51.267 152.977  27.949  0.00  0.00    -0.266 OA
ATOM     37  C   UNL     1      52.756 150.997  26.209  0.00  0.00    +0.006 C 
ATOM     38  C   UNL     1      53.496 150.242  25.331  0.00  0.00    +0.000 C 
ATOM     39  C   UNL     1      54.212 150.817  24.307  0.00  0.00    +0.001 C 
ATOM     40  C   UNL     1      54.142 152.191  24.214  0.00  0.00    +0.020 C 
ENDBRANCH  28  29
ENDBRANCH  23  28
ENDBRANCH  21  23
ENDBRANCH   1  21
TORSDOF 12
ENDMDL
