REMARK  Name = =
REMARK  12 active torsions:
REMARK  status: ('A' for Active; 'I' for Inactive)
REMARK    1  A    between atoms: O_1  and  C_3
REMARK    2  A    between atoms: O_1  and  S_16
REMARK    3  A    between atoms: C_2  and  C_9
REMARK    4  A    between atoms: C_4  and  O_15
REMARK    5  A    between atoms: N_8  and  N_11
REMARK    6  A    between atoms: N_11  and  C_13
REMARK    7  A    between atoms: C_13  and  N_14
REMARK    8  A    between atoms: S_16  and  P_17
REMARK    9  A    between atoms: P_17  and  O_18
REMARK   10  A    between atoms: P_17  and  O_19
REMARK   11  A    between atoms: P_17  and  O_20
REMARK   12  A    between atoms: O_20  and  N_21
REMARK                            x       y       z     vdW  Elec       q    Type
REMARK                         _______ _______ _______ _____ _____    ______ ____
ROOT
ATOM      1  O   UNL     1      51.940 155.331  26.249  0.00  0.00    -0.425 OA
ENDROOT
BRANCH   1   3
ATOM      2  C   UNL     1      53.847 154.017  25.634  0.00  0.00    +0.093 C 
ATOM      3  C   UNL     1      53.129 155.177  25.611  0.00  0.00    +0.192 C 
ATOM      4  C   UNL     1      53.645 156.266  24.900  0.00  0.00    +0.169 C 
ATOM      5  C   UNL     1      54.845 156.172  24.244  0.00  0.00    +0.040 C 
ATOM      6  C   UNL     1      55.581 155.011  24.259  0.00  0.00    +0.003 C 
ATOM      7  C   UNL     1      55.083 153.953  24.946  0.00  0.00    +0.008 C 
BRANCH   2   9
ATOM      8  N   UNL     1      52.102 152.383  26.404  0.00  0.00    -0.231 N 
ATOM      9  C   UNL     1      53.439 152.774  26.237  0.00  0.00    +0.264 C 
ATOM     10  O   UNL     1      54.321 151.946  26.666  0.00  0.00    -0.269 OA
ATOM     11  H   UNL     1      51.378 152.968  26.084  0.00  0.00    +0.173 HD
BRANCH   8  12
ATOM     12  N   UNL     1      51.786 151.145  27.033  0.00  0.00    -0.246 N 
ATOM     13  H   UNL     1      51.831 150.301  26.528  0.00  0.00    +0.172 HD
BRANCH  12  15
ATOM     14  S   UNL     1      50.895 149.792  29.124  0.00  0.00    -0.018 S 
ATOM     15  C   UNL     1      51.410 151.149  28.380  0.00  0.00    +0.144 C 
BRANCH  15  16
ATOM     16  N   UNL     1      51.461 152.335  29.161  0.00  0.00    -0.340 N 
ATOM     17  H   UNL     1      51.765 153.179  28.755  0.00  0.00    +0.144 HD
ATOM     18  H   UNL     1      51.192 152.313  30.108  0.00  0.00    +0.144 HD
ENDBRANCH  15  16
ENDBRANCH  12  15
ENDBRANCH   8  12
ENDBRANCH   2   9
BRANCH   4  19
ATOM     19  O   UNL     1      52.926 157.474  24.856  0.00  0.00    -0.503 OA
ATOM     20  H   UNL     1      52.105 157.547  25.302  0.00  0.00    +0.292 HD
ENDBRANCH   4  19
ENDBRANCH   1   3
BRANCH   1  21
ATOM     21  S   UNL     1      51.724 155.705  27.919  0.00  0.00    +0.055 S 
ATOM     22  H   UNL     1      52.221 154.678  28.659  0.00  0.00    +0.145 HD
BRANCH  21  23
ATOM     23  P   UNL     1      52.595 157.304  28.447  0.00  0.00    +0.337 P 
BRANCH  23  24
ATOM     24  O   UNL     1      53.925 157.548  27.411  0.00  0.00    -0.325 OA
ATOM     25  H   UNL     1      54.544 156.807  27.500  0.00  0.00    +0.220 HD
ENDBRANCH  23  24
BRANCH  23  26
ATOM     26  O   UNL     1      53.108 157.118  30.048  0.00  0.00    -0.325 OA
ATOM     27  H   UNL     1      53.708 156.358  30.109  0.00  0.00    +0.220 HD
ENDBRANCH  23  26
BRANCH  23  28
ATOM     28  O   UNL     1      51.554 158.599  28.266  0.00  0.00    -0.175 OA
BRANCH  28  29
ATOM     29  N   UNL     1      51.066 159.037  29.443  0.00  0.00    -0.029 N 
ATOM     30  S   UNL     1      51.662 160.462  30.232  0.00  0.00    +0.101 S 
ATOM     31  O   UNL     1      53.069 160.237  30.715  0.00  0.00    -0.148 OA
ATOM     32  O   UNL     1      51.525 161.684  29.408  0.00  0.00    -0.148 OA
ATOM     33  C   UNL     1      50.548 160.422  31.594  0.00  0.00    +0.132 C 
ATOM     34  C   UNL     1      49.785 159.316  31.445  0.00  0.00    +0.076 C 
ATOM     35  C   UNL     1      50.056 158.541  30.270  0.00  0.00    +0.293 C 
ATOM     36  O   UNL     1      49.442 157.459  29.951  0.00  0.00    -0.266 OA
ATOM     37  C   UNL     1      48.831 159.079  32.434  0.00  0.00    +0.006 C 
ATOM     38  C   UNL     1      48.677 159.931  33.502  0.00  0.00    +0.000 C 
ATOM     39  C   UNL     1      49.456 161.056  33.648  0.00  0.00    +0.001 C 
ATOM     40  C   UNL     1      50.395 161.276  32.663  0.00  0.00    +0.020 C 
ENDBRANCH  28  29
ENDBRANCH  23  28
ENDBRANCH  21  23
ENDBRANCH   1  21
TORSDOF 12
