MODEL 1
REMARK VINA RESULT:    -6.851      0.000      0.000
REMARK INTER + INTRA:          -8.422
REMARK INTER:                  -9.255
REMARK INTRA:                   0.833
REMARK UNBOUND:                 0.833
REMARK  Name = =
REMARK  7 active torsions:
REMARK  status: ('A' for Active; 'I' for Inactive)
REMARK    1  A    between atoms: C_1  and  C_15
REMARK    2  A    between atoms: C_1  and  C_32
REMARK    3  A    between atoms: C_7  and  S_27
REMARK    4  A    between atoms: C_15  and  C_20
REMARK    5  A    between atoms: C_32  and  S_34
REMARK    6  A    between atoms: C_32  and  O_38
REMARK    7  A    between atoms: S_34  and  N_37
REMARK                            x       y       z     vdW  Elec       q    Type
REMARK                         _______ _______ _______ _____ _____    ______ ____
ROOT
ATOM      1  C   UNL     1       4.117  -2.900  24.813  0.00  0.00    +0.203 C 
ATOM      2  O   UNL     1       4.111  -1.700  23.944  0.00  0.00    -0.449 OA
ATOM      3  C   UNL     1       3.075  -0.808  23.918  0.00  0.00    +0.317 C 
ATOM      4  O   UNL     1       3.151   0.436  24.132  0.00  0.00    -0.250 OA
ATOM      5  C   UNL     1       1.719  -1.314  23.610  0.00  0.00    +0.111 C 
ATOM      6  C   UNL     1       1.623  -2.659  24.345  0.00  0.00    +0.024 C 
ATOM      7  C   UNL     1       2.714  -2.789  25.389  0.00  0.00    +0.073 C 
ENDROOT
BRANCH   1  15
ATOM      8  C   UNL     1       2.592  -5.738  23.068  0.00  0.00    +0.160 C 
ATOM      9  N   UNL     1       1.736  -4.930  22.449  0.00  0.00    -0.132 NA
ATOM     10  N   UNL     1       0.820  -5.348  21.586  0.00  0.00    -0.145 NA
ATOM     11  C   UNL     1       0.688  -6.647  21.267  0.00  0.00    +0.122 C 
ATOM     12  C   UNL     1       1.528  -7.560  21.857  0.00  0.00    +0.025 C 
ATOM     13  C   UNL     1       2.463  -7.080  22.746  0.00  0.00    +0.038 C 
ATOM     14  N   UNL     1       3.541  -5.198  23.967  0.00  0.00    -0.225 N 
ATOM     15  C   UNL     1       4.406  -4.003  23.892  0.00  0.00    +0.123 C 
ATOM     16  C   UNL     1       5.604  -4.888  24.516  0.00  0.00    +0.113 C 
ATOM     17  N   UNL     1       5.118  -5.569  25.613  0.00  0.00    -0.287 N 
ATOM     18  C   UNL     1       3.779  -5.920  25.174  0.00  0.00    +0.309 C 
ATOM     19  O   UNL     1       3.032  -6.725  25.802  0.00  0.00    -0.252 OA
ATOM     20  H   UNL     1       5.562  -5.764  26.469  0.00  0.00    +0.151 HD
BRANCH  15  21
ATOM     21  C   UNL     1       4.948  -3.818  22.543  0.00  0.00    +0.022 C 
ATOM     22  C   UNL     1       4.377  -3.329  21.329  0.00  0.00    +0.002 C 
ATOM     23  C   UNL     1       5.656  -3.135  20.452  0.00  0.00    +0.000 C 
ATOM     24  C   UNL     1       6.832  -3.651  21.313  0.00  0.00    +0.000 C 
ATOM     25  C   UNL     1       5.946  -4.785  21.956  0.00  0.00    +0.002 C 
ATOM     26  C   UNL     1       5.609  -5.428  20.650  0.00  0.00    +0.000 C 
ATOM     27  C   UNL     1       5.712  -4.375  19.535  0.00  0.00    +0.000 C 
ENDBRANCH  15  21
ENDBRANCH   1  15
BRANCH   7  28
ATOM     28  S   UNL     1       2.239  -3.552  26.742  0.00  0.00    -0.209 S 
ATOM     29  C   UNL     1       1.689  -2.178  28.129  0.00  0.00    +0.055 C 
ATOM     30  C   UNL     1       1.463  -3.221  29.161  0.00  0.00    +0.079 C 
ATOM     31  N   UNL     1       0.896  -4.398  28.656  0.00  0.00    -0.289 NA
ATOM     32  C   UNL     1       0.761  -4.396  27.224  0.00  0.00    +0.108 C 
ATOM     33  H   UNL     1       3.281  -4.411  26.585  0.00  0.00    +0.085 HD
ATOM     34  H   UNL     1      -0.029  -4.514  29.068  0.00  0.00    +0.124 HD
ENDBRANCH   7  28
BRANCH   1  35
ATOM     35  C   UNL     1       5.060  -2.321  25.814  0.00  0.00    +0.249 C 
ATOM     36  C   UNL     1       5.276  -2.909  27.147  0.00  0.00    +0.060 C 
BRANCH  35  37
ATOM     37  S   UNL     1       6.536  -1.483  25.295  0.00  0.00    +0.061 S 
ATOM     38  O   UNL     1       7.576  -2.317  24.634  0.00  0.00    -0.155 OA
ATOM     39  O   UNL     1       6.342  -0.159  24.693  0.00  0.00    -0.155 OA
BRANCH  37  40
ATOM     40  N   UNL     1       7.477  -1.090  26.785  0.00  0.00    -0.205 NA
ATOM     41  H   UNL     1       8.337  -0.607  26.526  0.00  0.00    +0.144 HD
ATOM     42  H   UNL     1       7.707  -1.951  27.279  0.00  0.00    +0.144 HD
ENDBRANCH  37  40
ENDBRANCH  35  37
BRANCH  35  43
ATOM     43  O   UNL     1       4.322  -1.095  26.183  0.00  0.00    -0.364 OA
ATOM     44  H   UNL     1       3.451  -1.102  25.756  0.00  0.00    +0.212 HD
ENDBRANCH  35  43
ENDBRANCH   1  35
TORSDOF 7
ENDMDL
