REMARK  Name = =
REMARK  12 active torsions:
REMARK  status: ('A' for Active; 'I' for Inactive)
REMARK    1  A    between atoms: C_4  and  O_11
REMARK    2  A    between atoms: C_6  and  O_28
REMARK    3  A    between atoms: C_7  and  C_12
REMARK    4  A    between atoms: C_12  and  C_14
REMARK    5  A    between atoms: N_16  and  N_17
REMARK    6  A    between atoms: N_17  and  O_23
REMARK    7  A    between atoms: C_18  and  C_20
REMARK    8  A    between atoms: O_23  and  S_24
REMARK    9  A    between atoms: O_28  and  P_29
REMARK   10  A    between atoms: P_29  and  C_31
REMARK   11  A    between atoms: P_29  and  O_34
REMARK   12  A    between atoms: C_31  and  O_33
REMARK                            x       y       z     vdW  Elec       q    Type
REMARK                         _______ _______ _______ _____ _____    ______ ____
ROOT
ATOM      1  C   UNL     1     -17.448 -41.591  25.003  0.00  0.00    +0.169 C 
ATOM      2  C   UNL     1     -17.278 -41.637  26.359  0.00  0.00    +0.025 C 
ATOM      3  C   UNL     1     -18.388 -41.418  27.168  0.00  0.00    +0.036 C 
ATOM      4  C   UNL     1     -19.640 -41.157  26.674  0.00  0.00    +0.137 C 
ATOM      5  C   UNL     1     -19.817 -41.110  25.300  0.00  0.00    +0.077 C 
ATOM      6  C   UNL     1     -18.732 -41.325  24.483  0.00  0.00    +0.184 C 
ATOM      7  C   UNL     1     -15.943 -41.896  26.955  0.00  0.00    +0.096 C 
ATOM      8  C   UNL     1     -15.162 -42.744  25.951  0.00  0.00    +0.060 C 
ATOM      9  C   UNL     1     -15.075 -42.064  24.607  0.00  0.00    +0.206 C 
ATOM     10  O   UNL     1     -16.395 -41.797  24.108  0.00  0.00    -0.473 OA
ENDROOT
BRANCH   4  11
ATOM     11  O   UNL     1     -20.734 -40.941  27.510  0.00  0.00    -0.505 OA
ATOM     12  H   UNL     1     -20.626 -40.970  28.440  0.00  0.00    +0.292 HD
ENDBRANCH   4  11
BRANCH   7  13
ATOM     13  C   UNL     1     -16.091 -42.744  28.200  0.00  0.00    +0.231 C 
ATOM     14  O   UNL     1     -17.226 -42.982  28.626  0.00  0.00    -0.286 OA
BRANCH  13  15
ATOM     15  C   UNL     1     -14.844 -43.235  28.838  0.00  0.00    +0.299 C 
ATOM     16  O   UNL     1     -13.726 -42.971  28.327  0.00  0.00    -0.265 OA
ATOM     17  N   UNL     1     -14.880 -43.991  30.024  0.00  0.00    -0.199 N 
ATOM     18  H   UNL     1     -15.754 -44.221  30.415  0.00  0.00    +0.176 HD
BRANCH  17  19
ATOM     19  N   UNL     1     -13.716 -44.428  30.667  0.00  0.00    -0.056 N 
ATOM     20  C   UNL     1     -13.305 -43.720  31.832  0.00  0.00    +0.343 C 
ATOM     21  O   UNL     1     -12.279 -44.103  32.429  0.00  0.00    -0.261 OA
BRANCH  20  22
ATOM     22  C   UNL     1     -14.040 -42.591  32.316  0.00  0.00    +0.300 C 
ATOM     23  O   UNL     1     -15.197 -42.375  31.856  0.00  0.00    -0.265 OA
ATOM     24  N   UNL     1     -13.503 -41.715  33.296  0.00  0.00    -0.321 N 
ATOM     25  H   UNL     1     -12.602 -41.876  33.660  0.00  0.00    +0.145 HD
ATOM     26  H   UNL     1     -14.031 -40.947  33.612  0.00  0.00    +0.145 HD
ENDBRANCH  20  22
BRANCH  19  27
ATOM     27  O   UNL     1     -13.038 -45.462  30.216  0.00  0.00    -0.094 OA
BRANCH  27  28
ATOM     28  S   UNL     1     -11.478 -45.136  29.736  0.00  0.00    +0.163 S 
ATOM     29  O   UNL     1     -11.251 -45.889  28.434  0.00  0.00    -0.039 OA
ATOM     30  O   UNL     1     -10.508 -45.699  30.758  0.00  0.00    -0.039 OA
ATOM     31  F   UNL     1     -11.183 -43.507  29.534  0.00  0.00    -0.054 F 
ENDBRANCH  27  28
ENDBRANCH  19  27
ENDBRANCH  17  19
ENDBRANCH  13  15
ENDBRANCH   7  13
BRANCH   6  32
ATOM     32  O   UNL     1     -18.827 -41.295  23.093  0.00  0.00    -0.412 OA
BRANCH  32  33
ATOM     33  P   UNL     1     -20.343 -41.117  22.319  0.00  0.00    +0.487 P 
ATOM     34  O   UNL     1     -21.299 -42.188  22.816  0.00  0.00    -0.233 OA
BRANCH  33  35
ATOM     35  C   UNL     1     -20.173 -41.217  20.541  0.00  0.00    +0.431 C 
ATOM     36  O   UNL     1     -19.331 -40.511  19.934  0.00  0.00    -0.235 OA
BRANCH  35  37
ATOM     37  O   UNL     1     -20.963 -42.072  19.779  0.00  0.00    -0.471 OA
ATOM     38  H   UNL     1     -21.603 -42.615  20.196  0.00  0.00    +0.296 HD
ENDBRANCH  35  37
ENDBRANCH  33  35
BRANCH  33  39
ATOM     39  O   UNL     1     -20.973 -39.622  22.712  0.00  0.00    -0.307 OA
ATOM     40  H   UNL     1     -21.070 -39.555  23.675  0.00  0.00    +0.221 HD
ENDBRANCH  33  39
ENDBRANCH  32  33
ENDBRANCH   6  32
TORSDOF 12
