REMARK  Name = =
REMARK  0 active torsions:
REMARK  status: ('A' for Active; 'I' for Inactive)
REMARK                            x       y       z     vdW  Elec       q    Type
REMARK                         _______ _______ _______ _____ _____    ______ ____
ROOT
ATOM      1  C   UNL     1      47.742 159.024  27.654  0.00  0.00    +0.002 C 
ATOM      2  C   UNL     1      47.807 158.730  28.998  0.00  0.00    +0.019 C 
ATOM      3  C   UNL     1      48.391 159.590  29.924  0.00  0.00    +0.081 C 
ATOM      4  N   UNL     1      48.450 159.296  31.239  0.00  0.00    -0.244 NA
ATOM      5  C   UNL     1      49.017 160.128  32.146  0.00  0.00    +0.099 C 
ATOM      6  C   UNL     1      49.567 161.333  31.750  0.00  0.00    +0.099 C 
ATOM      7  N   UNL     1      50.127 162.148  32.661  0.00  0.00    -0.242 NA
ATOM      8  C   UNL     1      50.192 161.867  33.976  0.00  0.00    +0.099 C 
ATOM      9  C   UNL     1      49.656 160.677  34.411  0.00  0.00    +0.022 C 
ATOM     10  C   UNL     1      49.077 159.826  33.491  0.00  0.00    +0.022 C 
ATOM     11  C   UNL     1      49.507 161.634  30.399  0.00  0.00    +0.022 C 
ATOM     12  C   UNL     1      48.926 160.781  29.477  0.00  0.00    +0.019 C 
ATOM     13  C   UNL     1      48.874 161.097  28.135  0.00  0.00    +0.002 C 
ATOM     14  C   UNL     1      48.282 160.218  27.220  0.00  0.00    +0.000 C 
ENDROOT
TORSDOF 0
