REMARK  Name = =
REMARK  2 active torsions:
REMARK  status: ('A' for Active; 'I' for Inactive)
REMARK    1  A    between atoms: C_1  and  O_15
REMARK    2  A    between atoms: O_15  and  C_16
REMARK                            x       y       z     vdW  Elec       q    Type
REMARK                         _______ _______ _______ _____ _____    ______ ____
ROOT
ATOM      1  C   UNL     1      47.555 159.449  27.592  0.00  0.00    +0.150 C 
ATOM      2  C   UNL     1      47.590 159.134  28.937  0.00  0.00    +0.057 C 
ATOM      3  C   UNL     1      48.261 159.926  29.872  0.00  0.00    +0.084 C 
ATOM      4  N   UNL     1      48.284 159.601  31.185  0.00  0.00    -0.244 NA
ATOM      5  C   UNL     1      48.917 160.336  32.112  0.00  0.00    +0.099 C 
ATOM      6  C   UNL     1      49.577 161.487  31.684  0.00  0.00    +0.099 C 
ATOM      7  N   UNL     1      50.216 162.235  32.601  0.00  0.00    -0.242 NA
ATOM      8  C   UNL     1      50.260 161.945  33.907  0.00  0.00    +0.099 C 
ATOM      9  C   UNL     1      49.618 160.812  34.363  0.00  0.00    +0.022 C 
ATOM     10  C   UNL     1      48.949 160.022  33.440  0.00  0.00    +0.022 C 
ATOM     11  C   UNL     1      49.560 161.828  30.349  0.00  0.00    +0.022 C 
ATOM     12  C   UNL     1      48.904 161.058  29.419  0.00  0.00    +0.019 C 
ATOM     13  C   UNL     1      48.868 161.371  28.075  0.00  0.00    +0.005 C 
ATOM     14  C   UNL     1      48.206 160.587  27.157  0.00  0.00    +0.038 C 
ENDROOT
BRANCH   1  15
ATOM     15  O   UNL     1      46.872 158.622  26.709  0.00  0.00    -0.416 OA
BRANCH  15  16
ATOM     16  C   UNL     1      46.667 159.020  25.394  0.00  0.00    +0.423 C 
ATOM     17  O   UNL     1      47.456 159.847  24.874  0.00  0.00    -0.237 OA
ENDBRANCH  15  16
ENDBRANCH   1  15
TORSDOF 2
