REMARK  Name = =
REMARK  2 active torsions:
REMARK  status: ('A' for Active; 'I' for Inactive)
REMARK    1  A    between atoms: C_1  and  O_15
REMARK    2  A    between atoms: O_15  and  C_25
REMARK                            x       y       z     vdW  Elec       q    Type
REMARK                         _______ _______ _______ _____ _____    ______ ____
ROOT
ATOM      1  C   UNL     1      47.713 158.614  28.566  0.00  0.00    +0.152 C 
ATOM      2  C   UNL     1      47.190 159.236  29.694  0.00  0.00    +0.057 C 
ATOM      3  C   UNL     1      48.034 159.832  30.614  0.00  0.00    +0.084 C 
ATOM      4  N   UNL     1      47.487 160.428  31.698  0.00  0.00    -0.244 NA
ATOM      5  C   UNL     1      48.263 161.024  32.625  0.00  0.00    +0.099 C 
ATOM      6  C   UNL     1      49.634 161.028  32.471  0.00  0.00    +0.099 C 
ATOM      7  N   UNL     1      50.400 161.625  33.403  0.00  0.00    -0.242 NA
ATOM      8  C   UNL     1      49.889 162.228  34.494  0.00  0.00    +0.099 C 
ATOM      9  C   UNL     1      48.520 162.248  34.690  0.00  0.00    +0.022 C 
ATOM     10  C   UNL     1      47.715 161.639  33.743  0.00  0.00    +0.022 C 
ATOM     11  C   UNL     1      50.199 160.418  31.361  0.00  0.00    +0.022 C 
ATOM     12  C   UNL     1      49.401 159.806  30.408  0.00  0.00    +0.019 C 
ATOM     13  C   UNL     1      49.938 159.190  29.290  0.00  0.00    +0.005 C 
ATOM     14  C   UNL     1      49.078 158.590  28.366  0.00  0.00    +0.038 C 
ENDROOT
BRANCH   1  15
ATOM     15  O   UNL     1      46.880 158.010  27.632  0.00  0.00    -0.410 OA
BRANCH  15  25
ATOM     16  N   UNL     1      43.756 159.097  23.972  0.00  0.00    -0.264 N 
ATOM     17  C   UNL     1      43.642 159.720  22.655  0.00  0.00    +0.095 C 
ATOM     18  C   UNL     1      42.186 160.107  22.472  0.00  0.00    +0.022 C 
ATOM     19  C   UNL     1      41.593 160.682  23.716  0.00  0.00    +0.004 C 
ATOM     20  C   UNL     1      41.502 159.603  24.787  0.00  0.00    +0.022 C 
ATOM     21  C   UNL     1      42.569 158.544  24.543  0.00  0.00    +0.095 C 
ATOM     22  C   UNL     1      45.046 159.096  24.573  0.00  0.00    +0.312 C 
ATOM     23  O   UNL     1      46.048 159.612  23.986  0.00  0.00    -0.252 OA
ATOM     24  N   UNL     1      45.303 158.528  25.848  0.00  0.00    -0.205 N 
ATOM     25  C   UNL     1      46.631 158.566  26.387  0.00  0.00    +0.413 C 
ATOM     26  O   UNL     1      47.601 159.086  25.779  0.00  0.00    -0.226 OA
ATOM     27  H   UNL     1      44.573 158.110  26.360  0.00  0.00    +0.162 HD
ENDBRANCH  15  25
ENDBRANCH   1  15
TORSDOF 2
