REMARK  Name = =
REMARK  1 active torsions:
REMARK  status: ('A' for Active; 'I' for Inactive)
REMARK    1  A    between atoms: C_5  and  O_10
REMARK                            x       y       z     vdW  Elec       q    Type
REMARK                         _______ _______ _______ _____ _____    ______ ____
ROOT
ATOM      1  C   UNL     1      -4.778  -4.041  32.531  0.00  0.00    +0.179 C 
ATOM      2  C   UNL     1      -4.549  -4.029  31.168  0.00  0.00    +0.177 C 
ATOM      3  C   UNL     1      -3.778  -5.042  30.598  0.00  0.00    +0.043 C 
ATOM      4  C   UNL     1      -3.241  -6.062  31.391  0.00  0.00    +0.040 C 
ATOM      5  C   UNL     1      -3.469  -6.076  32.753  0.00  0.00    +0.137 C 
ATOM      6  C   UNL     1      -4.234  -5.060  33.279  0.00  0.00    +0.077 C 
ATOM      7  O   UNL     1      -5.201  -2.904  30.640  0.00  0.00    -0.435 OA
ATOM      8  C   UNL     1      -5.312  -1.982  31.735  0.00  0.00    +0.429 C 
ATOM      9  O   UNL     1      -5.567  -2.919  32.793  0.00  0.00    -0.435 OA
ENDROOT
BRANCH   5  10
ATOM     10  O   UNL     1      -2.934  -7.090  33.538  0.00  0.00    -0.505 OA
ATOM     11  H   UNL     1      -2.418  -7.765  33.143  0.00  0.00    +0.292 HD
ENDBRANCH   5  10
TORSDOF 1
