REMARK  Name = =
REMARK  3 active torsions:
REMARK  status: ('A' for Active; 'I' for Inactive)
REMARK    1  A    between atoms: C_5  and  O_10
REMARK    2  A    between atoms: C_6  and  O_11
REMARK    3  A    between atoms: O_11  and  O_12
REMARK                            x       y       z     vdW  Elec       q    Type
REMARK                         _______ _______ _______ _____ _____    ______ ____
ROOT
ATOM      1  C   UNL     1      -4.489  -4.172  32.516  0.00  0.00    +0.217 C 
ATOM      2  C   UNL     1      -4.559  -3.247  31.511  0.00  0.00    +0.180 C 
ATOM      3  C   UNL     1      -4.028  -3.532  30.270  0.00  0.00    +0.044 C 
ATOM      4  C   UNL     1      -3.415  -4.767  30.027  0.00  0.00    +0.043 C 
ATOM      5  C   UNL     1      -3.333  -5.715  31.027  0.00  0.00    +0.175 C 
ATOM      6  C   UNL     1      -3.875  -5.391  32.252  0.00  0.00    +0.252 C 
ATOM      7  O   UNL     1      -5.212  -2.143  32.048  0.00  0.00    -0.435 OA
ATOM      8  C   UNL     1      -5.913  -2.554  33.233  0.00  0.00    +0.430 C 
ATOM      9  O   UNL     1      -5.095  -3.632  33.650  0.00  0.00    -0.431 OA
ENDROOT
BRANCH   5  10
ATOM     10  O   UNL     1      -2.721  -6.948  30.790  0.00  0.00    -0.503 OA
ATOM     11  H   UNL     1      -2.362  -7.138  29.946  0.00  0.00    +0.292 HD
ENDBRANCH   5  10
BRANCH   6  12
ATOM     12  O   UNL     1      -3.795  -6.340  33.258  0.00  0.00    -0.330 OA
BRANCH  12  13
ATOM     13  O   UNL     1      -4.532  -7.439  33.206  0.00  0.00    -0.201 OA
ATOM     14  H   UNL     1      -4.351  -7.987  33.985  0.00  0.00    +0.267 HD
ENDBRANCH  12  13
ENDBRANCH   6  12
TORSDOF 3
