REMARK  Name = =
REMARK  1 active torsions:
REMARK  status: ('A' for Active; 'I' for Inactive)
REMARK    1  A    between atoms: C_1  and  N_11
REMARK                            x       y       z     vdW  Elec       q    Type
REMARK                         _______ _______ _______ _____ _____    ______ ____
ROOT
ATOM      1  C   UNL     1       2.562  -5.198  33.926  0.00  0.00    +0.049 C 
ATOM      2  C   UNL     1       3.864  -5.288  34.367  0.00  0.00    +0.034 C 
ATOM      3  C   UNL     1       4.511  -4.275  35.045  0.00  0.00    +0.083 C 
ATOM      4  N   UNL     1       5.787  -4.388  35.466  0.00  0.00    -0.244 NA
ATOM      5  C   UNL     1       6.439  -3.419  36.126  0.00  0.00    +0.099 C 
ATOM      6  C   UNL     1       5.752  -2.246  36.383  0.00  0.00    +0.021 C 
ATOM      7  C   UNL     1       4.445  -2.056  35.983  0.00  0.00    +0.003 C 
ATOM      8  C   UNL     1       3.826  -3.096  35.304  0.00  0.00    +0.018 C 
ATOM      9  C   UNL     1       2.520  -2.987  34.871  0.00  0.00    +0.003 C 
ATOM     10  C   UNL     1       1.896  -4.023  34.190  0.00  0.00    +0.015 C 
ENDROOT
BRANCH   1  11
ATOM     11  N   UNL     1       1.915  -6.249  33.232  0.00  0.00    -0.307 N 
ATOM     12  C   UNL     1       0.735  -6.949  33.660  0.00  0.00    +0.091 C 
ATOM     13  C   UNL     1       0.623  -8.148  32.723  0.00  0.00    +0.023 C 
ATOM     14  C   UNL     1       1.193  -7.547  31.440  0.00  0.00    +0.023 C 
ATOM     15  C   UNL     1       2.369  -6.784  31.945  0.00  0.00    +0.091 C 
ENDBRANCH   1  11
TORSDOF 1
