REMARK  Name = =
REMARK  5 active torsions:
REMARK  status: ('A' for Active; 'I' for Inactive)
REMARK    1  A    between atoms: C_5  and  O_15
REMARK    2  A    between atoms: C_6  and  O_16
REMARK    3  A    between atoms: C_8  and  N_10
REMARK    4  A    between atoms: C_11  and  C_13
REMARK    5  A    between atoms: O_16  and  O_17
REMARK                            x       y       z     vdW  Elec       q    Type
REMARK                         _______ _______ _______ _____ _____    ______ ____
ROOT
ATOM      1  C   UNL     1      -4.037  -4.133  32.196  0.00  0.00    +0.218 C 
ATOM      2  C   UNL     1      -3.682  -4.566  30.932  0.00  0.00    +0.181 C 
ATOM      3  C   UNL     1      -3.603  -3.634  29.897  0.00  0.00    +0.044 C 
ATOM      4  C   UNL     1      -3.871  -2.298  30.117  0.00  0.00    +0.043 C 
ATOM      5  C   UNL     1      -4.226  -1.854  31.372  0.00  0.00    +0.175 C 
ATOM      6  C   UNL     1      -4.298  -2.796  32.380  0.00  0.00    +0.252 C 
ATOM      7  O   UNL     1      -3.475  -5.937  31.014  0.00  0.00    -0.425 OA
ATOM      8  C   UNL     1      -3.235  -6.245  32.367  0.00  0.00    +0.438 C 
ATOM      9  O   UNL     1      -4.039  -5.261  33.031  0.00  0.00    -0.421 OA
ENDROOT
BRANCH   8  10
ATOM     10  N   UNL     1      -3.677  -7.547  32.746  0.00  0.00    -0.231 N 
ATOM     11  C   UNL     1      -2.824  -8.288  33.648  0.00  0.00    +0.251 C 
ATOM     12  O   UNL     1      -1.749  -7.763  34.052  0.00  0.00    -0.270 OA
ATOM     13  H   UNL     1      -4.522  -7.923  32.410  0.00  0.00    +0.157 HD
BRANCH  11  14
ATOM     14  C   UNL     1      -3.175  -9.618  34.096  0.00  0.00    +0.058 C 
ATOM     15  C   UNL     1      -2.936  -9.970  35.335  0.00  0.00    +0.005 C 
ENDBRANCH  11  14
ENDBRANCH   8  10
BRANCH   5  16
ATOM     16  O   UNL     1      -4.502  -0.493  31.606  0.00  0.00    -0.503 OA
ATOM     17  H   UNL     1      -4.445   0.124  30.903  0.00  0.00    +0.292 HD
ENDBRANCH   5  16
BRANCH   6  18
ATOM     18  O   UNL     1      -4.652  -2.377  33.651  0.00  0.00    -0.330 OA
BRANCH  18  19
ATOM     19  O   UNL     1      -5.936  -2.193  33.944  0.00  0.00    -0.201 OA
ATOM     20  H   UNL     1      -6.019  -1.902  34.866  0.00  0.00    +0.267 HD
ENDBRANCH  18  19
ENDBRANCH   6  18
TORSDOF 5
