REMARK  Name = =
REMARK  9 active torsions:
REMARK  status: ('A' for Active; 'I' for Inactive)
REMARK    1  A    between atoms: C_5  and  O_15
REMARK    2  A    between atoms: C_6  and  O_16
REMARK    3  A    between atoms: C_8  and  N_10
REMARK    4  A    between atoms: C_11  and  C_13
REMARK    5  A    between atoms: O_16  and  O_17
REMARK    6  A    between atoms: O_17  and  N_18
REMARK    7  A    between atoms: N_18  and  O_22
REMARK    8  A    between atoms: O_22  and  C_23
REMARK    9  A    between atoms: C_23  and  O_25
REMARK                            x       y       z     vdW  Elec       q    Type
REMARK                         _______ _______ _______ _____ _____    ______ ____
ROOT
ATOM      1  C   UNL     1      -3.737  -4.009  30.261  0.00  0.00    +0.219 C 
ATOM      2  C   UNL     1      -2.553  -4.142  29.592  0.00  0.00    +0.181 C 
ATOM      3  C   UNL     1      -1.858  -3.009  29.138  0.00  0.00    +0.044 C 
ATOM      4  C   UNL     1      -2.407  -1.776  29.390  0.00  0.00    +0.043 C 
ATOM      5  C   UNL     1      -3.624  -1.639  30.077  0.00  0.00    +0.175 C 
ATOM      6  C   UNL     1      -4.310  -2.744  30.525  0.00  0.00    +0.255 C 
ATOM      7  O   UNL     1      -2.264  -5.498  29.496  0.00  0.00    -0.425 OA
ATOM      8  C   UNL     1      -3.153  -6.162  30.366  0.00  0.00    +0.438 C 
ATOM      9  O   UNL     1      -4.216  -5.270  30.598  0.00  0.00    -0.421 OA
ENDROOT
BRANCH   8  10
ATOM     10  N   UNL     1      -2.475  -6.553  31.612  0.00  0.00    -0.231 N 
ATOM     11  C   UNL     1      -2.951  -7.606  32.416  0.00  0.00    +0.251 C 
ATOM     12  O   UNL     1      -4.001  -8.192  31.996  0.00  0.00    -0.270 OA
ATOM     13  H   UNL     1      -1.667  -6.065  31.891  0.00  0.00    +0.157 HD
BRANCH  11  14
ATOM     14  C   UNL     1      -2.333  -8.047  33.658  0.00  0.00    +0.058 C 
ATOM     15  C   UNL     1      -1.154  -7.629  34.069  0.00  0.00    +0.005 C 
ENDBRANCH  11  14
ENDBRANCH   8  10
BRANCH   5  16
ATOM     16  O   UNL     1      -4.065  -0.364  30.264  0.00  0.00    -0.503 OA
ATOM     17  H   UNL     1      -3.563   0.358  29.940  0.00  0.00    +0.292 HD
ENDBRANCH   5  16
BRANCH   6  18
ATOM     18  O   UNL     1      -5.499  -2.723  31.202  0.00  0.00    -0.304 OA
BRANCH  18  19
ATOM     19  O   UNL     1      -6.388  -1.771  31.043  0.00  0.00    -0.026 OA
BRANCH  19  20
ATOM     20  N   UNL     1      -6.940  -1.304  32.171  0.00  0.00    +0.062 N 
ATOM     21  C   UNL     1      -6.872   0.069  32.471  0.00  0.00    +0.362 C 
ATOM     22  O   UNL     1      -7.391   0.492  33.531  0.00  0.00    -0.247 OA
ATOM     23  N   UNL     1      -6.217   0.945  31.567  0.00  0.00    -0.309 N 
ATOM     24  H   UNL     1      -5.817   0.590  30.741  0.00  0.00    +0.147 HD
ATOM     25  H   UNL     1      -6.163   1.908  31.766  0.00  0.00    +0.147 HD
BRANCH  20  26
ATOM     26  O   UNL     1      -7.564  -2.161  33.020  0.00  0.00    -0.280 OA
BRANCH  26  27
ATOM     27  C   UNL     1      -8.931  -2.385  32.986  0.00  0.00    +0.533 C 
ATOM     28  O   UNL     1      -9.679  -1.521  32.414  0.00  0.00    -0.201 OA
BRANCH  27  29
ATOM     29  O   UNL     1      -9.573  -3.475  33.522  0.00  0.00    -0.448 OA
ATOM     30  H   UNL     1     -10.505  -3.550  33.455  0.00  0.00    +0.299 HD
ENDBRANCH  27  29
ENDBRANCH  26  27
ENDBRANCH  20  26
ENDBRANCH  19  20
ENDBRANCH  18  19
ENDBRANCH   6  18
TORSDOF 9
