REMARK  Name = =
REMARK  3 active torsions:
REMARK  status: ('A' for Active; 'I' for Inactive)
REMARK    1  A    between atoms: C_1  and  C_18
REMARK    2  A    between atoms: C_16  and  S_32
REMARK    3  A    between atoms: N_17  and  C_22
REMARK                            x       y       z     vdW  Elec       q    Type
REMARK                         _______ _______ _______ _____ _____    ______ ____
ROOT
ATOM      1  C   UNL     1       1.252  -7.580  27.666  0.00  0.00    +0.043 C 
ATOM      2  C   UNL     1       2.441  -6.800  27.301  0.00  0.00    -0.022 C 
ATOM      3  C   UNL     1       2.991  -7.087  26.041  0.00  0.00    -0.023 C 
ATOM      4  C   UNL     1       4.114  -6.379  25.681  0.00  0.00    +0.036 C 
ATOM      5  C   UNL     1       4.688  -5.428  26.505  0.00  0.00    +0.176 C 
ATOM      6  C   UNL     1       4.135  -5.157  27.743  0.00  0.00    +0.176 C 
ATOM      7  C   UNL     1       2.991  -5.867  28.132  0.00  0.00    +0.036 C 
ATOM      8  O   UNL     1       4.920  -4.173  28.328  0.00  0.00    -0.435 OA
ATOM      9  C   UNL     1       5.788  -3.604  27.371  0.00  0.00    +0.429 C 
ATOM     10  O   UNL     1       5.796  -4.603  26.365  0.00  0.00    -0.435 OA
ATOM     11  C   UNL     1       2.435  -8.092  25.121  0.00  0.00    +0.030 C 
ATOM     12  C   UNL     1       1.776  -9.214  25.845  0.00  0.00    +0.045 C 
ATOM     13  C   UNL     1       1.586  -9.050  27.323  0.00  0.00    +0.039 C 
ATOM     14  C   UNL     1       2.986  -9.384  27.795  0.00  0.00    +0.144 C 
ATOM     15  O   UNL     1       3.630 -10.066  26.790  0.00  0.00    -0.346 OA
ATOM     16  C   UNL     1       2.712 -10.389  25.825  0.00  0.00    +0.159 C 
ENDROOT
BRANCH   1  18
ATOM     17  N   UNL     1       0.106  -6.420  29.589  0.00  0.00    -0.309 N 
ATOM     18  C   UNL     1       0.722  -7.540  29.001  0.00  0.00    +0.077 C 
ATOM     19  C   UNL     1      -0.352  -8.605  29.230  0.00  0.00    +0.022 C 
ATOM     20  C   UNL     1      -0.879  -8.229  30.599  0.00  0.00    +0.023 C 
ATOM     21  C   UNL     1      -0.135  -6.933  30.970  0.00  0.00    +0.091 C 
BRANCH  17  22
ATOM     22  C   UNL     1      -0.312  -5.121  29.247  0.00  0.00    +0.049 C 
ATOM     23  C   UNL     1      -1.353  -4.484  29.936  0.00  0.00    +0.034 C 
ATOM     24  C   UNL     1      -1.797  -3.220  29.616  0.00  0.00    +0.083 C 
ATOM     25  N   UNL     1      -2.800  -2.640  30.301  0.00  0.00    -0.244 NA
ATOM     26  C   UNL     1      -3.263  -1.416  30.026  0.00  0.00    +0.099 C 
ATOM     27  C   UNL     1      -2.725  -0.664  29.004  0.00  0.00    +0.021 C 
ATOM     28  C   UNL     1      -1.695  -1.238  28.288  0.00  0.00    +0.003 C 
ATOM     29  C   UNL     1      -1.219  -2.519  28.584  0.00  0.00    +0.018 C 
ATOM     30  C   UNL     1      -0.209  -3.103  27.894  0.00  0.00    +0.003 C 
ATOM     31  C   UNL     1       0.238  -4.390  28.225  0.00  0.00    +0.015 C 
ENDBRANCH  17  22
ENDBRANCH   1  18
BRANCH  16  32
ATOM     32  S   UNL     1       1.781 -11.859  26.351  0.00  0.00    -0.140 S 
ATOM     33  H   UNL     1       0.869 -12.183  25.396  0.00  0.00    +0.105 HD
ENDBRANCH  16  32
TORSDOF 3
