REMARK  Name = =
REMARK  4 active torsions:
REMARK  status: ('A' for Active; 'I' for Inactive)
REMARK    1  A    between atoms: N_1  and  C_41
REMARK    2  A    between atoms: C_2  and  C_6
REMARK    3  A    between atoms: C_2  and  C_24
REMARK    4  A    between atoms: C_39  and  S_40
REMARK                            x       y       z     vdW  Elec       q    Type
REMARK                         _______ _______ _______ _____ _____    ______ ____
ROOT
ATOM      1  N   UNL     1       2.532  -5.646  28.929  0.00  0.00    -0.310 N 
ATOM      2  C   UNL     1       1.188  -6.156  29.118  0.00  0.00    +0.065 C 
ATOM      3  C   UNL     1       1.527  -7.123  30.260  0.00  0.00    +0.021 C 
ATOM      4  C   UNL     1       2.330  -6.285  31.233  0.00  0.00    +0.023 C 
ATOM      5  C   UNL     1       2.988  -5.303  30.331  0.00  0.00    +0.091 C 
ENDROOT
BRANCH   2   6
ATOM      6  C   UNL     1       0.527  -6.855  28.010  0.00  0.00    +0.039 C 
ATOM      7  C   UNL     1      -0.464  -7.931  28.415  0.00  0.00    +0.006 C 
ATOM      8  C   UNL     1      -0.272  -9.256  27.689  0.00  0.00    +0.005 C 
ATOM      9  C   UNL     1       1.226  -9.565  27.655  0.00  0.00    +0.026 C 
ATOM     10  C   UNL     1       1.695  -8.564  26.632  0.00  0.00    -0.026 C 
ATOM     11  C   UNL     1       1.261  -7.249  26.795  0.00  0.00    -0.025 C 
ATOM     12  C   UNL     1       1.577  -6.402  25.752  0.00  0.00    -0.009 C 
ATOM     13  C   UNL     1       2.260  -6.773  24.642  0.00  0.00    -0.022 C 
ATOM     14  C   UNL     1       2.690  -8.065  24.492  0.00  0.00    -0.022 C 
ATOM     15  C   UNL     1       2.390  -8.968  25.520  0.00  0.00    -0.009 C 
ATOM     16  C   UNL     1       3.442  -8.459  23.267  0.00  0.00    +0.052 C 
ATOM     17  C   UNL     1       2.750  -7.769  22.150  0.00  0.00    -0.021 C 
ATOM     18  C   UNL     1       2.305  -6.475  22.297  0.00  0.00    -0.021 C 
ATOM     19  C   UNL     1       1.660  -5.832  21.266  0.00  0.00    -0.004 C 
ATOM     20  C   UNL     1       1.435  -6.467  20.042  0.00  0.00    -0.000 C 
ATOM     21  C   UNL     1       1.880  -7.759  19.899  0.00  0.00    -0.000 C 
ATOM     22  C   UNL     1       2.538  -8.410  20.956  0.00  0.00    -0.004 C 
ATOM     23  C   UNL     1       2.520  -5.762  23.583  0.00  0.00    +0.052 C 
ENDBRANCH   2   6
BRANCH   2  24
ATOM     24  C   UNL     1       0.352  -5.011  29.731  0.00  0.00    +0.042 C 
ATOM     25  C   UNL     1      -0.964  -5.305  30.281  0.00  0.00    -0.022 C 
ATOM     26  C   UNL     1      -2.152  -5.031  29.595  0.00  0.00    -0.023 C 
ATOM     27  C   UNL     1      -3.391  -5.284  30.144  0.00  0.00    +0.036 C 
ATOM     28  C   UNL     1      -3.532  -5.825  31.402  0.00  0.00    +0.176 C 
ATOM     29  C   UNL     1      -2.383  -6.111  32.117  0.00  0.00    +0.176 C 
ATOM     30  C   UNL     1      -1.175  -5.851  31.553  0.00  0.00    +0.036 C 
ATOM     31  O   UNL     1      -2.759  -6.642  33.345  0.00  0.00    -0.435 OA
ATOM     32  C   UNL     1      -4.135  -6.952  33.286  0.00  0.00    +0.429 C 
ATOM     33  O   UNL     1      -4.625  -6.182  32.192  0.00  0.00    -0.435 OA
ATOM     34  C   UNL     1      -2.127  -4.403  28.250  0.00  0.00    +0.030 C 
ATOM     35  C   UNL     1      -0.982  -3.490  28.181  0.00  0.00    +0.045 C 
ATOM     36  C   UNL     1       0.303  -3.844  28.760  0.00  0.00    +0.039 C 
ATOM     37  C   UNL     1       0.779  -2.541  29.364  0.00  0.00    +0.144 C 
ATOM     38  O   UNL     1      -0.018  -1.549  28.781  0.00  0.00    -0.346 OA
ATOM     39  C   UNL     1      -1.274  -2.089  28.656  0.00  0.00    +0.159 C 
BRANCH  39  40
ATOM     40  S   UNL     1      -2.157  -1.239  27.322  0.00  0.00    -0.140 S 
ATOM     41  H   UNL     1      -3.403  -1.769  27.193  0.00  0.00    +0.105 HD
ENDBRANCH  39  40
ENDBRANCH   2  24
BRANCH   1  42
ATOM     42  C   UNL     1       3.494  -5.407  27.950  0.00  0.00    +0.049 C 
ATOM     43  C   UNL     1       4.376  -6.433  27.636  0.00  0.00    +0.034 C 
ATOM     44  C   UNL     1       5.372  -6.238  26.719  0.00  0.00    +0.083 C 
ATOM     45  N   UNL     1       6.256  -7.204  26.378  0.00  0.00    -0.244 NA
ATOM     46  C   UNL     1       7.233  -6.999  25.473  0.00  0.00    +0.099 C 
ATOM     47  C   UNL     1       7.384  -5.774  24.837  0.00  0.00    +0.021 C 
ATOM     48  C   UNL     1       6.509  -4.780  25.158  0.00  0.00    +0.003 C 
ATOM     49  C   UNL     1       5.517  -5.020  26.090  0.00  0.00    +0.018 C 
ATOM     50  C   UNL     1       4.628  -4.004  26.413  0.00  0.00    +0.003 C 
ATOM     51  C   UNL     1       3.627  -4.202  27.335  0.00  0.00    +0.015 C 
ENDBRANCH   1  42
TORSDOF 4
