MODEL 1
REMARK VINA RESULT:   -13.527      0.000      0.000
REMARK INTER + INTRA:         -13.482
REMARK INTER:                 -18.271
REMARK INTRA:                   4.789
REMARK UNBOUND:                 4.789
REMARK  Name = =
REMARK  7 active torsions:
REMARK  status: ('A' for Active; 'I' for Inactive)
REMARK    1  A    between atoms: C_1  and  C_10
REMARK    2  A    between atoms: C_2  and  N_22
REMARK    3  A    between atoms: C_10  and  C_16
REMARK    4  A    between atoms: C_16  and  P_18
REMARK    5  A    between atoms: P_18  and  O_20
REMARK    6  A    between atoms: P_18  and  O_21
REMARK    7  A    between atoms: N_22  and  C_26
REMARK                            x       y       z     vdW  Elec       q    Type
REMARK                         _______ _______ _______ _____ _____    ______ ____
ROOT
ATOM      1  C   UNL     1     -11.850 -43.257  31.944  0.00  0.00    +0.074 C 
ATOM      2  C   UNL     1     -12.519 -44.025  31.162  0.00  0.00    +0.101 C 
ATOM      3  C   UNL     1     -13.996 -44.141  31.506  0.00  0.00    +0.210 C 
ATOM      4  O   UNL     1     -14.682 -44.898  30.736  0.00  0.00    -0.285 OA
ATOM      5  C   UNL     1     -14.612 -43.467  32.606  0.00  0.00    +0.047 C 
ATOM      6  C   UNL     1     -13.895 -42.697  33.383  0.00  0.00    +0.045 C 
ATOM      7  C   UNL     1     -12.489 -42.549  33.101  0.00  0.00    +0.197 C 
ATOM      8  O   UNL     1     -11.824 -41.802  33.868  0.00  0.00    -0.287 OA
ENDROOT
BRANCH   1  10
ATOM      9  O   UNL     1      -9.550 -43.999  31.477  0.00  0.00    -0.443 OA
ATOM     10  C   UNL     1     -10.400 -42.959  31.811  0.00  0.00    +0.189 C 
ATOM     11  C   UNL     1      -9.950 -42.164  32.982  0.00  0.00    +0.075 C 
ATOM     12  C   UNL     1      -8.512 -42.217  33.303  0.00  0.00    -0.015 C 
ATOM     13  C   UNL     1      -7.706 -43.081  32.745  0.00  0.00    +0.077 C 
ATOM     14  C   UNL     1      -8.196 -44.033  31.780  0.00  0.00    +0.341 C 
ATOM     15  O   UNL     1      -7.439 -44.885  31.212  0.00  0.00    -0.245 OA
BRANCH  10  16
ATOM     16  C   UNL     1     -10.308 -42.036  30.567  0.00  0.00    +0.098 C 
ATOM     17  C   UNL     1     -11.214 -41.089  30.418  0.00  0.00    +0.007 C 
BRANCH  16  18
ATOM     18  P   UNL     1      -9.068 -42.273  29.338  0.00  0.00    +0.359 P 
ATOM     19  O   UNL     1      -7.714 -41.823  29.886  0.00  0.00    -0.254 OA
BRANCH  18  20
ATOM     20  O   UNL     1      -8.962 -43.848  28.753  0.00  0.00    -0.321 OA
ATOM     21  H   UNL     1      -9.702 -44.020  28.149  0.00  0.00    +0.220 HD
ENDBRANCH  18  20
BRANCH  18  22
ATOM     22  O   UNL     1      -9.346 -41.239  27.996  0.00  0.00    -0.321 OA
ATOM     23  H   UNL     1      -8.653 -41.378  27.331  0.00  0.00    +0.220 HD
ENDBRANCH  18  22
ENDBRANCH  16  18
ENDBRANCH  10  16
ENDBRANCH   1  10
BRANCH   2  24
ATOM     24  N   UNL     1     -12.061 -44.943  30.231  0.00  0.00    -0.219 N 
ATOM     25  C   UNL     1     -11.074 -45.893  30.283  0.00  0.00    +0.308 C 
ATOM     26  O   UNL     1     -10.746 -46.470  31.377  0.00  0.00    -0.252 OA
ATOM     27  N   UNL     1     -10.339 -46.307  29.110  0.00  0.00    -0.313 N 
ATOM     28  H   UNL     1     -10.540 -45.903  28.235  0.00  0.00    +0.147 HD
ATOM     29  H   UNL     1      -9.637 -46.992  29.185  0.00  0.00    +0.147 HD
BRANCH  24  30
ATOM     30  C   UNL     1     -12.618 -44.734  28.885  0.00  0.00    +0.060 C 
ATOM     31  C   UNL     1     -13.513 -43.715  28.688  0.00  0.00    +0.021 C 
ATOM     32  C   UNL     1     -14.074 -43.490  27.448  0.00  0.00    +0.027 C 
ATOM     33  C   UNL     1     -13.767 -44.261  26.372  0.00  0.00    -0.016 C 
ATOM     34  C   UNL     1     -12.851 -45.306  26.568  0.00  0.00    -0.002 C 
ATOM     35  C   UNL     1     -12.284 -45.534  27.825  0.00  0.00    +0.015 C 
ATOM     36  C   UNL     1     -14.187 -44.264  24.982  0.00  0.00    +0.032 C 
ATOM     37  C   UNL     1     -14.669 -43.012  24.376  0.00  0.00    +0.032 C 
ATOM     38  C   UNL     1     -15.980 -42.529  24.845  0.00  0.00    -0.016 C 
ATOM     39  C   UNL     1     -16.314 -42.130  26.119  0.00  0.00    +0.025 C 
ATOM     40  C   UNL     1     -17.555 -41.691  26.467  0.00  0.00    +0.006 C 
ATOM     41  C   UNL     1     -18.554 -41.638  25.504  0.00  0.00    +0.000 C 
ATOM     42  C   UNL     1     -18.209 -42.042  24.230  0.00  0.00    -0.000 C 
ATOM     43  C   UNL     1     -16.954 -42.485  23.877  0.00  0.00    -0.004 C 
ATOM     44  S   UNL     1     -15.184 -42.118  27.525  0.00  0.00    -0.088 S 
ENDBRANCH  24  30
ENDBRANCH   2  24
TORSDOF 7
ENDMDL
