REMARK  Name = =
REMARK  5 active torsions:
REMARK  status: ('A' for Active; 'I' for Inactive)
REMARK    1  A    between atoms: C_1  and  S_14
REMARK    2  A    between atoms: C_2  and  O_13
REMARK    3  A    between atoms: S_14  and  C_15
REMARK    4  A    between atoms: S_14  and  C_18
REMARK    5  A    between atoms: C_15  and  O_17
REMARK                            x       y       z     vdW  Elec       q    Type
REMARK                         _______ _______ _______ _____ _____    ______ ____
ROOT
ATOM      1  C   UNL     1      -0.952  -7.764  31.615  0.00  0.00    +0.097 C 
ATOM      2  C   UNL     1      -1.345  -7.585  32.871  0.00  0.00    +0.181 C 
ATOM      3  C   UNL     1      -0.469  -6.863  33.779  0.00  0.00    +0.230 C 
ATOM      4  O   UNL     1      -0.826  -6.686  34.971  0.00  0.00    -0.283 OA
ATOM      5  C   UNL     1       0.831  -6.327  33.352  0.00  0.00    +0.045 C 
ATOM      6  C   UNL     1       1.235  -6.514  32.049  0.00  0.00    +0.043 C 
ATOM      7  C   UNL     1       2.462  -6.004  31.660  0.00  0.00    +0.003 C 
ATOM      8  C   UNL     1       3.279  -5.321  32.536  0.00  0.00    +0.000 C 
ATOM      9  C   UNL     1       2.893  -5.124  33.842  0.00  0.00    +0.000 C 
ATOM     10  C   UNL     1       1.656  -5.641  34.226  0.00  0.00    +0.003 C 
ATOM     11  C   UNL     1       0.338  -7.242  31.161  0.00  0.00    +0.204 C 
ATOM     12  O   UNL     1       0.707  -7.409  29.979  0.00  0.00    -0.286 OA
ENDROOT
BRANCH   2  13
ATOM     13  O   UNL     1      -2.580  -8.096  33.276  0.00  0.00    -0.502 OA
ATOM     14  H   UNL     1      -3.120  -8.557  32.664  0.00  0.00    +0.292 HD
ENDBRANCH   2  13
BRANCH   1  15
ATOM     15  S   UNL     1      -2.019  -8.636  30.536  0.00  0.00    -0.055 S 
ATOM     16  H   UNL     1      -2.184  -9.919  30.957  0.00  0.00    +0.106 HD
BRANCH  15  17
ATOM     17  C   UNL     1      -1.331  -8.560  28.973  0.00  0.00    +0.357 C 
ATOM     18  O   UNL     1      -0.659  -9.561  28.550  0.00  0.00    -0.239 OA
BRANCH  17  19
ATOM     19  O   UNL     1      -1.430  -7.493  28.091  0.00  0.00    -0.473 OA
ATOM     20  H   UNL     1      -1.908  -6.726  28.336  0.00  0.00    +0.296 HD
ENDBRANCH  17  19
ENDBRANCH  15  17
BRANCH  15  21
ATOM     21  C   UNL     1      -3.528  -7.830  30.476  0.00  0.00    +0.259 C 
ATOM     22  O   UNL     1      -4.464  -8.092  31.221  0.00  0.00    -0.277 OA
ENDBRANCH  15  21
ENDBRANCH   1  15
TORSDOF 5
