REMARK  Name = =
REMARK  6 active torsions:
REMARK  status: ('A' for Active; 'I' for Inactive)
REMARK    1  A    between atoms: S_1  and  C_3
REMARK    2  A    between atoms: S_1  and  C_16
REMARK    3  A    between atoms: S_1  and  C_32
REMARK    4  A    between atoms: C_4  and  O_15
REMARK    5  A    between atoms: C_24  and  N_26
REMARK    6  A    between atoms: C_32  and  O_34
REMARK                            x       y       z     vdW  Elec       q    Type
REMARK                         _______ _______ _______ _____ _____    ______ ____
ROOT
ATOM      1  S   UNL     1      -1.671  -6.418  30.339  0.00  0.00    +0.021 S 
ENDROOT
BRANCH   1   2
ATOM      2  C   UNL     1      -0.858  -6.874  28.994  0.00  0.00    +0.110 C 
ATOM      3  C   UNL     1      -0.991  -8.148  28.565  0.00  0.00    +0.182 C 
ATOM      4  C   UNL     1      -0.341  -8.697  27.404  0.00  0.00    +0.230 C 
ATOM      5  O   UNL     1      -0.504  -9.911  27.044  0.00  0.00    -0.283 OA
ATOM      6  C   UNL     1       0.529  -7.886  26.595  0.00  0.00    +0.045 C 
ATOM      7  C   UNL     1       0.714  -6.578  26.971  0.00  0.00    +0.043 C 
ATOM      8  C   UNL     1       1.541  -5.752  26.228  0.00  0.00    +0.003 C 
ATOM      9  C   UNL     1       2.172  -6.257  25.116  0.00  0.00    +0.000 C 
ATOM     10  C   UNL     1       2.003  -7.559  24.720  0.00  0.00    +0.000 C 
ATOM     11  C   UNL     1       1.178  -8.365  25.469  0.00  0.00    +0.003 C 
ATOM     12  C   UNL     1       0.018  -6.067  28.176  0.00  0.00    +0.205 C 
ATOM     13  O   UNL     1       0.252  -4.845  28.440  0.00  0.00    -0.286 OA
BRANCH   3  14
ATOM     14  O   UNL     1      -1.833  -8.981  29.327  0.00  0.00    -0.502 OA
ATOM     15  H   UNL     1      -2.265  -8.642  30.086  0.00  0.00    +0.292 HD
ENDBRANCH   3  14
ENDBRANCH   1   2
BRANCH   1  16
ATOM     16  C   UNL     1      -0.915  -6.514  31.782  0.00  0.00    +0.281 C 
ATOM     17  N   UNL     1       0.472  -6.605  32.026  0.00  0.00    -0.269 N 
ATOM     18  C   UNL     1       1.236  -6.696  33.256  0.00  0.00    +0.095 C 
ATOM     19  C   UNL     1       2.268  -7.729  32.922  0.00  0.00    +0.024 C 
ATOM     20  C   UNL     1       2.340  -7.814  31.414  0.00  0.00    +0.026 C 
ATOM     21  C   UNL     1       1.481  -6.623  30.987  0.00  0.00    +0.098 C 
ATOM     22  C   UNL     1       2.345  -5.407  31.020  0.00  0.00    -0.010 C 
ATOM     23  C   UNL     1       2.619  -4.810  32.337  0.00  0.00    -0.012 C 
ATOM     24  C   UNL     1       1.807  -5.319  33.488  0.00  0.00    +0.098 C 
ATOM     25  O   UNL     1      -1.616  -6.509  32.866  0.00  0.00    -0.263 OA
BRANCH  24  26
ATOM     26  N   UNL     1       2.575  -5.329  34.719  0.00  0.00    -0.265 NA
ATOM     27  C   UNL     1       3.133  -4.025  34.991  0.00  0.00    +0.077 C 
ATOM     28  C   UNL     1       3.985  -4.154  36.255  0.00  0.00    +0.043 C 
ATOM     29  C   UNL     1       2.997  -4.376  37.358  0.00  0.00    -0.028 C 
ATOM     30  C   UNL     1       1.967  -5.164  37.093  0.00  0.00    -0.013 C 
ATOM     31  C   UNL     1       1.771  -5.810  35.786  0.00  0.00    +0.099 C 
ENDBRANCH  24  26
ENDBRANCH   1  16
BRANCH   1  32
ATOM     32  C   UNL     1      -3.227  -6.045  30.258  0.00  0.00    +0.370 C 
ATOM     33  O   UNL     1      -3.707  -4.900  29.946  0.00  0.00    -0.238 OA
BRANCH  32  34
ATOM     34  O   UNL     1      -4.244  -6.969  30.530  0.00  0.00    -0.473 OA
ATOM     35  H   UNL     1      -4.026  -7.848  30.772  0.00  0.00    +0.296 HD
ENDBRANCH  32  34
ENDBRANCH   1  32
TORSDOF 6
REMARK  Name = =
REMARK  6 active torsions:
REMARK  status: ('A' for Active; 'I' for Inactive)
REMARK    1  A    between atoms: S_1  and  C_3
REMARK    2  A    between atoms: S_1  and  C_16
REMARK    3  A    between atoms: S_1  and  C_32
REMARK    4  A    between atoms: C_4  and  O_15
REMARK    5  A    between atoms: C_24  and  N_26
REMARK    6  A    between atoms: C_32  and  O_34
REMARK                            x       y       z     vdW  Elec       q    Type
REMARK                         _______ _______ _______ _____ _____    ______ ____
ROOT
ATOM      1  H   UNK     1      -1.063  -4.525  30.156  0.00  0.00    +0.000 HD
ENDROOT
TORSDOF 0
