REMARK  Name = =
REMARK  2 active torsions:
REMARK  status: ('A' for Active; 'I' for Inactive)
REMARK    1  A    between atoms: C_1  and  S_6
REMARK    2  A    between atoms: C_7  and  C_10
REMARK                            x       y       z     vdW  Elec       q    Type
REMARK                         _______ _______ _______ _____ _____    ______ ____
ROOT
ATOM      1  C   UNL     1      -2.220  -7.040  31.139  0.00  0.00    +0.212 A 
ATOM      2  N   UNL     1      -1.974  -8.195  31.763  0.00  0.00    -0.234 N 
ATOM      3  N   UNL     1      -1.073  -8.913  31.058  0.00  0.00    -0.046 NA
ATOM      4  N   UNL     1      -0.758  -8.205  29.997  0.00  0.00    -0.022 NA
ATOM      5  N   UNL     1      -1.420  -7.082  30.006  0.00  0.00    -0.101 NA
ATOM      6  H   UNL     1      -2.387  -8.480  32.610  0.00  0.00    +0.193 HD
ENDROOT
BRANCH   1   7
ATOM      7  S   UNL     1      -3.231  -5.646  31.461  0.00  0.00    -0.041 S 
ATOM      8  C   UNL     1      -4.013  -5.478  32.976  0.00  0.00    +0.079 C 
ATOM      9  C   UNL     1      -4.085  -6.354  33.939  0.00  0.00    +0.050 C 
BRANCH   8  11
ATOM     10  N   UNL     1      -5.187  -3.168  33.474  0.00  0.00    -0.191 NA
ATOM     11  C   UNL     1      -4.670  -4.177  33.245  0.00  0.00    +0.103 C 
ENDBRANCH   8  11
ENDBRANCH   1   7
TORSDOF 2
