REMARK  Name = =
REMARK  9 active torsions:
REMARK  status: ('A' for Active; 'I' for Inactive)
REMARK    1  A    between atoms: C_1  and  C_20
REMARK    2  A    between atoms: C_19  and  C_22
REMARK    3  A    between atoms: C_19  and  S_23
REMARK    4  A    between atoms: S_23  and  C_24
REMARK    5  A    between atoms: P_29  and  O_30
REMARK    6  A    between atoms: P_29  and  C_31
REMARK    7  A    between atoms: P_29  and  O_37
REMARK    8  A    between atoms: P_29  and  C_39
REMARK    9  A    between atoms: O_30  and  O_38
REMARK                            x       y       z     vdW  Elec       q    Type
REMARK                         _______ _______ _______ _____ _____    ______ ____
ROOT
ATOM      1  C   UNL     1       2.816  -8.450  21.448  0.00  0.00    +0.023 C 
ATOM      2  C   UNL     1       1.775  -9.412  21.100  0.00  0.00    +0.004 C 
ATOM      3  C   UNL     1       2.212 -10.604  21.841  0.00  0.00    +0.000 C 
ATOM      4  C   UNL     1       1.408 -11.710  22.130  0.00  0.00    +0.000 C 
ATOM      5  C   UNL     1       0.001 -11.575  21.764  0.00  0.00    +0.000 C 
ATOM      6  C   UNL     1      -0.726 -12.832  21.458  0.00  0.00    +0.001 C 
ATOM      7  C   UNL     1      -0.217 -14.046  22.138  0.00  0.00    +0.007 C 
ATOM      8  C   UNL     1       1.284 -14.196  21.961  0.00  0.00    +0.000 C 
ATOM      9  C   UNL     1       1.868 -12.968  22.687  0.00  0.00    +0.000 C 
ATOM     10  C   UNL     1      -0.943 -15.307  21.740  0.00  0.00    +0.064 C 
ATOM     11  C   UNL     1      -1.290 -15.333  20.314  0.00  0.00    +0.151 C 
ATOM     12  O   UNL     1      -1.043 -16.303  19.639  0.00  0.00    -0.296 OA
ATOM     13  C   UNL     1      -1.946 -14.163  19.705  0.00  0.00    +0.065 C 
ATOM     14  C   UNL     1      -1.062 -12.944  20.026  0.00  0.00    +0.008 C 
ATOM     15  C   UNL     1      -0.296 -10.539  20.751  0.00  0.00    +0.000 C 
ATOM     16  C   UNL     1       0.370  -9.157  21.004  0.00  0.00    +0.000 C 
ATOM     17  C   UNL     1       3.618 -10.739  21.306  0.00  0.00    +0.000 C 
ATOM     18  C   UNL     1       4.064  -9.256  21.651  0.00  0.00    +0.004 C 
ENDROOT
BRANCH   1  20
ATOM     19  C   UNL     1       3.230  -7.229  23.618  0.00  0.00    +0.096 C 
ATOM     20  C   UNL     1       2.604  -7.537  22.561  0.00  0.00    -0.010 C 
BRANCH  19  22
ATOM     21  N   UNL     1       2.128  -5.411  25.201  0.00  0.00    -0.190 NA
ATOM     22  C   UNL     1       2.623  -6.213  24.506  0.00  0.00    +0.107 C 
ENDBRANCH  19  22
BRANCH  19  23
ATOM     23  S   UNL     1       4.803  -7.810  24.140  0.00  0.00    -0.037 S 
BRANCH  23  24
ATOM     24  C   UNL     1       5.326  -7.125  25.676  0.00  0.00    +0.212 A 
ATOM     25  N   UNL     1       6.006  -5.990  25.892  0.00  0.00    -0.234 N 
ATOM     26  N   UNL     1       6.170  -5.894  27.192  0.00  0.00    -0.046 NA
ATOM     27  N   UNL     1       5.625  -6.913  27.796  0.00  0.00    -0.022 NA
ATOM     28  N   UNL     1       5.088  -7.703  26.883  0.00  0.00    -0.101 NA
ATOM     29  H   UNL     1       6.321  -5.353  25.210  0.00  0.00    +0.193 HD
ENDBRANCH  23  24
ENDBRANCH  19  23
ENDBRANCH   1  20
TORSDOF 4
REMARK  Name = =
REMARK  9 active torsions:
REMARK  status: ('A' for Active; 'I' for Inactive)
REMARK    1  A    between atoms: C_1  and  C_20
REMARK    2  A    between atoms: C_19  and  C_22
REMARK    3  A    between atoms: C_19  and  S_23
REMARK    4  A    between atoms: S_23  and  C_24
REMARK    5  A    between atoms: P_29  and  O_30
REMARK    6  A    between atoms: P_29  and  C_31
REMARK    7  A    between atoms: P_29  and  O_37
REMARK    8  A    between atoms: P_29  and  C_39
REMARK    9  A    between atoms: O_30  and  O_38
REMARK                            x       y       z     vdW  Elec       q    Type
REMARK                         _______ _______ _______ _____ _____    ______ ____
ROOT
ATOM      1  P   UNL     1      -0.372  -8.052  19.836  0.00  0.00    +0.201 P 
ENDROOT
BRANCH   1   2
ATOM      2  C   UNL     1       0.085  -6.419  19.419  0.00  0.00    +0.083 C 
ATOM      3  C   UNL     1       1.238  -5.871  18.929  0.00  0.00    +0.106 C 
ATOM      4  N   UNL     1       1.437  -4.555  18.631  0.00  0.00    -0.222 NA
ATOM      5  C   UNL     1       0.455  -3.700  18.818  0.00  0.00    +0.199 C 
ATOM      6  N   UNL     1      -0.695  -4.182  19.296  0.00  0.00    -0.222 NA
ATOM      7  C   UNL     1      -0.901  -5.458  19.590  0.00  0.00    +0.106 C 
ENDBRANCH   1   2
BRANCH   1   8
ATOM      8  O   UNL     1      -1.510  -7.479  20.983  0.00  0.00    -0.347 OA
ATOM      9  H   UNL     1      -1.951  -8.233  21.405  0.00  0.00    +0.217 HD
ENDBRANCH   1   8
BRANCH   1  10
ATOM     10  C   UNL     1      -2.080  -8.559  19.495  0.00  0.00    +0.049 C 
ATOM     11  C   UNL     1      -2.894  -7.944  18.700  0.00  0.00    +0.005 C 
ENDBRANCH   1  10
BRANCH   1  12
ATOM     12  O   UNL     1       1.021  -8.160  19.277  0.00  0.00    -0.185 OA
BRANCH  12  13
ATOM     13  O   UNL     1       0.047  -8.500  18.322  0.00  0.00    -0.244 OA
ATOM     14  H   UNL     1       0.481  -8.737  17.488  0.00  0.00    +0.253 HD
ENDBRANCH  12  13
ENDBRANCH   1  12
TORSDOF 5
