REMARK  Name = =
REMARK  2 active torsions:
REMARK  status: ('A' for Active; 'I' for Inactive)
REMARK    1  A    between atoms: C_1  and  C_18
REMARK    2  A    between atoms: C_2  and  O_20
REMARK                            x       y       z     vdW  Elec       q    Type
REMARK                         _______ _______ _______ _____ _____    ______ ____
ROOT
ATOM      1  C   UNL     1      54.293 157.303  26.907  0.00  0.00    +0.129 C 
ATOM      2  C   UNL     1      54.471 158.033  27.980  0.00  0.00    +0.180 C 
ATOM      3  C   UNL     1      55.654 158.888  28.227  0.00  0.00    +0.229 C 
ATOM      4  O   UNL     1      55.757 159.561  29.282  0.00  0.00    -0.283 OA
ATOM      5  C   UNL     1      56.689 158.919  27.205  0.00  0.00    +0.045 C 
ATOM      6  C   UNL     1      56.555 158.173  26.058  0.00  0.00    +0.042 C 
ATOM      7  C   UNL     1      57.571 158.242  25.122  0.00  0.00    +0.003 C 
ATOM      8  C   UNL     1      58.682 159.031  25.328  0.00  0.00    +0.000 C 
ATOM      9  C   UNL     1      58.787 159.769  26.491  0.00  0.00    +0.000 C 
ATOM     10  C   UNL     1      57.792 159.718  27.438  0.00  0.00    +0.003 C 
ATOM     11  C   UNL     1      55.374 157.355  25.876  0.00  0.00    +0.203 C 
ATOM     12  O   UNL     1      55.317 156.700  24.803  0.00  0.00    -0.286 OA
ENDROOT
BRANCH   1  18
ATOM     13  N   UNL     1      52.509 155.422  27.250  0.00  0.00    -0.276 N 
ATOM     14  C   UNL     1      52.709 154.765  28.494  0.00  0.00    +0.094 C 
ATOM     15  C   UNL     1      51.718 153.585  28.579  0.00  0.00    +0.023 C 
ATOM     16  C   UNL     1      51.518 153.336  27.077  0.00  0.00    +0.023 C 
ATOM     17  C   UNL     1      51.286 154.766  26.648  0.00  0.00    +0.094 C 
ATOM     18  C   UNL     1      53.178 156.455  26.606  0.00  0.00    +0.255 C 
ATOM     19  O   UNL     1      52.615 156.687  25.417  0.00  0.00    -0.270 OA
ENDBRANCH   1  18
BRANCH   2  20
ATOM     20  O   UNL     1      53.543 158.060  28.987  0.00  0.00    -0.503 OA
ATOM     21  H   UNL     1      52.761 157.549  28.917  0.00  0.00    +0.292 HD
ENDBRANCH   2  20
TORSDOF 2
