REMARK  Name = =
REMARK  6 active torsions:
REMARK  status: ('A' for Active; 'I' for Inactive)
REMARK    1  A    between atoms: C_1  and  C_18
REMARK    2  A    between atoms: C_2  and  O_20
REMARK    3  A    between atoms: C_7  and  O_21
REMARK    4  A    between atoms: O_21  and  P_22
REMARK    5  A    between atoms: P_22  and  N_24
REMARK    6  A    between atoms: P_22  and  S_25
REMARK                            x       y       z     vdW  Elec       q    Type
REMARK                         _______ _______ _______ _____ _____    ______ ____
ROOT
ATOM      1  C   UNL     1      55.344 152.470  28.286  0.00  0.00    +0.129 C 
ATOM      2  C   UNL     1      56.349 152.416  27.472  0.00  0.00    +0.180 C 
ATOM      3  C   UNL     1      56.317 152.832  26.044  0.00  0.00    +0.229 C 
ATOM      4  O   UNL     1      57.357 152.739  25.329  0.00  0.00    -0.283 OA
ATOM      5  C   UNL     1      55.073 153.339  25.510  0.00  0.00    +0.048 C 
ATOM      6  C   UNL     1      53.973 153.422  26.320  0.00  0.00    +0.077 C 
ATOM      7  C   UNL     1      52.759 153.904  25.842  0.00  0.00    +0.150 C 
ATOM      8  C   UNL     1      52.712 154.294  24.523  0.00  0.00    +0.037 C 
ATOM      9  C   UNL     1      53.817 154.212  23.705  0.00  0.00    +0.003 C 
ATOM     10  C   UNL     1      55.000 153.736  24.188  0.00  0.00    +0.004 C 
ATOM     11  C   UNL     1      54.070 153.000  27.703  0.00  0.00    +0.206 C 
ATOM     12  O   UNL     1      53.048 153.087  28.422  0.00  0.00    -0.286 OA
ENDROOT
BRANCH   1  18
ATOM     13  N   UNL     1      56.123 152.309  30.780  0.00  0.00    -0.276 N 
ATOM     14  C   UNL     1      55.712 151.650  32.078  0.00  0.00    +0.094 C 
ATOM     15  C   UNL     1      57.090 151.468  32.714  0.00  0.00    +0.023 C 
ATOM     16  C   UNL     1      57.579 152.886  32.540  0.00  0.00    +0.023 C 
ATOM     17  C   UNL     1      57.296 153.058  31.018  0.00  0.00    +0.094 C 
ATOM     18  C   UNL     1      55.328 152.086  29.654  0.00  0.00    +0.255 C 
ATOM     19  O   UNL     1      54.288 151.301  29.984  0.00  0.00    -0.270 OA
ENDBRANCH   1  18
BRANCH   2  20
ATOM     20  O   UNL     1      57.572 151.942  27.907  0.00  0.00    -0.503 OA
ATOM     21  H   UNL     1      57.676 151.659  28.794  0.00  0.00    +0.292 HD
ENDBRANCH   2  20
BRANCH   7  22
ATOM     22  O   UNL     1      51.698 153.965  26.692  0.00  0.00    -0.424 OA
BRANCH  22  23
ATOM     23  P   UNL     1      51.506 155.079  27.949  0.00  0.00    +0.371 P 
ATOM     24  O   UNL     1      50.100 155.550  28.133  0.00  0.00    -0.247 OA
BRANCH  23  25
ATOM     25  N   UNL     1      52.078 154.444  29.483  0.00  0.00    -0.241 NA
ATOM     26  H   UNL     1      51.537 153.615  29.731  0.00  0.00    +0.129 HD
ATOM     27  H   UNL     1      51.965 155.153  30.208  0.00  0.00    +0.129 HD
ENDBRANCH  23  25
BRANCH  23  28
ATOM     28  S   UNL     1      52.692 156.797  27.523  0.00  0.00    -0.059 S 
ATOM     29  H   UNL     1      52.296 157.339  26.340  0.00  0.00    +0.114 HD
ENDBRANCH  23  28
ENDBRANCH  22  23
ENDBRANCH   7  22
TORSDOF 6
