REMARK  Name = =
REMARK  7 active torsions:
REMARK  status: ('A' for Active; 'I' for Inactive)
REMARK    1  A    between atoms: C_1  and  C_18
REMARK    2  A    between atoms: C_2  and  O_21
REMARK    3  A    between atoms: C_7  and  O_22
REMARK    4  A    between atoms: C_9  and  N_20
REMARK    5  A    between atoms: O_22  and  P_23
REMARK    6  A    between atoms: P_23  and  N_25
REMARK    7  A    between atoms: P_23  and  S_26
REMARK                            x       y       z     vdW  Elec       q    Type
REMARK                         _______ _______ _______ _____ _____    ______ ____
ROOT
ATOM      1  C   UNL     1      53.744 154.028  24.812  0.00  0.00    +0.129 C 
ATOM      2  C   UNL     1      52.706 154.830  24.742  0.00  0.00    +0.180 C 
ATOM      3  C   UNL     1      51.947 155.146  25.966  0.00  0.00    +0.229 C 
ATOM      4  O   UNL     1      50.947 155.927  25.869  0.00  0.00    -0.283 OA
ATOM      5  C   UNL     1      52.304 154.601  27.257  0.00  0.00    +0.049 C 
ATOM      6  C   UNL     1      53.389 153.752  27.377  0.00  0.00    +0.077 C 
ATOM      7  C   UNL     1      53.770 153.207  28.579  0.00  0.00    +0.151 C 
ATOM      8  C   UNL     1      53.046 153.518  29.703  0.00  0.00    +0.052 C 
ATOM      9  C   UNL     1      51.942 154.365  29.658  0.00  0.00    +0.045 C 
ATOM     10  C   UNL     1      51.606 154.883  28.424  0.00  0.00    +0.018 C 
ATOM     11  C   UNL     1      54.104 153.471  26.142  0.00  0.00    +0.206 C 
ATOM     12  O   UNL     1      55.103 152.682  26.287  0.00  0.00    -0.286 OA
ENDROOT
BRANCH   1  18
ATOM     13  N   UNL     1      55.297 154.325  22.719  0.00  0.00    -0.276 N 
ATOM     14  C   UNL     1      55.485 155.663  22.325  0.00  0.00    +0.094 C 
ATOM     15  C   UNL     1      56.175 155.630  20.920  0.00  0.00    +0.023 C 
ATOM     16  C   UNL     1      55.886 154.182  20.492  0.00  0.00    +0.023 C 
ATOM     17  C   UNL     1      56.189 153.521  21.817  0.00  0.00    +0.094 C 
ATOM     18  C   UNL     1      54.570 153.633  23.699  0.00  0.00    +0.255 C 
ATOM     19  O   UNL     1      54.650 152.301  23.589  0.00  0.00    -0.270 OA
ENDBRANCH   1  18
BRANCH   9  20
ATOM     20  N   UNL     1      51.213 154.668  30.838  0.00  0.00    -0.357 N 
ATOM     21  H   UNL     1      51.486 154.277  31.699  0.00  0.00    +0.142 HD
ATOM     22  H   UNL     1      50.434 155.269  30.795  0.00  0.00    +0.142 HD
ENDBRANCH   9  20
BRANCH   2  23
ATOM     23  O   UNL     1      52.284 155.410  23.549  0.00  0.00    -0.503 OA
ATOM     24  H   UNL     1      52.744 155.231  22.752  0.00  0.00    +0.292 HD
ENDBRANCH   2  23
BRANCH   7  25
ATOM     25  O   UNL     1      54.849 152.366  28.677  0.00  0.00    -0.424 OA
BRANCH  25  26
ATOM     26  P   UNL     1      56.018 152.375  29.880  0.00  0.00    +0.371 P 
ATOM     27  O   UNL     1      57.289 151.740  29.308  0.00  0.00    -0.247 OA
BRANCH  26  28
ATOM     28  N   UNL     1      56.434 153.937  30.477  0.00  0.00    -0.241 NA
ATOM     29  H   UNL     1      56.730 154.530  29.701  0.00  0.00    +0.129 HD
ATOM     30  H   UNL     1      57.196 153.852  31.150  0.00  0.00    +0.129 HD
ENDBRANCH  26  28
BRANCH  26  31
ATOM     31  S   UNL     1      55.390 151.087  31.457  0.00  0.00    -0.059 S 
ATOM     32  H   UNL     1      55.071 149.867  30.947  0.00  0.00    +0.114 HD
ENDBRANCH  26  31
ENDBRANCH  25  26
ENDBRANCH   7  25
TORSDOF 7
