REMARK  Name = =
REMARK  8 active torsions:
REMARK  status: ('A' for Active; 'I' for Inactive)
REMARK    1  A    between atoms: C_1  and  C_18
REMARK    2  A    between atoms: C_2  and  O_29
REMARK    3  A    between atoms: C_7  and  O_30
REMARK    4  A    between atoms: C_9  and  N_28
REMARK    5  A    between atoms: C_17  and  N_20
REMARK    6  A    between atoms: O_30  and  P_31
REMARK    7  A    between atoms: P_31  and  N_33
REMARK    8  A    between atoms: P_31  and  S_34
REMARK                            x       y       z     vdW  Elec       q    Type
REMARK                         _______ _______ _______ _____ _____    ______ ____
ROOT
ATOM      1  C   UNL     1      51.324 156.161  29.289  0.00  0.00    +0.129 C 
ATOM      2  C   UNL     1      51.304 154.947  29.785  0.00  0.00    +0.180 C 
ATOM      3  C   UNL     1      51.915 153.832  29.032  0.00  0.00    +0.229 C 
ATOM      4  O   UNL     1      51.869 152.668  29.558  0.00  0.00    -0.283 OA
ATOM      5  C   UNL     1      52.550 153.975  27.753  0.00  0.00    +0.049 C 
ATOM      6  C   UNL     1      52.581 155.242  27.216  0.00  0.00    +0.077 C 
ATOM      7  C   UNL     1      53.178 155.461  25.984  0.00  0.00    +0.151 C 
ATOM      8  C   UNL     1      53.735 154.397  25.314  0.00  0.00    +0.052 C 
ATOM      9  C   UNL     1      53.723 153.115  25.821  0.00  0.00    +0.045 C 
ATOM     10  C   UNL     1      53.118 152.935  27.052  0.00  0.00    +0.018 C 
ATOM     11  C   UNL     1      51.984 156.330  27.956  0.00  0.00    +0.206 C 
ATOM     12  O   UNL     1      52.040 157.491  27.411  0.00  0.00    -0.286 OA
ENDROOT
BRANCH   1  18
ATOM     13  N   UNL     1      50.332 158.571  29.459  0.00  0.00    -0.261 N 
ATOM     14  C   UNL     1      50.082 159.165  28.202  0.00  0.00    +0.095 C 
ATOM     15  C   UNL     1      49.060 160.283  28.461  0.00  0.00    +0.025 C 
ATOM     16  C   UNL     1      49.000 160.431  29.931  0.00  0.00    +0.043 C 
ATOM     17  C   UNL     1      50.100 159.659  30.475  0.00  0.00    +0.161 C 
ATOM     18  C   UNL     1      50.785 157.314  29.907  0.00  0.00    +0.256 C 
ATOM     19  O   UNL     1      50.669 157.196  31.229  0.00  0.00    -0.270 OA
BRANCH  17  20
ATOM     20  N   UNL     1      51.309 160.288  30.865  0.00  0.00    -0.212 N 
ATOM     21  C   UNL     1      51.419 161.290  31.870  0.00  0.00    +0.250 C 
ATOM     22  O   UNL     1      50.696 161.161  32.889  0.00  0.00    -0.273 OA
ATOM     23  C   UNL     1      52.343 162.424  31.710  0.00  0.00    +0.175 C 
ATOM     24  N   UNL     1      53.427 162.157  30.802  0.00  0.00    -0.199 NA
ATOM     25  C   UNL     1      53.731 160.756  30.667  0.00  0.00    +0.175 C 
ATOM     26  C   UNL     1      52.570 159.939  30.241  0.00  0.00    +0.250 C 
ATOM     27  O   UNL     1      52.671 159.027  29.412  0.00  0.00    -0.273 OA
ENDBRANCH  17  20
ENDBRANCH   1  18
BRANCH   9  28
ATOM     28  N   UNL     1      54.292 152.012  25.142  0.00  0.00    -0.357 N 
ATOM     29  H   UNL     1      54.722 152.142  24.266  0.00  0.00    +0.142 HD
ATOM     30  H   UNL     1      54.258 151.115  25.545  0.00  0.00    +0.142 HD
ENDBRANCH   9  28
BRANCH   2  31
ATOM     31  O   UNL     1      50.720 154.637  31.012  0.00  0.00    -0.503 OA
ATOM     32  H   UNL     1      50.320 155.312  31.525  0.00  0.00    +0.292 HD
ENDBRANCH   2  31
BRANCH   7  33
ATOM     33  O   UNL     1      53.186 156.752  25.481  0.00  0.00    -0.424 OA
BRANCH  33  34
ATOM     34  P   UNL     1      54.547 157.359  24.612  0.00  0.00    +0.371 P 
ATOM     35  O   UNL     1      55.516 158.033  25.553  0.00  0.00    -0.247 OA
BRANCH  34  36
ATOM     36  N   UNL     1      55.438 156.026  23.862  0.00  0.00    -0.241 NA
ATOM     37  H   UNL     1      55.768 155.388  24.586  0.00  0.00    +0.129 HD
ATOM     38  H   UNL     1      56.236 156.398  23.347  0.00  0.00    +0.129 HD
ENDBRANCH  34  36
BRANCH  34  39
ATOM     39  S   UNL     1      53.838 158.714  23.180  0.00  0.00    -0.059 S 
ATOM     40  H   UNL     1      53.162 159.718  23.801  0.00  0.00    +0.114 HD
ENDBRANCH  34  39
ENDBRANCH  33  34
ENDBRANCH   7  33
TORSDOF 8
