MODEL 1
REMARK VINA RESULT:    -5.191      0.000      0.000
REMARK INTER + INTRA:          -7.099
REMARK INTER:                  -6.860
REMARK INTRA:                  -0.239
REMARK UNBOUND:                -0.239
REMARK  Name = =
REMARK  7 active torsions:
REMARK  status: ('A' for Active; 'I' for Inactive)
REMARK    1  A    between atoms: C_2  and  C_9
REMARK    2  A    between atoms: C_7  and  S_19
REMARK    3  A    between atoms: C_8  and  C_16
REMARK    4  A    between atoms: C_10  and  S_12
REMARK    5  A    between atoms: S_12  and  C_13
REMARK    6  A    between atoms: C_13  and  N_15
REMARK    7  A    between atoms: C_16  and  O_18
REMARK                            x       y       z     vdW  Elec       q    Type
REMARK                         _______ _______ _______ _____ _____    ______ ____
ROOT
ATOM      1  N   UNL     1      59.780 159.755  39.543  0.00  0.00    -0.251 N 
ATOM      2  C   UNL     1      59.112 161.010  39.182  0.00  0.00    +0.107 C 
ATOM      3  C   UNL     1      58.023 160.209  38.532  0.00  0.00    +0.110 C 
ATOM      4  C   UNL     1      59.020 159.074  38.565  0.00  0.00    +0.232 C 
ATOM      5  O   UNL     1      59.066 157.998  37.938  0.00  0.00    -0.274 OA
ATOM      6  C   UNL     1      58.901 161.587  40.532  0.00  0.00    +0.058 C 
ATOM      7  C   UNL     1      60.203 161.211  41.209  0.00  0.00    +0.021 C 
ATOM      8  C   UNL     1      60.668 160.121  40.575  0.00  0.00    +0.132 C 
ENDROOT
BRANCH   2   9
ATOM      9  C   UNL     1      59.880 161.902  38.282  0.00  0.00    +0.059 C 
ATOM     10  C   UNL     1      59.491 163.089  37.906  0.00  0.00    +0.046 C 
ATOM     11 CL   UNL     1      61.419 161.282  37.704  0.00  0.00    -0.085 Cl
BRANCH  10  12
ATOM     12  S   UNL     1      60.509 164.064  36.821  0.00  0.00    -0.065 S 
BRANCH  12  13
ATOM     13  C   UNL     1      59.637 164.521  35.329  0.00  0.00    +0.109 C 
ATOM     14  S   UNL     1      59.962 165.989  34.693  0.00  0.00    -0.028 S 
BRANCH  13  15
ATOM     15  N   UNL     1      58.693 163.669  34.695  0.00  0.00    -0.347 N 
ATOM     16  H   UNL     1      58.407 162.836  35.136  0.00  0.00    +0.143 HD
ATOM     17  H   UNL     1      58.324 163.912  33.815  0.00  0.00    +0.143 HD
ENDBRANCH  13  15
ENDBRANCH  12  13
ENDBRANCH  10  12
ENDBRANCH   2   9
BRANCH   8  18
ATOM     18  C   UNL     1      61.903 159.427  40.916  0.00  0.00    +0.352 C 
ATOM     19  O   UNL     1      63.021 159.805  40.496  0.00  0.00    -0.244 OA
BRANCH  18  20
ATOM     20  O   UNL     1      61.886 158.307  41.727  0.00  0.00    -0.476 OA
ATOM     21  H   UNL     1      62.232 157.495  41.412  0.00  0.00    +0.295 HD
ENDBRANCH  18  20
ENDBRANCH   8  18
BRANCH   7  22
ATOM     22  S   UNL     1      60.981 162.047  42.583  0.00  0.00    -0.144 S 
ATOM     23  H   UNL     1      60.024 162.551  43.408  0.00  0.00    +0.107 HD
ENDBRANCH   7  22
TORSDOF 7
ENDMDL
