MODEL 1
REMARK VINA RESULT:    -6.109      0.000      0.000
REMARK INTER + INTRA:          -8.452
REMARK INTER:                  -7.895
REMARK INTRA:                  -0.557
REMARK UNBOUND:                -0.557
REMARK  Name = =
REMARK  5 active torsions:
REMARK  status: ('A' for Active; 'I' for Inactive)
REMARK    1  A    between atoms: C_1  and  S_19
REMARK    2  A    between atoms: C_1  and  C_24
REMARK    3  A    between atoms: S_19  and  S_20
REMARK    4  A    between atoms: S_19  and  C_22
REMARK    5  A    between atoms: C_24  and  N_25
REMARK                            x       y       z     vdW  Elec       q    Type
REMARK                         _______ _______ _______ _____ _____    ______ ____
ROOT
ATOM      1  C   UNL     1      61.716 166.257  35.780  0.00  0.00    +0.052 C 
ATOM      2  C   UNL     1      62.699 166.683  36.850  0.00  0.00    +0.011 C 
ATOM      3  C   UNL     1      62.473 165.752  38.042  0.00  0.00    +0.001 C 
ATOM      4  C   UNL     1      61.332 164.904  37.628  0.00  0.00    +0.001 C 
ATOM      5  C   UNL     1      61.519 164.801  36.143  0.00  0.00    +0.010 C 
ATOM      6  C   UNL     1      60.336 164.165  35.541  0.00  0.00    +0.001 C 
ATOM      7  C   UNL     1      59.456 163.391  36.429  0.00  0.00    +0.001 C 
ATOM      8  C   UNL     1      60.048 162.847  37.675  0.00  0.00    +0.008 C 
ATOM      9  C   UNL     1      61.232 163.557  38.207  0.00  0.00    +0.001 C 
ATOM     10  C   UNL     1      62.438 162.673  38.004  0.00  0.00    +0.004 C 
ATOM     11  C   UNL     1      62.309 161.549  39.011  0.00  0.00    +0.022 C 
ATOM     12  C   UNL     1      60.930 160.951  38.896  0.00  0.00    -0.037 C 
ATOM     13  C   UNL     1      60.498 160.117  39.834  0.00  0.00    +0.034 C 
ATOM     14  C   UNL     1      59.184 159.556  39.709  0.00  0.00    +0.195 C 
ATOM     15  O   UNL     1      58.708 158.747  40.580  0.00  0.00    -0.287 OA
ATOM     16  C   UNL     1      58.351 159.899  38.573  0.00  0.00    +0.038 C 
ATOM     17  C   UNL     1      58.805 160.725  37.663  0.00  0.00    -0.019 C 
ATOM     18  C   UNL     1      60.136 161.342  37.719  0.00  0.00    +0.040 C 
ENDROOT
BRANCH   1  19
ATOM     19  S   UNL     1      60.311 167.215  35.859  0.00  0.00    -0.126 S 
ATOM     20  H   UNL     1      59.138 166.619  36.205  0.00  0.00    +0.101 HD
BRANCH  19  21
ATOM     21  S   UNL     1      60.197 167.830  34.270  0.00  0.00    +0.164 S 
ATOM     22  O   UNL     1      60.112 168.957  33.700  0.00  0.00    -0.233 OA
ENDBRANCH  19  21
BRANCH  19  23
ATOM     23  C   UNL     1      60.661 168.418  37.072  0.00  0.00    +0.022 C 
ATOM     24  C   UNL     1      59.917 168.559  38.161  0.00  0.00    +0.006 C 
ENDBRANCH  19  23
ENDBRANCH   1  19
BRANCH   1  25
ATOM     25  C   UNL     1      62.354 166.328  34.403  0.00  0.00    +0.098 C 
BRANCH  25  26
ATOM     26  N   UNL     1      63.504 165.483  34.294  0.00  0.00    -0.216 NA
ATOM     27  C   UNL     1      64.617 166.114  33.620  0.00  0.00    +0.107 C 
ENDBRANCH  25  26
ENDBRANCH   1  25
TORSDOF 5
ENDMDL
