MODEL 1
REMARK VINA RESULT:    -7.269      0.000      0.000
REMARK INTER + INTRA:         -11.505
REMARK INTER:                 -10.031
REMARK INTRA:                  -1.474
REMARK UNBOUND:                -1.474
REMARK  Name = =
REMARK  8 active torsions:
REMARK  status: ('A' for Active; 'I' for Inactive)
REMARK    1  A    between atoms: N_1  and  C_25
REMARK    2  A    between atoms: C_2  and  C_7
REMARK    3  A    between atoms: C_7  and  O_14
REMARK    4  A    between atoms: O_14  and  C_15
REMARK    5  A    between atoms: C_16  and  O_22
REMARK    6  A    between atoms: C_19  and  O_21
REMARK    7  A    between atoms: C_25  and  C_28
REMARK    8  A    between atoms: C_32  and  O_38
REMARK                            x       y       z     vdW  Elec       q    Type
REMARK                         _______ _______ _______ _____ _____    ______ ____
ROOT
ATOM      1  N   UNL     1      59.433 163.740  39.942  0.00  0.00    -0.252 NA
ATOM      2  C   UNL     1      59.636 162.920  41.053  0.00  0.00    +0.112 C 
ATOM      3  C   UNL     1      59.276 163.489  42.412  0.00  0.00    +0.088 C 
ATOM      4  N   UNL     1      58.449 164.649  42.421  0.00  0.00    -0.295 NA
ATOM      5  C   UNL     1      58.672 165.605  41.424  0.00  0.00    +0.086 C 
ATOM      6  C   UNL     1      58.671 164.957  40.099  0.00  0.00    +0.091 C 
ATOM      7  H   UNL     1      58.578 165.110  43.322  0.00  0.00    +0.123 HD
ENDROOT
BRANCH   2   8
ATOM      8  C   UNL     1      58.863 161.576  41.037  0.00  0.00    +0.148 C 
ATOM      9  C   UNL     1      58.393 161.288  39.610  0.00  0.00    +0.041 C 
ATOM     10  C   UNL     1      58.483 159.777  39.470  0.00  0.00    +0.004 C 
ATOM     11  C   UNL     1      58.637 159.290  40.922  0.00  0.00    +0.004 C 
ATOM     12  C   UNL     1      59.682 160.372  41.295  0.00  0.00    +0.038 C 
ATOM     13  C   UNL     1      60.688 159.976  40.268  0.00  0.00    +0.004 C 
ATOM     14  C   UNL     1      59.938 159.532  39.020  0.00  0.00    +0.000 C 
BRANCH   8  15
ATOM     15  O   UNL     1      57.747 161.585  41.813  0.00  0.00    -0.478 OA
BRANCH  15  16
ATOM     16  C   UNL     1      56.425 161.443  41.856  0.00  0.00    +0.175 C 
ATOM     17  C   UNL     1      55.503 162.437  41.614  0.00  0.00    +0.168 C 
ATOM     18  C   UNL     1      54.126 162.169  41.694  0.00  0.00    +0.043 C 
ATOM     19  C   UNL     1      53.645 160.928  42.006  0.00  0.00    +0.040 C 
ATOM     20  C   UNL     1      54.536 159.932  42.245  0.00  0.00    +0.137 C 
ATOM     21  C   UNL     1      55.873 160.179  42.173  0.00  0.00    +0.077 C 
BRANCH  20  22
ATOM     22  O   UNL     1      54.054 158.647  42.566  0.00  0.00    -0.505 OA
ATOM     23  H   UNL     1      54.653 157.971  42.814  0.00  0.00    +0.292 HD
ENDBRANCH  20  22
BRANCH  17  24
ATOM     24  O   UNL     1      55.783 163.744  41.281  0.00  0.00    -0.503 OA
ATOM     25  H   UNL     1      56.671 164.044  41.270  0.00  0.00    +0.292 HD
ENDBRANCH  17  24
ENDBRANCH  15  16
ENDBRANCH   8  15
ENDBRANCH   2   8
BRANCH   1  28
ATOM     26  C   UNL     1      61.398 162.408  37.768  0.00  0.00    +0.126 C 
ATOM     27  N   UNL     1      60.493 163.186  38.037  0.00  0.00    -0.250 NA
ATOM     28  C   UNL     1      60.548 164.107  39.089  0.00  0.00    +0.142 C 
ATOM     29  C   UNL     1      61.876 164.097  39.777  0.00  0.00    +0.101 C 
ATOM     30  S   UNL     1      62.696 162.711  38.954  0.00  0.00    -0.090 S 
BRANCH  28  31
ATOM     31  C   UNL     1      60.459 165.461  38.426  0.00  0.00    +0.040 C 
ATOM     32  C   UNL     1      60.008 165.156  36.982  0.00  0.00    +0.029 C 
ATOM     33  C   UNL     1      60.187 166.269  36.065  0.00  0.00    -0.023 C 
ATOM     34  C   UNL     1      60.722 167.476  36.392  0.00  0.00    +0.008 C 
ATOM     35  C   UNL     1      60.821 168.452  35.416  0.00  0.00    +0.129 C 
ATOM     36  C   UNL     1      60.388 168.228  34.110  0.00  0.00    +0.036 C 
ATOM     37  C   UNL     1      59.852 167.009  33.791  0.00  0.00    +0.003 C 
ATOM     38  C   UNL     1      59.758 166.054  34.759  0.00  0.00    -0.004 C 
ATOM     39  C   UNL     1      61.181 167.674  37.781  0.00  0.00    +0.029 C 
ATOM     40  C   UNL     1      61.645 166.306  38.356  0.00  0.00    +0.008 C 
BRANCH  35  41
ATOM     41  O   UNL     1      61.349 169.700  35.672  0.00  0.00    -0.506 OA
ATOM     42  H   UNL     1      61.712 170.208  34.972  0.00  0.00    +0.292 HD
ENDBRANCH  35  41
ENDBRANCH  28  31
ENDBRANCH   1  28
TORSDOF 8
ENDMDL
