REMARK  Name = =
REMARK  5 active torsions:
REMARK  status: ('A' for Active; 'I' for Inactive)
REMARK    1  A    between atoms: N_1  and  N_20
REMARK    2  A    between atoms: N_4  and  C_13
REMARK    3  A    between atoms: C_10  and  O_33
REMARK    4  A    between atoms: N_20  and  N_22
REMARK    5  A    between atoms: N_21  and  C_23
REMARK                            x       y       z     vdW  Elec       q    Type
REMARK                         _______ _______ _______ _____ _____    ______ ____
ROOT
ATOM      1  N   UNL     1      53.044 156.043  27.996  0.00  0.00    -0.157 N 
ATOM      2  C   UNL     1      52.649 154.768  28.094  0.00  0.00    +0.353 A 
ATOM      3  O   UNL     1      52.086 154.355  29.164  0.00  0.00    -0.244 OA
ATOM      4  N   UNL     1      52.802 153.818  27.102  0.00  0.00    -0.253 N 
ATOM      5  C   UNL     1      53.407 154.278  25.981  0.00  0.00    +0.104 A 
ATOM      6  C   UNL     1      53.818 155.611  25.873  0.00  0.00    +0.077 A 
ATOM      7  C   UNL     1      54.409 156.129  24.732  0.00  0.00    +0.006 C 
ATOM      8  C   UNL     1      54.601 155.290  23.660  0.00  0.00    +0.003 C 
ATOM      9  C   UNL     1      54.215 153.986  23.748  0.00  0.00    +0.038 C 
ATOM     10  C   UNL     1      53.614 153.463  24.916  0.00  0.00    +0.150 C 
ATOM     11  C   UNL     1      53.626 156.483  26.902  0.00  0.00    +0.283 A 
ATOM     12  O   UNL     1      53.979 157.693  26.852  0.00  0.00    -0.265 OA
ENDROOT
BRANCH   4  13
ATOM     13  C   UNL     1      52.259 152.550  27.249  0.00  0.00    +0.265 C 
ATOM     14  N   UNL     1      52.552 151.459  26.353  0.00  0.00    -0.158 NA
ATOM     15  C   UNL     1      51.889 150.338  26.920  0.00  0.00    +0.328 C 
ATOM     16  O   UNL     1      51.788 149.211  26.375  0.00  0.00    -0.251 OA
ATOM     17  N   UNL     1      51.357 150.677  28.193  0.00  0.00    -0.235 N 
ATOM     18  C   UNL     1      51.674 152.059  28.485  0.00  0.00    +0.272 C 
ATOM     19  O   UNL     1      51.493 152.681  29.531  0.00  0.00    -0.271 OA
ATOM     20  H   UNL     1      50.854 150.070  28.782  0.00  0.00    +0.159 HD
ENDBRANCH   4  13
BRANCH   1  21
ATOM     21  N   UNL     1      52.809 156.874  29.106  0.00  0.00    -0.149 N 
ATOM     22  H   UNL     1      53.577 157.110  29.675  0.00  0.00    +0.198 HD
BRANCH  21  24
ATOM     23  N   UNL     1      51.359 158.572  29.810  0.00  0.00    -0.110 NA
ATOM     24  N   UNL     1      51.575 157.380  29.450  0.00  0.00    -0.059 NA
BRANCH  23  25
ATOM     25  C   UNL     1      50.027 158.971  30.141  0.00  0.00    +0.207 C 
ATOM     26  N   UNL     1      48.939 158.451  29.549  0.00  0.00    -0.127 NA
ATOM     27  N   UNL     1      47.714 158.835  29.871  0.00  0.00    -0.145 NA
ATOM     28  C   UNL     1      47.516 159.759  30.802  0.00  0.00    +0.122 C 
ATOM     29  C   UNL     1      48.581 160.326  31.440  0.00  0.00    +0.027 C 
ATOM     30  C   UNL     1      49.843 159.940  31.118  0.00  0.00    +0.060 C 
ATOM     31  C   UNL     1      50.906 160.506  31.755  0.00  0.00    +0.102 C 
ATOM     32  N   UNL     1      50.704 161.455  32.711  0.00  0.00    -0.242 NA
ATOM     33  C   UNL     1      49.465 161.855  33.048  0.00  0.00    +0.099 C 
ATOM     34  C   UNL     1      48.399 161.282  32.403  0.00  0.00    +0.022 C 
ENDBRANCH  23  25
ENDBRANCH  21  24
ENDBRANCH   1  21
BRANCH  10  35
ATOM     35  O   UNL     1      53.276 152.128  24.903  0.00  0.00    -0.504 OA
ATOM     36  H   UNL     1      53.441 151.610  24.140  0.00  0.00    +0.292 HD
ENDBRANCH  10  35
TORSDOF 5
REMARK  Name = =
REMARK  5 active torsions:
REMARK  status: ('A' for Active; 'I' for Inactive)
REMARK    1  A    between atoms: N_1  and  N_20
REMARK    2  A    between atoms: N_4  and  C_13
REMARK    3  A    between atoms: C_10  and  O_33
REMARK    4  A    between atoms: N_20  and  N_22
REMARK    5  A    between atoms: N_21  and  C_23
REMARK                            x       y       z     vdW  Elec       q    Type
REMARK                         _______ _______ _______ _____ _____    ______ ____
ROOT
ATOM      1  S   UNL     1      54.338 150.993  24.157  0.00  0.00    -0.043 S 
ATOM      2  O   UNL     1      55.709 151.153  24.716  0.00  0.00    -0.082 OA
ATOM      3  O   UNL     1      53.769 149.633  24.319  0.00  0.00    -0.082 OA
ATOM      4  H   UNL     1      53.516 151.876  24.784  0.00  0.00    +0.206 HD
ENDROOT
TORSDOF 0
