REMARK  Name = =
REMARK  8 active torsions:
REMARK  status: ('A' for Active; 'I' for Inactive)
REMARK    1  A    between atoms: N_1  and  C_25
REMARK    2  A    between atoms: C_2  and  C_7
REMARK    3  A    between atoms: C_7  and  O_14
REMARK    4  A    between atoms: O_14  and  C_15
REMARK    5  A    between atoms: C_16  and  O_22
REMARK    6  A    between atoms: C_19  and  O_21
REMARK    7  A    between atoms: C_25  and  C_28
REMARK    8  A    between atoms: C_32  and  O_38
REMARK                            x       y       z     vdW  Elec       q    Type
REMARK                         _______ _______ _______ _____ _____    ______ ____
ROOT
ATOM      1  N   UNL     1      52.778 155.394  27.042  0.00  0.00    -0.252 NA
ATOM      2  C   UNL     1      52.587 154.713  25.839  0.00  0.00    +0.112 C 
ATOM      3  C   UNL     1      52.245 155.543  24.617  0.00  0.00    +0.088 C 
ATOM      4  N   UNL     1      52.488 156.944  24.707  0.00  0.00    -0.295 NA
ATOM      5  C   UNL     1      52.222 157.565  25.933  0.00  0.00    +0.086 C 
ATOM      6  C   UNL     1      52.896 156.833  27.022  0.00  0.00    +0.091 C 
ATOM      7  H   UNL     1      51.911 157.401  24.001  0.00  0.00    +0.123 HD
ENDROOT
BRANCH   2   8
ATOM      8  C   UNL     1      53.798 153.877  25.349  0.00  0.00    +0.148 C 
ATOM      9  C   UNL     1      53.701 153.700  23.833  0.00  0.00    +0.041 C 
ATOM     10  C   UNL     1      55.141 153.721  23.348  0.00  0.00    +0.004 C 
ATOM     11  C   UNL     1      55.958 153.535  24.639  0.00  0.00    +0.004 C 
ATOM     12  C   UNL     1      55.113 154.545  25.455  0.00  0.00    +0.038 C 
ATOM     13  C   UNL     1      55.376 155.717  24.572  0.00  0.00    +0.004 C 
ATOM     14  C   UNL     1      55.440 155.219  23.135  0.00  0.00    +0.000 C 
BRANCH   8  15
ATOM     15  O   UNL     1      53.839 152.625  25.879  0.00  0.00    -0.478 OA
BRANCH  15  16
ATOM     16  C   UNL     1      53.577 151.334  25.695  0.00  0.00    +0.175 C 
ATOM     17  C   UNL     1      54.385 150.438  25.031  0.00  0.00    +0.168 C 
ATOM     18  C   UNL     1      54.000 149.094  24.895  0.00  0.00    +0.043 C 
ATOM     19  C   UNL     1      52.826 148.619  25.410  0.00  0.00    +0.040 C 
ATOM     20  C   UNL     1      52.015 149.484  26.072  0.00  0.00    +0.137 C 
ATOM     21  C   UNL     1      52.376 150.790  26.210  0.00  0.00    +0.077 C 
BRANCH  20  22
ATOM     22  O   UNL     1      50.803 149.008  26.610  0.00  0.00    -0.505 OA
ATOM     23  H   UNL     1      50.567 148.107  26.508  0.00  0.00    +0.292 HD
ENDBRANCH  20  22
BRANCH  17  24
ATOM     24  O   UNL     1      55.602 150.716  24.449  0.00  0.00    -0.503 OA
ATOM     25  H   UNL     1      55.950 151.585  24.484  0.00  0.00    +0.292 HD
ENDBRANCH  17  24
ENDBRANCH  15  16
ENDBRANCH   8  15
ENDBRANCH   2   8
BRANCH   1  28
ATOM     26  C   UNL     1      52.926 153.863  29.870  0.00  0.00    +0.126 C 
ATOM     27  N   UNL     1      52.840 154.906  29.238  0.00  0.00    -0.250 NA
ATOM     28  C   UNL     1      51.936 155.106  28.188  0.00  0.00    +0.142 C 
ATOM     29  C   UNL     1      51.023 153.936  28.001  0.00  0.00    +0.101 C 
ATOM     30  S   UNL     1      51.715 152.750  29.178  0.00  0.00    -0.090 S 
BRANCH  28  31
ATOM     31  C   UNL     1      51.042 156.231  28.654  0.00  0.00    +0.040 C 
ATOM     32  C   UNL     1      52.017 157.344  29.093  0.00  0.00    +0.029 C 
ATOM     33  C   UNL     1      51.396 158.384  29.895  0.00  0.00    -0.023 C 
ATOM     34  C   UNL     1      50.089 158.407  30.274  0.00  0.00    +0.008 C 
ATOM     35  C   UNL     1      49.629 159.471  31.030  0.00  0.00    +0.129 C 
ATOM     36  C   UNL     1      50.470 160.515  31.413  0.00  0.00    +0.036 C 
ATOM     37  C   UNL     1      51.784 160.482  31.027  0.00  0.00    +0.003 C 
ATOM     38  C   UNL     1      52.228 159.430  30.282  0.00  0.00    -0.004 C 
ATOM     39  C   UNL     1      49.231 157.279  29.861  0.00  0.00    +0.029 C 
ATOM     40  C   UNL     1      50.106 155.999  29.747  0.00  0.00    +0.008 C 
BRANCH  35  41
ATOM     41  O   UNL     1      48.319 159.566  31.449  0.00  0.00    -0.506 OA
ATOM     42  H   UNL     1      47.705 158.895  31.223  0.00  0.00    +0.292 HD
ENDBRANCH  35  41
ENDBRANCH  28  31
ENDBRANCH   1  28
TORSDOF 8
