REMARK  Name = =
REMARK  0 active torsions:
REMARK  status: ('A' for Active; 'I' for Inactive)
REMARK                            x       y       z     vdW  Elec       q    Type
REMARK                         _______ _______ _______ _____ _____    ______ ____
ROOT
ATOM      1  C   UNL     1      52.082 155.828  28.226  0.00  0.00    +0.001 C 
ATOM      2  C   UNL     1      52.798 156.135  27.088  0.00  0.00    +0.012 C 
ATOM      3  C   UNL     1      53.207 155.124  26.238  0.00  0.00    +0.068 C 
ATOM      4  C   UNL     1      52.934 153.793  26.465  0.00  0.00    +0.068 C 
ATOM      5  C   UNL     1      52.217 153.493  27.605  0.00  0.00    +0.012 C 
ATOM      6  C   UNL     1      51.803 154.496  28.461  0.00  0.00    +0.001 C 
ATOM      7 CL   UNL     1      53.464 152.526  25.368  0.00  0.00    -0.081 Cl
ATOM      8 CL   UNL     1      54.119 155.515  24.789  0.00  0.00    -0.081 Cl
ENDROOT
TORSDOF 0
