REMARK  Name = =
REMARK  1 active torsions:
REMARK  status: ('A' for Active; 'I' for Inactive)
REMARK    1  A    between atoms: C_1  and  C_20
REMARK                            x       y       z     vdW  Elec       q    Type
REMARK                         _______ _______ _______ _____ _____    ______ ____
ROOT
ATOM      1  C   UNL     1      51.860 155.721  27.266  0.00  0.00    +0.023 C 
ATOM      2  C   UNL     1      52.902 156.206  28.278  0.00  0.00    +0.004 C 
ATOM      3  C   UNL     1      52.391 156.838  29.502  0.00  0.00    +0.000 C 
ATOM      4  C   UNL     1      51.675 158.144  29.117  0.00  0.00    +0.001 C 
ATOM      5  C   UNL     1      50.814 158.532  30.267  0.00  0.00    +0.012 C 
ATOM      6  C   UNL     1      51.222 159.760  30.993  0.00  0.00    +0.057 C 
ATOM      7  C   UNL     1      50.396 160.908  30.377  0.00  0.00    +0.120 C 
ATOM      8  O   UNL     1      51.383 161.724  30.876  0.00  0.00    -0.356 OA
ATOM      9  C   UNL     1      52.267 160.673  30.494  0.00  0.00    +0.142 C 
ATOM     10  C   UNL     1      49.076 160.849  31.037  0.00  0.00    +0.030 C 
ATOM     11  C   UNL     1      48.678 159.368  31.102  0.00  0.00    +0.010 C 
ATOM     12  C   UNL     1      49.352 158.585  29.995  0.00  0.00    +0.058 C 
ATOM     13  C   UNL     1      48.686 157.374  29.562  0.00  0.00    +0.150 C 
ATOM     14  O   UNL     1      47.558 157.607  29.163  0.00  0.00    -0.296 OA
ATOM     15  C   UNL     1      48.902 155.884  29.420  0.00  0.00    +0.064 C 
ATOM     16  C   UNL     1      50.339 155.688  29.251  0.00  0.00    +0.008 C 
ATOM     17  C   UNL     1      50.649 155.286  28.036  0.00  0.00    +0.005 C 
ATOM     18  C   UNL     1      51.447 155.890  30.244  0.00  0.00    +0.000 C 
ENDROOT
BRANCH   1  20
ATOM     19  C   UNL     1      52.413 153.283  27.248  0.00  0.00    -0.003 C 
ATOM     20  C   UNL     1      52.558 154.516  26.679  0.00  0.00    -0.011 C 
ATOM     21  C   UNL     1      53.348 154.666  25.557  0.00  0.00    +0.064 C 
ATOM     22  C   UNL     1      54.037 153.606  24.956  0.00  0.00    +0.068 C 
ATOM     23  C   UNL     1      53.900 152.358  25.533  0.00  0.00    +0.012 C 
ATOM     24  C   UNL     1      53.095 152.189  26.663  0.00  0.00    +0.001 C 
ATOM     25 CL   UNL     1      55.112 153.741  23.608  0.00  0.00    -0.081 Cl
ATOM     26 CL   UNL     1      53.578 156.254  24.837  0.00  0.00    -0.082 Cl
ENDBRANCH   1  20
TORSDOF 1
