REMARK  Name = =
REMARK  3 active torsions:
REMARK  status: ('A' for Active; 'I' for Inactive)
REMARK    1  A    between atoms: C_1  and  C_20
REMARK    2  A    between atoms: C_19  and  C_27
REMARK    3  A    between atoms: C_27  and  C_28
REMARK                            x       y       z     vdW  Elec       q    Type
REMARK                         _______ _______ _______ _____ _____    ______ ____
ROOT
ATOM      1  C   UNL     1      50.921 158.593  29.576  0.00  0.00    +0.044 C 
ATOM      2  C   UNL     1      50.964 157.306  30.360  0.00  0.00    +0.009 C 
ATOM      3  C   UNL     1      52.030 156.320  29.844  0.00  0.00    +0.005 C 
ATOM      4  C   UNL     1      51.472 155.721  28.571  0.00  0.00    +0.001 C 
ATOM      5  C   UNL     1      52.496 155.003  27.739  0.00  0.00    +0.012 C 
ATOM      6  C   UNL     1      52.064 153.582  27.633  0.00  0.00    +0.057 C 
ATOM      7  C   UNL     1      51.629 153.098  26.311  0.00  0.00    +0.120 C 
ATOM      8  O   UNL     1      52.256 151.865  26.617  0.00  0.00    -0.356 OA
ATOM      9  C   UNL     1      53.144 152.564  27.435  0.00  0.00    +0.142 C 
ATOM     10  C   UNL     1      52.319 153.719  25.136  0.00  0.00    +0.030 C 
ATOM     11  C   UNL     1      52.238 155.216  25.229  0.00  0.00    +0.010 C 
ATOM     12  C   UNL     1      52.747 155.717  26.495  0.00  0.00    +0.058 C 
ATOM     13  C   UNL     1      53.668 156.823  26.498  0.00  0.00    +0.154 C 
ATOM     14  O   UNL     1      54.654 156.699  25.823  0.00  0.00    -0.296 OA
ATOM     15  C   UNL     1      53.671 158.188  27.189  0.00  0.00    +0.086 C 
ATOM     16  C   UNL     1      52.990 157.970  28.476  0.00  0.00    -0.041 C 
ATOM     17  C   UNL     1      51.848 158.685  28.494  0.00  0.00    -0.030 C 
ATOM     18  C   UNL     1      53.287 157.106  29.669  0.00  0.00    +0.022 C 
ENDROOT
BRANCH   1  20
ATOM     19  C   UNL     1      51.405 160.718  30.850  0.00  0.00    -0.018 C 
ATOM     20  C   UNL     1      50.577 159.685  30.448  0.00  0.00    -0.011 C 
ATOM     21  C   UNL     1      49.263 159.790  30.873  0.00  0.00    +0.064 C 
ATOM     22  C   UNL     1      48.845 160.880  31.660  0.00  0.00    +0.068 C 
ATOM     23  C   UNL     1      49.711 161.875  32.030  0.00  0.00    +0.012 C 
ATOM     24  C   UNL     1      51.007 161.790  31.619  0.00  0.00    -0.003 C 
ATOM     25 CL   UNL     1      47.173 161.001  32.190  0.00  0.00    -0.081 Cl
ATOM     26 CL   UNL     1      47.959 158.698  30.452  0.00  0.00    -0.082 Cl
BRANCH  19  27
ATOM     27  C   UNL     1      52.800 160.689  30.405  0.00  0.00    +0.090 C 
BRANCH  27  28
ATOM     28  C   UNL     1      53.603 161.800  31.071  0.00  0.00    +0.155 C 
ATOM     29  O   UNL     1      53.824 161.625  32.260  0.00  0.00    -0.296 OA
ATOM     30  C   UNL     1      54.063 162.973  30.315  0.00  0.00    +0.073 C 
ENDBRANCH  27  28
ENDBRANCH  19  27
ENDBRANCH   1  20
TORSDOF 3
