REMARK  Name = =
REMARK  7 active torsions:
REMARK  status: ('A' for Active; 'I' for Inactive)
REMARK    1  A    between atoms: C_1  and  C_27
REMARK    2  A    between atoms: C_2  and  C_9
REMARK    3  A    between atoms: C_27  and  C_28
REMARK    4  A    between atoms: C_27  and  N_31
REMARK    5  A    between atoms: N_31  and  C_33
REMARK    6  A    between atoms: C_33  and  N_34
REMARK    7  A    between atoms: N_34  and  N_35
REMARK                            x       y       z     vdW  Elec       q    Type
REMARK                         _______ _______ _______ _____ _____    ______ ____
ROOT
ATOM      1  C   UNL     1      52.757 154.482  27.542  0.00  0.00    -0.001 C 
ATOM      2  C   UNL     1      52.565 155.868  27.607  0.00  0.00    -0.013 C 
ATOM      3  C   UNL     1      52.867 156.585  26.487  0.00  0.00    +0.064 C 
ATOM      4  C   UNL     1      53.342 156.052  25.298  0.00  0.00    +0.068 C 
ATOM      5  C   UNL     1      53.523 154.699  25.235  0.00  0.00    +0.012 C 
ATOM      6  C   UNL     1      53.232 153.936  26.342  0.00  0.00    -0.002 C 
ATOM      7 CL   UNL     1      53.698 157.093  23.910  0.00  0.00    -0.081 Cl
ATOM      8 CL   UNL     1      52.670 158.302  26.504  0.00  0.00    -0.082 Cl
ENDROOT
BRANCH   2   9
ATOM      9  C   UNL     1      51.975 156.388  28.844  0.00  0.00    +0.023 C 
ATOM     10  C   UNL     1      52.617 157.480  29.552  0.00  0.00    +0.004 C 
ATOM     11  C   UNL     1      52.099 158.861  29.592  0.00  0.00    +0.000 C 
ATOM     12  C   UNL     1      51.698 159.275  31.022  0.00  0.00    +0.001 C 
ATOM     13  C   UNL     1      50.392 160.044  31.015  0.00  0.00    +0.012 C 
ATOM     14  C   UNL     1      50.668 161.429  31.488  0.00  0.00    +0.057 C 
ATOM     15  C   UNL     1      49.561 162.123  32.191  0.00  0.00    +0.120 C 
ATOM     16  O   UNL     1      50.011 161.732  33.426  0.00  0.00    -0.356 OA
ATOM     17  C   UNL     1      51.267 161.502  32.871  0.00  0.00    +0.142 C 
ATOM     18  C   UNL     1      48.201 161.532  31.881  0.00  0.00    +0.030 C 
ATOM     19  C   UNL     1      48.157 160.056  32.202  0.00  0.00    +0.010 C 
ATOM     20  C   UNL     1      49.350 159.288  31.741  0.00  0.00    +0.058 C 
ATOM     21  C   UNL     1      48.856 158.150  30.926  0.00  0.00    +0.150 C 
ATOM     22  O   UNL     1      48.489 157.245  31.689  0.00  0.00    -0.296 OA
ATOM     23  C   UNL     1      48.683 157.809  29.457  0.00  0.00    +0.064 C 
ATOM     24  C   UNL     1      50.039 157.965  28.892  0.00  0.00    +0.008 C 
ATOM     25  C   UNL     1      50.532 156.786  28.564  0.00  0.00    +0.005 C 
ATOM     26  C   UNL     1      50.917 159.145  28.674  0.00  0.00    +0.000 C 
ENDBRANCH   2   9
BRANCH   1  27
ATOM     27  C   UNL     1      52.543 153.536  28.648  0.00  0.00    +0.151 C 
BRANCH  27  28
ATOM     28  C   UNL     1      51.504 152.529  28.328  0.00  0.00    +0.173 C 
ATOM     29  O   UNL     1      51.571 151.343  28.514  0.00  0.00    -0.294 OA
ATOM     30  C   UNL     1      50.218 153.026  27.703  0.00  0.00    +0.074 C 
ENDBRANCH  27  28
BRANCH  27  31
ATOM     31  N   UNL     1      53.754 152.988  29.167  0.00  0.00    -0.307 N 
ATOM     32  H   UNL     1      53.808 152.948  30.149  0.00  0.00    +0.149 HD
BRANCH  31  34
ATOM     33  S   UNL     1      54.989 152.414  26.893  0.00  0.00    -0.017 S 
ATOM     34  C   UNL     1      54.875 152.500  28.491  0.00  0.00    +0.151 C 
BRANCH  34  35
ATOM     35  N   UNL     1      55.992 152.020  29.276  0.00  0.00    -0.218 N 
ATOM     36  H   UNL     1      56.750 151.572  28.835  0.00  0.00    +0.176 HD
BRANCH  35  37
ATOM     37  N   UNL     1      55.991 152.193  30.645  0.00  0.00    -0.177 NA
ATOM     38  C   UNL     1      56.525 153.206  31.227  0.00  0.00    +0.140 C 
ENDBRANCH  35  37
ENDBRANCH  34  35
ENDBRANCH  31  34
ENDBRANCH  27  31
ENDBRANCH   1  27
TORSDOF 7
