MODEL 1
REMARK VINA RESULT:   -10.003      0.000      0.000
REMARK INTER + INTRA:         -16.321
REMARK INTER:                 -15.265
REMARK INTRA:                  -1.056
REMARK UNBOUND:                -1.056
REMARK  Name = =
REMARK  11 active torsions:
REMARK  status: ('A' for Active; 'I' for Inactive)
REMARK    1  A    between atoms: C_1  and  O_28
REMARK    2  A    between atoms: C_2  and  C_12
REMARK    3  A    between atoms: C_6  and  O_27
REMARK    4  A    between atoms: C_8  and  O_26
REMARK    5  A    between atoms: C_14  and  O_19
REMARK    6  A    between atoms: C_15  and  O_18
REMARK    7  A    between atoms: O_19  and  C_20
REMARK    8  A    between atoms: O_28  and  N_33
REMARK    9  A    between atoms: N_29  and  O_36
REMARK   10  A    between atoms: O_36  and  S_37
REMARK   11  A    between atoms: S_37  and  O_39
REMARK                            x       y       z     vdW  Elec       q    Type
REMARK                         _______ _______ _______ _____ _____    ______ ____
ROOT
ATOM      1  C   UNL     1      -2.957  -3.254  30.135  0.00  0.00    +0.244 A 
ATOM      2  C   UNL     1      -3.600  -4.071  31.016  0.00  0.00    +0.185 A 
ATOM      3  O   UNL     1      -4.552  -3.578  31.798  0.00  0.00    -0.450 OA
ATOM      4  C   UNL     1      -4.914  -2.325  31.768  0.00  0.00    +0.155 A 
ATOM      5  C   UNL     1      -4.326  -1.403  30.907  0.00  0.00    +0.111 A 
ATOM      6  C   UNL     1      -4.723  -0.072  30.888  0.00  0.00    +0.143 C 
ATOM      7  C   UNL     1      -5.753   0.313  31.779  0.00  0.00    +0.073 C 
ATOM      8  C   UNL     1      -6.331  -0.591  32.625  0.00  0.00    +0.140 C 
ATOM      9  C   UNL     1      -5.931  -1.902  32.636  0.00  0.00    +0.074 C 
ATOM     10  C   UNL     1      -3.335  -1.907  30.090  0.00  0.00    +0.241 A 
ATOM     11  O   UNL     1      -2.750  -1.162  29.286  0.00  0.00    -0.283 OA
ENDROOT
BRANCH   2  12
ATOM     12  C   UNL     1      -3.344  -5.502  31.199  0.00  0.00    +0.041 C 
ATOM     13  C   UNL     1      -2.026  -5.949  31.220  0.00  0.00    +0.044 C 
ATOM     14  C   UNL     1      -1.736  -7.278  31.393  0.00  0.00    +0.179 C 
ATOM     15  C   UNL     1      -2.719  -8.227  31.551  0.00  0.00    +0.168 C 
ATOM     16  C   UNL     1      -4.017  -7.789  31.530  0.00  0.00    +0.040 C 
ATOM     17  C   UNL     1      -4.333  -6.432  31.355  0.00  0.00    +0.006 C 
BRANCH  15  18
ATOM     18  O   UNL     1      -2.428  -9.590  31.729  0.00  0.00    -0.503 OA
ATOM     19  H   UNL     1      -1.742  -9.850  32.312  0.00  0.00    +0.292 HD
ENDBRANCH  15  18
BRANCH  14  20
ATOM     20  O   UNL     1      -0.408  -7.641  31.402  0.00  0.00    -0.449 OA
BRANCH  20  21
ATOM     21  C   UNL     1       0.624  -6.993  32.045  0.00  0.00    +0.165 C 
ATOM     22  C   UNL     1       1.645  -6.401  31.356  0.00  0.00    +0.136 C 
ATOM     23  N   UNL     1       2.624  -5.784  32.027  0.00  0.00    -0.239 NA
ATOM     24  C   UNL     1       2.633  -5.730  33.369  0.00  0.00    +0.099 C 
ATOM     25  C   UNL     1       1.611  -6.322  34.090  0.00  0.00    +0.024 C 
ATOM     26  C   UNL     1       0.605  -6.956  33.414  0.00  0.00    +0.041 C 
ENDBRANCH  20  21
ENDBRANCH  14  20
ENDBRANCH   2  12
BRANCH   8  27
ATOM     27  O   UNL     1      -7.350  -0.237  33.517  0.00  0.00    -0.505 OA
ATOM     28  H   UNL     1      -8.185  -0.657  33.465  0.00  0.00    +0.292 HD
ENDBRANCH   8  27
BRANCH   6  29
ATOM     29  O   UNL     1      -4.166   0.826  30.065  0.00  0.00    -0.505 OA
ATOM     30  H   UNL     1      -4.185   1.737  30.284  0.00  0.00    +0.292 HD
ENDBRANCH   6  29
BRANCH   1  31
ATOM     31  O   UNL     1      -1.992  -3.719  29.328  0.00  0.00    -0.366 OA
BRANCH  31  36
ATOM     32  N   UNL     1       0.604  -2.274  27.270  0.00  0.00    -0.115 N 
ATOM     33  C   UNL     1       0.979  -1.827  28.606  0.00  0.00    +0.216 C 
ATOM     34  C   UNL     1       0.329  -2.892  29.454  0.00  0.00    +0.288 C 
ATOM     35  O   UNL     1       0.819  -3.374  30.510  0.00  0.00    -0.269 OA
ATOM     36  N   UNL     1      -0.891  -3.184  28.798  0.00  0.00    -0.046 N 
ATOM     37  C   UNL     1      -0.725  -2.799  27.428  0.00  0.00    +0.370 C 
ATOM     38  O   UNL     1      -1.582  -2.896  26.502  0.00  0.00    -0.247 OA
BRANCH  32  39
ATOM     39  O   UNL     1       1.328  -2.218  26.116  0.00  0.00    -0.110 OA
BRANCH  39  40
ATOM     40  S   UNL     1       2.505  -1.004  26.278  0.00  0.00    +0.161 S 
ATOM     41  O   UNL     1       3.786  -1.373  25.531  0.00  0.00    -0.135 OA
BRANCH  40  42
ATOM     42  O   UNL     1       1.866   0.487  25.728  0.00  0.00    -0.244 OA
ATOM     43  H   UNL     1       1.745   1.085  26.482  0.00  0.00    +0.245 HD
ENDBRANCH  40  42
ENDBRANCH  39  40
ENDBRANCH  32  39
ENDBRANCH  31  36
ENDBRANCH   1  31
TORSDOF 11
ENDMDL
