REMARK  Name = =
REMARK  1 active torsions:
REMARK  status: ('A' for Active; 'I' for Inactive)
REMARK    1  A    between atoms: C_1  and  O_7
REMARK                            x       y       z     vdW  Elec       q    Type
REMARK                         _______ _______ _______ _____ _____    ______ ____
ROOT
ATOM      1  C   UNL     1      -5.652  -2.611  32.649  0.00  0.00    +0.137 C 
ATOM      2  C   UNL     1      -5.122  -3.688  33.275  0.00  0.00    +0.057 C 
ATOM      3  C   UNL     1      -4.105  -4.383  32.625  0.00  0.00    +0.102 C 
ATOM      4  N   UNL     1      -3.664  -3.995  31.415  0.00  0.00    -0.242 NA
ATOM      5  C   UNL     1      -4.185  -2.928  30.785  0.00  0.00    +0.102 C 
ATOM      6  C   UNL     1      -5.197  -2.219  31.408  0.00  0.00    +0.057 C 
ENDROOT
BRANCH   1   7
ATOM      7  O   UNL     1      -6.668  -1.900  33.274  0.00  0.00    -0.505 OA
ATOM      8  H   UNL     1      -6.977  -2.167  34.117  0.00  0.00    +0.292 HD
ENDBRANCH   1   7
TORSDOF 1
