REMARK  Name = =
REMARK  2 active torsions:
REMARK  status: ('A' for Active; 'I' for Inactive)
REMARK    1  A    between atoms: N_1  and  C_14
REMARK    2  A    between atoms: C_10  and  O_16
REMARK                            x       y       z     vdW  Elec       q    Type
REMARK                         _______ _______ _______ _____ _____    ______ ____
ROOT
ATOM      1  N   UNL     1      -6.432  -0.500  31.136  0.00  0.00    -0.285 N 
ATOM      2  C   UNL     1      -5.698   0.608  30.497  0.00  0.00    +0.119 C 
ATOM      3  C   UNL     1      -6.625   1.753  30.825  0.00  0.00    -0.005 C 
ATOM      4  C   UNL     1      -7.892   1.255  31.030  0.00  0.00    -0.005 C 
ATOM      5  C   UNL     1      -7.811  -0.209  30.826  0.00  0.00    +0.119 C 
ATOM      6  C   UNL     1      -8.938   2.125  31.357  0.00  0.00    -0.003 C 
ATOM      7  C   UNL     1      -8.658   3.462  31.463  0.00  0.00    -0.000 C 
ATOM      8  C   UNL     1      -7.391   3.995  31.261  0.00  0.00    -0.000 C 
ATOM      9  C   UNL     1      -6.390   3.108  30.941  0.00  0.00    -0.003 C 
ENDROOT
BRANCH   1  14
ATOM     10  C   UNL     1      -6.105  -3.149  33.676  0.00  0.00    +0.138 C 
ATOM     11  C   UNL     1      -4.884  -3.646  33.304  0.00  0.00    +0.057 C 
ATOM     12  C   UNL     1      -4.189  -3.103  32.225  0.00  0.00    +0.103 C 
ATOM     13  N   UNL     1      -4.679  -2.084  31.514  0.00  0.00    -0.229 NA
ATOM     14  C   UNL     1      -5.893  -1.575  31.870  0.00  0.00    +0.135 C 
ATOM     15  C   UNL     1      -6.613  -2.083  32.931  0.00  0.00    +0.071 C 
BRANCH  10  16
ATOM     16  O   UNL     1      -6.790  -3.696  34.752  0.00  0.00    -0.505 OA
ATOM     17  H   UNL     1      -6.418  -4.411  35.229  0.00  0.00    +0.292 HD
ENDBRANCH  10  16
ENDBRANCH   1  14
TORSDOF 2
