REMARK  Name = =
REMARK  3 active torsions:
REMARK  status: ('A' for Active; 'I' for Inactive)
REMARK    1  A    between atoms: C_1  and  O_16
REMARK    2  A    between atoms: C_5  and  N_7
REMARK    3  A    between atoms: O_16  and  N_17
REMARK                            x       y       z     vdW  Elec       q    Type
REMARK                         _______ _______ _______ _____ _____    ______ ____
ROOT
ATOM      1  C   UNL     1      -9.576   0.194  27.634  0.00  0.00    +0.170 C 
ATOM      2  C   UNL     1      -9.398   0.951  28.774  0.00  0.00    +0.060 C 
ATOM      3  C   UNL     1     -10.418   1.100  29.688  0.00  0.00    +0.104 C 
ATOM      4  N   UNL     1     -11.597   0.499  29.466  0.00  0.00    -0.229 NA
ATOM      5  C   UNL     1     -11.847  -0.257  28.380  0.00  0.00    +0.135 C 
ATOM      6  C   UNL     1     -10.814  -0.394  27.473  0.00  0.00    +0.074 C 
ENDROOT
BRANCH   5   7
ATOM      7  N   UNL     1     -13.106  -0.869  28.190  0.00  0.00    -0.285 N 
ATOM      8  C   UNL     1     -14.328  -0.202  27.869  0.00  0.00    +0.119 C 
ATOM      9  C   UNL     1     -15.099  -1.204  27.112  0.00  0.00    -0.005 C 
ATOM     10  C   UNL     1     -14.558  -2.446  27.349  0.00  0.00    -0.005 C 
ATOM     11  C   UNL     1     -13.389  -2.287  28.286  0.00  0.00    +0.119 C 
ATOM     12  C   UNL     1     -15.114  -3.564  26.746  0.00  0.00    -0.003 C 
ATOM     13  C   UNL     1     -16.200  -3.474  25.908  0.00  0.00    -0.000 C 
ATOM     14  C   UNL     1     -16.735  -2.226  25.677  0.00  0.00    -0.000 C 
ATOM     15  C   UNL     1     -16.200  -1.098  26.266  0.00  0.00    -0.003 C 
ENDBRANCH   5   7
BRANCH   1  16
ATOM     16  O   UNL     1      -8.551   0.037  26.700  0.00  0.00    -0.401 OA
BRANCH  16  17
ATOM     17  N   UNL     1      -8.639   0.445  25.409  0.00  0.00    -0.118 NA
ATOM     18  C   UNL     1      -9.450  -0.347  24.565  0.00  0.00    +0.130 C 
ATOM     19  C   UNL     1      -8.736  -1.395  23.776  0.00  0.00    +0.090 C 
ATOM     20  N   UNL     1      -7.374  -1.039  23.447  0.00  0.00    -0.295 NA
ATOM     21  C   UNL     1      -7.225   0.400  23.467  0.00  0.00    +0.090 C 
ATOM     22  C   UNL     1      -7.456   0.977  24.848  0.00  0.00    +0.130 C 
ATOM     23  H   UNL     1      -6.741  -1.454  24.130  0.00  0.00    +0.123 HD
ENDBRANCH  16  17
ENDBRANCH   1  16
TORSDOF 3
