REMARK  Name = =
REMARK  4 active torsions:
REMARK  status: ('A' for Active; 'I' for Inactive)
REMARK    1  A    between atoms: C_1  and  O_18
REMARK    2  A    between atoms: C_5  and  N_7
REMARK    3  A    between atoms: C_8  and  C_16
REMARK    4  A    between atoms: O_18  and  N_19
REMARK                            x       y       z     vdW  Elec       q    Type
REMARK                         _______ _______ _______ _____ _____    ______ ____
ROOT
ATOM      1  C   UNL     1     -15.165  -1.054  23.066  0.00  0.00    +0.170 C 
ATOM      2  C   UNL     1     -16.010  -1.027  24.155  0.00  0.00    +0.060 C 
ATOM      3  C   UNL     1     -15.998  -2.118  24.997  0.00  0.00    +0.104 C 
ATOM      4  N   UNL     1     -15.206  -3.179  24.789  0.00  0.00    -0.229 NA
ATOM      5  C   UNL     1     -14.373  -3.242  23.743  0.00  0.00    +0.136 C 
ATOM      6  C   UNL     1     -14.364  -2.163  22.883  0.00  0.00    +0.074 C 
ENDROOT
BRANCH   5   7
ATOM      7  N   UNL     1     -13.538  -4.373  23.533  0.00  0.00    -0.275 N 
ATOM      8  C   UNL     1     -13.493  -5.558  24.364  0.00  0.00    +0.189 C 
ATOM      9  C   UNL     1     -12.154  -6.099  24.129  0.00  0.00    +0.008 C 
ATOM     10  C   UNL     1     -11.603  -5.510  23.007  0.00  0.00    -0.004 C 
ATOM     11  C   UNL     1     -12.596  -4.536  22.461  0.00  0.00    +0.120 C 
ATOM     12  C   UNL     1     -10.337  -5.846  22.561  0.00  0.00    -0.003 C 
ATOM     13  C   UNL     1      -9.592  -6.791  23.242  0.00  0.00    -0.000 C 
ATOM     14  C   UNL     1     -10.116  -7.399  24.368  0.00  0.00    -0.000 C 
ATOM     15  C   UNL     1     -11.397  -7.039  24.795  0.00  0.00    -0.002 C 
BRANCH   8  16
ATOM     16  C   UNL     1     -14.515  -6.473  23.848  0.00  0.00    +0.097 C 
ATOM     17  N   UNL     1     -15.322  -7.195  23.419  0.00  0.00    -0.194 NA
ENDBRANCH   8  16
ENDBRANCH   5   7
BRANCH   1  18
ATOM     18  O   UNL     1     -15.145   0.007  22.204  0.00  0.00    -0.401 OA
BRANCH  18  19
ATOM     19  N   UNL     1     -15.471  -0.031  20.879  0.00  0.00    -0.118 NA
ATOM     20  C   UNL     1     -16.773   0.530  20.603  0.00  0.00    +0.130 C 
ATOM     21  C   UNL     1     -16.653   1.872  19.910  0.00  0.00    +0.090 C 
ATOM     22  N   UNL     1     -16.068   1.638  18.613  0.00  0.00    -0.295 NA
ATOM     23  C   UNL     1     -14.984   0.707  18.635  0.00  0.00    +0.090 C 
ATOM     24  C   UNL     1     -14.440   0.432  20.010  0.00  0.00    +0.130 C 
ATOM     25  H   UNL     1     -16.792   1.275  17.993  0.00  0.00    +0.123 HD
ENDBRANCH  18  19
ENDBRANCH   1  18
TORSDOF 4
