REMARK  Name = =
REMARK  6 active torsions:
REMARK  status: ('A' for Active; 'I' for Inactive)
REMARK    1  A    between atoms: C_1  and  O_18
REMARK    2  A    between atoms: C_5  and  N_7
REMARK    3  A    between atoms: C_8  and  C_16
REMARK    4  A    between atoms: O_18  and  N_19
REMARK    5  A    between atoms: C_20  and  C_25
REMARK    6  A    between atoms: C_25  and  O_27
REMARK                            x       y       z     vdW  Elec       q    Type
REMARK                         _______ _______ _______ _____ _____    ______ ____
ROOT
ATOM      1  C   UNL     1     -14.092   1.222  24.051  0.00  0.00    +0.170 C 
ATOM      2  C   UNL     1     -14.162   2.564  23.739  0.00  0.00    +0.060 C 
ATOM      3  C   UNL     1     -13.862   3.527  24.691  0.00  0.00    +0.104 C 
ATOM      4  N   UNL     1     -13.504   3.129  25.915  0.00  0.00    -0.229 NA
ATOM      5  C   UNL     1     -13.412   1.845  26.299  0.00  0.00    +0.136 C 
ATOM      6  C   UNL     1     -13.715   0.894  25.338  0.00  0.00    +0.074 C 
ENDROOT
BRANCH   5   7
ATOM      7  N   UNL     1     -13.025   1.475  27.621  0.00  0.00    -0.275 N 
ATOM      8  C   UNL     1     -12.190   2.242  28.510  0.00  0.00    +0.189 C 
ATOM      9  C   UNL     1     -11.351   1.191  29.148  0.00  0.00    +0.008 C 
ATOM     10  C   UNL     1     -12.061   0.014  29.057  0.00  0.00    -0.004 C 
ATOM     11  C   UNL     1     -13.370   0.274  28.355  0.00  0.00    +0.120 C 
ATOM     12  C   UNL     1     -11.516  -1.140  29.576  0.00  0.00    -0.003 C 
ATOM     13  C   UNL     1     -10.265  -1.121  30.184  0.00  0.00    -0.000 C 
ATOM     14  C   UNL     1      -9.577   0.077  30.260  0.00  0.00    -0.000 C 
ATOM     15  C   UNL     1     -10.092   1.243  29.754  0.00  0.00    -0.002 C 
BRANCH   8  16
ATOM     16  C   UNL     1     -12.998   2.959  29.514  0.00  0.00    +0.097 C 
ATOM     17  N   UNL     1     -13.652   3.526  30.295  0.00  0.00    -0.194 NA
ENDBRANCH   8  16
ENDBRANCH   5   7
BRANCH   1  18
ATOM     18  O   UNL     1     -14.391   0.224  23.104  0.00  0.00    -0.401 OA
BRANCH  18  19
ATOM     19  N   UNL     1     -15.492   0.405  22.313  0.00  0.00    -0.117 NA
ATOM     20  C   UNL     1     -16.681  -0.192  22.837  0.00  0.00    +0.138 C 
ATOM     21  C   UNL     1     -17.255  -1.202  21.864  0.00  0.00    +0.091 C 
ATOM     22  N   UNL     1     -16.206  -2.163  21.516  0.00  0.00    -0.295 NA
ATOM     23  C   UNL     1     -15.129  -1.479  20.813  0.00  0.00    +0.090 C 
ATOM     24  C   UNL     1     -15.246   0.021  20.936  0.00  0.00    +0.130 C 
ATOM     25  H   UNL     1     -16.596  -2.889  20.915  0.00  0.00    +0.123 HD
BRANCH  20  26
ATOM     26  C   UNL     1     -17.698   0.895  23.103  0.00  0.00    +0.130 C 
ATOM     27  C   UNL     1     -17.817   1.220  24.571  0.00  0.00    +0.033 C 
BRANCH  26  28
ATOM     28  O   UNL     1     -17.392   2.074  22.431  0.00  0.00    -0.383 OA
ATOM     29  H   UNL     1     -17.310   1.893  21.482  0.00  0.00    +0.210 HD
ENDBRANCH  26  28
ENDBRANCH  20  26
ENDBRANCH  18  19
ENDBRANCH   1  18
TORSDOF 6
