REMARK  Name = =
REMARK  7 active torsions:
REMARK  status: ('A' for Active; 'I' for Inactive)
REMARK    1  A    between atoms: C_1  and  O_20
REMARK    2  A    between atoms: C_3  and  C_18
REMARK    3  A    between atoms: C_5  and  N_7
REMARK    4  A    between atoms: C_8  and  C_16
REMARK    5  A    between atoms: O_20  and  N_21
REMARK    6  A    between atoms: C_22  and  C_27
REMARK    7  A    between atoms: C_27  and  O_29
REMARK                            x       y       z     vdW  Elec       q    Type
REMARK                         _______ _______ _______ _____ _____    ______ ____
ROOT
ATOM      1  C   UNL     1     -14.342   0.078  28.016  0.00  0.00    +0.170 C 
ATOM      2  C   UNL     1     -13.594  -0.217  29.127  0.00  0.00    +0.060 C 
ATOM      3  C   UNL     1     -12.906  -1.399  29.213  0.00  0.00    +0.104 C 
ATOM      4  N   UNL     1     -13.028  -2.246  28.113  0.00  0.00    -0.229 NA
ATOM      5  C   UNL     1     -13.736  -2.007  27.019  0.00  0.00    +0.136 C 
ATOM      6  C   UNL     1     -14.417  -0.826  26.946  0.00  0.00    +0.074 C 
ENDROOT
BRANCH   5   7
ATOM      7  N   UNL     1     -13.685  -2.998  25.995  0.00  0.00    -0.275 N 
ATOM      8  C   UNL     1     -14.785  -3.723  25.433  0.00  0.00    +0.189 C 
ATOM      9  C   UNL     1     -14.184  -4.923  24.816  0.00  0.00    +0.008 C 
ATOM     10  C   UNL     1     -12.809  -4.811  24.781  0.00  0.00    -0.004 C 
ATOM     11  C   UNL     1     -12.477  -3.469  25.363  0.00  0.00    +0.120 C 
ATOM     12  C   UNL     1     -12.021  -5.802  24.267  0.00  0.00    -0.003 C 
ATOM     13  C   UNL     1     -12.572  -6.994  23.739  0.00  0.00    -0.000 C 
ATOM     14  C   UNL     1     -13.937  -7.084  23.784  0.00  0.00    -0.000 C 
ATOM     15  C   UNL     1     -14.702  -6.079  24.304  0.00  0.00    -0.002 C 
BRANCH   8  16
ATOM     16  C   UNL     1     -15.714  -4.183  26.512  0.00  0.00    +0.097 C 
ATOM     17  N   UNL     1     -16.425  -4.554  27.338  0.00  0.00    -0.194 NA
ENDBRANCH   8  16
ENDBRANCH   5   7
BRANCH   3  18
ATOM     18  C   UNL     1     -12.130  -1.811  30.254  0.00  0.00    +0.108 C 
ATOM     19  N   UNL     1     -11.749  -1.443  31.400  0.00  0.00    -0.295 NA
ATOM     20  H   UNL     1     -11.146  -2.017  31.926  0.00  0.00    +0.187 HD
ENDBRANCH   3  18
BRANCH   1  21
ATOM     21  O   UNL     1     -15.021   1.262  27.941  0.00  0.00    -0.401 OA
BRANCH  21  22
ATOM     22  N   UNL     1     -14.547   2.419  27.466  0.00  0.00    -0.117 NA
ATOM     23  C   UNL     1     -15.374   3.566  27.552  0.00  0.00    +0.138 C 
ATOM     24  C   UNL     1     -14.820   4.555  28.523  0.00  0.00    +0.091 C 
ATOM     25  N   UNL     1     -13.472   4.916  28.217  0.00  0.00    -0.295 NA
ATOM     26  C   UNL     1     -12.637   3.767  28.221  0.00  0.00    +0.090 C 
ATOM     27  C   UNL     1     -13.160   2.616  27.422  0.00  0.00    +0.130 C 
ATOM     28  H   UNL     1     -13.442   5.350  27.294  0.00  0.00    +0.123 HD
BRANCH  23  29
ATOM     29  C   UNL     1     -15.638   4.093  26.174  0.00  0.00    +0.130 C 
ATOM     30  C   UNL     1     -16.703   5.142  26.106  0.00  0.00    +0.033 C 
BRANCH  29  31
ATOM     31  O   UNL     1     -14.478   4.606  25.589  0.00  0.00    -0.383 OA
ATOM     32  H   UNL     1     -13.775   3.938  25.624  0.00  0.00    +0.210 HD
ENDBRANCH  29  31
ENDBRANCH  23  29
ENDBRANCH  21  22
ENDBRANCH   1  21
TORSDOF 7
