REMARK  Name = =
REMARK  9 active torsions:
REMARK  status: ('A' for Active; 'I' for Inactive)
REMARK    1  A    between atoms: C_1  and  O_20
REMARK    2  A    between atoms: C_3  and  C_18
REMARK    3  A    between atoms: C_5  and  N_7
REMARK    4  A    between atoms: C_8  and  C_16
REMARK    5  A    between atoms: C_18  and  N_19
REMARK    6  A    between atoms: O_20  and  N_21
REMARK    7  A    between atoms: C_22  and  C_27
REMARK    8  A    between atoms: C_27  and  C_29
REMARK    9  A    between atoms: C_27  and  O_35
REMARK                            x       y       z     vdW  Elec       q    Type
REMARK                         _______ _______ _______ _____ _____    ______ ____
ROOT
ATOM      1  C   UNL     1     -13.934   1.598  27.140  0.00  0.00    +0.169 C 
ATOM      2  C   UNL     1     -14.450   2.549  27.963  0.00  0.00    +0.056 C 
ATOM      3  C   UNL     1     -13.756   2.904  29.231  0.00  0.00    +0.081 C 
ATOM      4  N   UNL     1     -12.687   2.197  29.366  0.00  0.00    -0.233 NA
ATOM      5  C   UNL     1     -12.093   1.262  28.644  0.00  0.00    +0.136 C 
ATOM      6  C   UNL     1     -12.750   0.941  27.461  0.00  0.00    +0.074 C 
ENDROOT
BRANCH   5   7
ATOM      7  N   UNL     1     -10.920   0.673  29.152  0.00  0.00    -0.275 N 
ATOM      8  C   UNL     1     -10.753  -0.597  29.756  0.00  0.00    +0.189 C 
ATOM      9  C   UNL     1      -9.624  -0.397  30.701  0.00  0.00    +0.008 C 
ATOM     10  C   UNL     1      -8.983   0.788  30.371  0.00  0.00    -0.004 C 
ATOM     11  C   UNL     1      -9.630   1.352  29.189  0.00  0.00    +0.120 C 
ATOM     12  C   UNL     1      -7.938   1.159  31.175  0.00  0.00    -0.003 C 
ATOM     13  C   UNL     1      -7.473   0.455  32.269  0.00  0.00    -0.000 C 
ATOM     14  C   UNL     1      -8.161  -0.746  32.550  0.00  0.00    -0.000 C 
ATOM     15  C   UNL     1      -9.194  -1.118  31.766  0.00  0.00    -0.002 C 
BRANCH   8  16
ATOM     16  C   UNL     1     -10.629  -1.763  28.933  0.00  0.00    +0.097 C 
ATOM     17  N   UNL     1     -10.530  -2.744  28.265  0.00  0.00    -0.194 NA
ENDBRANCH   8  16
ENDBRANCH   5   7
BRANCH   3  18
ATOM     18  C   UNL     1     -14.479   3.865  29.953  0.00  0.00    +0.130 C 
BRANCH  18  19
ATOM     19  N   UNL     1     -13.900   4.089  31.218  0.00  0.00    -0.239 NA
ATOM     20  H   UNL     1     -14.444   4.790  31.721  0.00  0.00    +0.142 HD
ENDBRANCH  18  19
ENDBRANCH   3  18
BRANCH   1  21
ATOM     21  O   UNL     1     -14.561   1.263  26.010  0.00  0.00    -0.401 OA
BRANCH  21  22
ATOM     22  N   UNL     1     -14.204   0.795  24.788  0.00  0.00    -0.117 NA
ATOM     23  C   UNL     1     -15.426   0.275  24.235  0.00  0.00    +0.141 C 
ATOM     24  C   UNL     1     -16.500   1.322  24.499  0.00  0.00    +0.091 C 
ATOM     25  N   UNL     1     -16.120   2.481  23.762  0.00  0.00    -0.295 NA
ATOM     26  C   UNL     1     -14.804   2.964  23.834  0.00  0.00    +0.090 C 
ATOM     27  C   UNL     1     -13.723   1.964  24.058  0.00  0.00    +0.130 C 
ATOM     28  H   UNL     1     -16.305   2.278  22.780  0.00  0.00    +0.123 HD
BRANCH  23  29
ATOM     29  C   UNL     1     -15.409  -0.132  22.808  0.00  0.00    +0.143 C 
ATOM     30  C   UNL     1     -14.064   0.274  22.185  0.00  0.00    +0.037 C 
BRANCH  29  31
ATOM     31  C   UNL     1     -16.451   0.493  21.961  0.00  0.00    +0.106 C 
ATOM     32  N   UNL     1     -17.747   0.409  22.198  0.00  0.00    -0.150 NA
ATOM     33  N   UNL     1     -18.590   1.000  21.324  0.00  0.00    -0.147 NA
ATOM     34  C   UNL     1     -18.207   1.664  20.239  0.00  0.00    +0.122 C 
ATOM     35  C   UNL     1     -16.834   1.772  19.966  0.00  0.00    +0.024 C 
ATOM     36  C   UNL     1     -15.987   1.169  20.862  0.00  0.00    +0.021 C 
ENDBRANCH  29  31
BRANCH  29  37
ATOM     37  O   UNL     1     -15.559  -1.498  22.702  0.00  0.00    -0.380 OA
ATOM     38  H   UNL     1     -14.889  -1.940  23.247  0.00  0.00    +0.211 HD
ENDBRANCH  29  37
ENDBRANCH  23  29
ENDBRANCH  21  22
ENDBRANCH   1  21
TORSDOF 9
