REMARK  Name = =
REMARK  6 active torsions:
REMARK  status: ('A' for Active; 'I' for Inactive)
REMARK    1  A    between atoms: C_1  and  C_11
REMARK    2  A    between atoms: C_5  and  O_13
REMARK    3  A    between atoms: C_6  and  O_12
REMARK    4  A    between atoms: O_13  and  P_14
REMARK    5  A    between atoms: P_14  and  O_16
REMARK    6  A    between atoms: P_14  and  O_17
REMARK                            x       y       z     vdW  Elec       q    Type
REMARK                         _______ _______ _______ _____ _____    ______ ____
ROOT
ATOM      1  C   UNL     1      52.942 154.763  27.553  0.00  0.00    +0.053 C 
ATOM      2  C   UNL     1      51.541 155.278  27.660  0.00  0.00    +0.007 C 
ATOM      3  C   UNL     1      50.994 154.655  28.944  0.00  0.00    +0.003 C 
ATOM      4  C   UNL     1      51.667 153.306  28.975  0.00  0.00    +0.030 C 
ATOM      5  C   UNL     1      53.039 153.545  28.358  0.00  0.00    +0.128 C 
ENDROOT
BRANCH   1  11
ATOM      6  C   UNL     1      53.870 153.794  25.439  0.00  0.00    +0.149 C 
ATOM      7  C   UNL     1      54.545 153.995  24.258  0.00  0.00    +0.135 C 
ATOM      8  N   UNL     1      54.914 155.246  23.832  0.00  0.00    -0.239 NA
ATOM      9  C   UNL     1      54.608 156.309  24.592  0.00  0.00    +0.099 C 
ATOM     10  C   UNL     1      53.941 156.170  25.763  0.00  0.00    +0.019 C 
ATOM     11  C   UNL     1      53.543 154.899  26.232  0.00  0.00    +0.017 C 
BRANCH   6  12
ATOM     12  O   UNL     1      53.512 152.510  25.823  0.00  0.00    -0.504 OA
ATOM     13  H   UNL     1      53.052 152.373  26.628  0.00  0.00    +0.292 HD
ENDBRANCH   6  12
ENDBRANCH   1  11
BRANCH   5  14
ATOM     14  O   UNL     1      53.847 153.819  29.527  0.00  0.00    -0.300 OA
BRANCH  14  15
ATOM     15  P   UNL     1      55.176 152.802  29.490  0.00  0.00    +0.304 P 
ATOM     16  S   UNL     1      54.792 151.383  30.414  0.00  0.00    +0.022 S 
BRANCH  15  17
ATOM     17  O   UNL     1      56.497 153.596  30.239  0.00  0.00    -0.327 OA
ATOM     18  H   UNL     1      56.268 153.809  31.157  0.00  0.00    +0.219 HD
ENDBRANCH  15  17
BRANCH  15  19
ATOM     19  O   UNL     1      55.553 152.420  27.884  0.00  0.00    -0.327 OA
ATOM     20  H   UNL     1      55.762 153.233  27.399  0.00  0.00    +0.219 HD
ENDBRANCH  15  19
ENDBRANCH  14  15
ENDBRANCH   5  14
TORSDOF 6
