REMARK  Name = =
REMARK  6 active torsions:
REMARK  status: ('A' for Active; 'I' for Inactive)
REMARK    1  A    between atoms: C_1  and  C_11
REMARK    2  A    between atoms: C_5  and  O_13
REMARK    3  A    between atoms: C_6  and  O_12
REMARK    4  A    between atoms: O_13  and  P_14
REMARK    5  A    between atoms: P_14  and  O_16
REMARK    6  A    between atoms: P_14  and  O_17
REMARK                            x       y       z     vdW  Elec       q    Type
REMARK                         _______ _______ _______ _____ _____    ______ ____
ROOT
ATOM      1  C   UNL     1      52.908 153.234  24.973  0.00  0.00    +0.053 C 
ATOM      2  C   UNL     1      53.087 152.471  23.693  0.00  0.00    +0.007 C 
ATOM      3  C   UNL     1      54.536 152.074  23.678  0.00  0.00    +0.003 C 
ATOM      4  C   UNL     1      54.815 151.769  25.134  0.00  0.00    +0.030 C 
ATOM      5  C   UNL     1      53.770 152.452  25.975  0.00  0.00    +0.128 C 
ENDROOT
BRANCH   1  11
ATOM      6  C   UNL     1      52.629 155.601  25.462  0.00  0.00    +0.149 C 
ATOM      7  C   UNL     1      53.108 156.873  25.515  0.00  0.00    +0.135 C 
ATOM      8  N   UNL     1      54.310 157.256  24.994  0.00  0.00    -0.239 NA
ATOM      9  C   UNL     1      55.057 156.288  24.386  0.00  0.00    +0.099 C 
ATOM     10  C   UNL     1      54.584 155.025  24.332  0.00  0.00    +0.019 C 
ATOM     11  C   UNL     1      53.401 154.598  24.834  0.00  0.00    +0.017 C 
BRANCH   6  12
ATOM     12  O   UNL     1      51.406 155.295  26.011  0.00  0.00    -0.504 OA
ATOM     13  H   UNL     1      50.898 155.964  26.426  0.00  0.00    +0.292 HD
ENDBRANCH   6  12
ENDBRANCH   1  11
BRANCH   5  14
ATOM     14  O   UNL     1      54.325 153.170  26.958  0.00  0.00    -0.299 OA
BRANCH  14  15
ATOM     15  P   UNL     1      53.487 153.495  28.342  0.00  0.00    +0.326 P 
ATOM     16  S   UNL     1      53.357 155.221  28.630  0.00  0.00    +0.024 S 
BRANCH  15  17
ATOM     17  O   UNL     1      54.392 152.870  29.663  0.00  0.00    -0.326 OA
ATOM     18  H   UNL     1      54.497 151.911  29.558  0.00  0.00    +0.220 HD
ENDBRANCH  15  17
BRANCH  15  19
ATOM     19  O   UNL     1      51.963 152.816  28.472  0.00  0.00    -0.182 OA
ATOM     20  N   UNL     1      51.522 153.185  29.682  0.00  0.00    +0.049 NA
ENDBRANCH  15  19
ENDBRANCH  14  15
ENDBRANCH   5  14
TORSDOF 6
