MODEL 1
REMARK VINA RESULT:    -6.460      0.000      0.000
REMARK INTER + INTRA:         -12.541
REMARK INTER:                 -10.048
REMARK INTRA:                  -2.493
REMARK UNBOUND:                -2.493
REMARK  Name = =
REMARK  12 active torsions:
REMARK  status: ('A' for Active; 'I' for Inactive)
REMARK    1  A    between atoms: N_1  and  C_3
REMARK    2  A    between atoms: N_1  and  C_13
REMARK    3  A    between atoms: N_1  and  S_22
REMARK    4  A    between atoms: C_9  and  O_12
REMARK    5  A    between atoms: C_16  and  C_19
REMARK    6  A    between atoms: C_19  and  O_21
REMARK    7  A    between atoms: S_22  and  O_25
REMARK    8  A    between atoms: O_25  and  C_26
REMARK    9  A    between atoms: C_26  and  C_28
REMARK   10  A    between atoms: C_30  and  O_36
REMARK   11  A    between atoms: C_31  and  O_35
REMARK   12  A    between atoms: C_32  and  O_34
REMARK                            x       y       z     vdW  Elec       q    Type
REMARK                         _______ _______ _______ _____ _____    ______ ____
ROOT
ATOM      1  N   UNL     1      60.728 163.901  38.391  0.00  0.00    -0.145 N 
ENDROOT
BRANCH   1   3
ATOM      2  O   UNL     1      59.617 162.335  39.816  0.00  0.00    -0.459 OA
ATOM      3  C   UNL     1      59.707 162.883  38.532  0.00  0.00    +0.264 C 
ATOM      4  C   UNL     1      59.949 161.845  37.466  0.00  0.00    +0.072 C 
ATOM      5  C   UNL     1      59.118 160.605  37.681  0.00  0.00    +0.035 C 
ATOM      6  C   UNL     1      59.110 160.139  39.068  0.00  0.00    +0.012 C 
ATOM      7  C   UNL     1      59.360 161.026  40.086  0.00  0.00    +0.140 C 
ATOM      8  C   UNL     1      59.353 160.581  41.424  0.00  0.00    +0.073 C 
ATOM      9  C   UNL     1      59.098 159.267  41.707  0.00  0.00    +0.137 C 
ATOM     10  C   UNL     1      58.849 158.399  40.671  0.00  0.00    +0.036 C 
ATOM     11  C   UNL     1      58.852 158.818  39.354  0.00  0.00    +0.002 C 
BRANCH   9  12
ATOM     12  O   UNL     1      59.084 158.802  42.999  0.00  0.00    -0.505 OA
ATOM     13  H   UNL     1      58.328 158.354  43.327  0.00  0.00    +0.292 HD
ENDBRANCH   9  12
ENDBRANCH   1   3
BRANCH   1  14
ATOM     14  C   UNL     1      60.577 165.002  37.517  0.00  0.00    +0.073 C 
ATOM     15  C   UNL     1      60.474 166.284  37.983  0.00  0.00    +0.016 C 
ATOM     16  C   UNL     1      60.332 167.333  37.104  0.00  0.00    +0.008 C 
ATOM     17  C   UNL     1      60.289 167.126  35.746  0.00  0.00    +0.076 C 
ATOM     18  C   UNL     1      60.393 165.840  35.281  0.00  0.00    +0.008 C 
ATOM     19  C   UNL     1      60.539 164.764  36.161  0.00  0.00    +0.016 C 
BRANCH  17  20
ATOM     20  C   UNL     1      60.138 168.227  34.794  0.00  0.00    +0.338 C 
ATOM     21  O   UNL     1      60.975 169.163  34.761  0.00  0.00    -0.245 OA
BRANCH  20  22
ATOM     22  O   UNL     1      59.053 168.199  33.943  0.00  0.00    -0.477 OA
ATOM     23  H   UNL     1      58.185 168.275  34.288  0.00  0.00    +0.295 HD
ENDBRANCH  20  22
ENDBRANCH  17  20
ENDBRANCH   1  14
BRANCH   1  24
ATOM     24  S   UNL     1      62.169 163.722  39.331  0.00  0.00    +0.112 S 
ATOM     25  O   UNL     1      61.820 164.080  40.747  0.00  0.00    -0.042 OA
ATOM     26  O   UNL     1      62.658 162.309  39.348  0.00  0.00    -0.042 OA
BRANCH  24  27
ATOM     27  O   UNL     1      63.375 164.808  38.832  0.00  0.00    -0.304 OA
BRANCH  27  28
ATOM     28  C   UNL     1      64.122 164.672  37.701  0.00  0.00    +0.366 C 
ATOM     29  O   UNL     1      64.923 163.719  37.604  0.00  0.00    -0.243 OA
BRANCH  28  30
ATOM     30  C   UNL     1      64.030 165.597  36.578  0.00  0.00    +0.084 C 
ATOM     31  C   UNL     1      63.942 166.967  36.835  0.00  0.00    +0.046 C 
ATOM     32  C   UNL     1      63.855 167.864  35.795  0.00  0.00    +0.171 C 
ATOM     33  C   UNL     1      63.855 167.394  34.502  0.00  0.00    +0.202 C 
ATOM     34  C   UNL     1      63.940 166.043  34.206  0.00  0.00    +0.171 C 
ATOM     35  C   UNL     1      64.026 165.176  35.269  0.00  0.00    +0.046 C 
BRANCH  34  36
ATOM     36  O   UNL     1      63.937 165.605  32.879  0.00  0.00    -0.503 OA
ATOM     37  H   UNL     1      64.724 165.645  32.371  0.00  0.00    +0.292 HD
ENDBRANCH  34  36
BRANCH  33  38
ATOM     38  O   UNL     1      63.765 168.318  33.449  0.00  0.00    -0.501 OA
ATOM     39  H   UNL     1      64.238 169.126  33.493  0.00  0.00    +0.292 HD
ENDBRANCH  33  38
BRANCH  32  40
ATOM     40  O   UNL     1      63.767 169.220  36.025  0.00  0.00    -0.503 OA
ATOM     41  H   UNL     1      63.998 169.825  35.349  0.00  0.00    +0.292 HD
ENDBRANCH  32  40
ENDBRANCH  28  30
ENDBRANCH  27  28
ENDBRANCH  24  27
ENDBRANCH   1  24
TORSDOF 12
ENDMDL
