REMARK  Name = =
REMARK  4 active torsions:
REMARK  status: ('A' for Active; 'I' for Inactive)
REMARK    1  A    between atoms: C_1  and  O_8
REMARK    2  A    between atoms: C_2  and  C_9
REMARK    3  A    between atoms: C_5  and  O_11
REMARK    4  A    between atoms: O_11  and  O_12
REMARK                            x       y       z     vdW  Elec       q    Type
REMARK                         _______ _______ _______ _____ _____    ______ ____
ROOT
ATOM      1  C   UNL     1      50.297 159.086  30.623  0.00  0.00    +0.145 C 
ATOM      2  C   UNL     1      49.188 159.714  31.136  0.00  0.00    +0.076 C 
ATOM      3  C   UNL     1      49.341 160.907  31.849  0.00  0.00    +0.010 C 
ATOM      4  C   UNL     1      50.569 161.486  32.063  0.00  0.00    +0.041 C 
ATOM      5  C   UNL     1      51.668 160.838  31.540  0.00  0.00    +0.186 C 
ATOM      6  C   UNL     1      51.535 159.661  30.834  0.00  0.00    +0.078 C 
ENDROOT
BRANCH   1   8
ATOM      7  C   UNL     1      51.358 157.261  29.421  0.00  0.00    +0.252 C 
ATOM      8  O   UNL     1      50.199 157.900  29.908  0.00  0.00    -0.471 OA
ENDBRANCH   1   8
BRANCH   2   9
ATOM      9  C   UNL     1      47.882 159.135  30.931  0.00  0.00    +0.237 C 
ATOM     10  O   UNL     1      46.947 159.439  31.702  0.00  0.00    -0.283 OA
ENDBRANCH   2   9
BRANCH   5  11
ATOM     11  O   UNL     1      52.912 161.439  31.765  0.00  0.00    -0.333 OA
BRANCH  11  12
ATOM     12  O   UNL     1      53.787 161.596  30.775  0.00  0.00    -0.170 OA
ATOM     13  C   UNL     1      53.879 162.915  30.350  0.00  0.00    +0.232 C 
ENDBRANCH  11  12
ENDBRANCH   5  11
TORSDOF 4
