MODEL 1
REMARK VINA RESULT:   -12.680      0.000      0.000
REMARK INTER + INTRA:         -18.935
REMARK INTER:                 -18.610
REMARK INTRA:                  -0.325
REMARK UNBOUND:                -0.325
REMARK  Name = =
REMARK  9 active torsions:
REMARK  status: ('A' for Active; 'I' for Inactive)
REMARK    1  A    between atoms: C_1  and  N_10
REMARK    2  A    between atoms: C_2  and  O_46
REMARK    3  A    between atoms: C_4  and  N_34
REMARK    4  A    between atoms: C_6  and  C_29
REMARK    5  A    between atoms: N_7  and  C_13
REMARK    6  A    between atoms: C_19  and  C_23
REMARK    7  A    between atoms: N_34  and  C_37
REMARK    8  A    between atoms: C_40  and  C_43
REMARK    9  A    between atoms: C_43  and  O_45
REMARK                            x       y       z     vdW  Elec       q    Type
REMARK                         _______ _______ _______ _____ _____    ______ ____
ROOT
ATOM      1  C   UNL     1     -17.349 -41.500  23.883  0.00  0.00    +0.082 C 
ATOM      2  C   UNL     1     -16.890 -40.781  22.777  0.00  0.00    +0.148 C 
ATOM      3  C   UNL     1     -17.695 -39.935  22.047  0.00  0.00    +0.053 C 
ATOM      4  C   UNL     1     -19.025 -39.787  22.421  0.00  0.00    +0.062 C 
ATOM      5  C   UNL     1     -19.486 -40.493  23.508  0.00  0.00    +0.017 C 
ATOM      6  C   UNL     1     -18.658 -41.349  24.243  0.00  0.00    +0.022 C 
ENDROOT
BRANCH   1  10
ATOM      7  N   UNL     1     -13.893 -42.625  25.768  0.00  0.00    -0.307 N 
ATOM      8  C   UNL     1     -14.940 -41.929  26.430  0.00  0.00    +0.112 C 
ATOM      9  C   UNL     1     -16.315 -42.307  26.017  0.00  0.00    +0.112 C 
ATOM     10  N   UNL     1     -16.397 -42.290  24.554  0.00  0.00    -0.302 N 
ATOM     11  C   UNL     1     -15.410 -43.104  23.879  0.00  0.00    +0.112 C 
ATOM     12  C   UNL     1     -14.356 -43.622  24.831  0.00  0.00    +0.112 C 
BRANCH   7  13
ATOM     13  C   UNL     1     -13.136 -43.358  26.762  0.00  0.00    +0.025 C 
ATOM     14  C   UNL     1     -13.240 -44.667  26.818  0.00  0.00    -0.011 C 
ATOM     15  C   UNL     1     -12.532 -45.554  27.775  0.00  0.00    +0.053 C 
ATOM     16  C   UNL     1     -12.137 -44.757  28.962  0.00  0.00    -0.021 C 
ATOM     17  C   UNL     1     -12.005 -43.390  28.938  0.00  0.00    -0.020 C 
ATOM     18  C   UNL     1     -11.630 -42.660  30.071  0.00  0.00    -0.003 C 
ATOM     19  C   UNL     1     -11.375 -43.281  31.271  0.00  0.00    +0.021 C 
ATOM     20  C   UNL     1     -11.511 -44.667  31.287  0.00  0.00    +0.001 C 
ATOM     21  C   UNL     1     -11.878 -45.397  30.181  0.00  0.00    -0.004 C 
ATOM     22  C   UNL     1     -12.252 -42.638  27.696  0.00  0.00    +0.067 C 
BRANCH  19  23
ATOM     23  C   UNL     1     -10.984 -42.554  32.470  0.00  0.00    +0.122 C 
ATOM     24  N   UNL     1     -11.963 -41.908  33.162  0.00  0.00    -0.145 NA
ATOM     25  N   UNL     1     -11.711 -41.221  34.260  0.00  0.00    -0.125 NA
ATOM     26  C   UNL     1     -10.465 -41.122  34.759  0.00  0.00    +0.222 C 
ATOM     27  N   UNL     1      -9.475 -41.752  34.095  0.00  0.00    -0.219 NA
ATOM     28  C   UNL     1      -9.716 -42.464  32.964  0.00  0.00    +0.122 C 
ENDBRANCH  19  23
ENDBRANCH   7  13
ENDBRANCH   1  10
BRANCH   6  29
ATOM     29  C   UNL     1     -19.270 -42.032  25.355  0.00  0.00    +0.064 C 
ATOM     30  C   UNL     1     -19.404 -41.507  26.654  0.00  0.00    +0.214 C 
ATOM     31  O   UNL     1     -20.033 -42.404  27.340  0.00  0.00    -0.350 OA
ATOM     32  N   UNL     1     -20.320 -43.440  26.634  0.00  0.00    -0.075 NA
ATOM     33  C   UNL     1     -19.860 -43.256  25.370  0.00  0.00    +0.144 C 
ENDBRANCH   6  29
BRANCH   4  34
ATOM     34  N   UNL     1     -19.914 -38.943  21.717  0.00  0.00    -0.230 N 
ATOM     35  C   UNL     1     -19.429 -38.024  20.761  0.00  0.00    +0.311 C 
ATOM     36  O   UNL     1     -20.226 -37.274  20.139  0.00  0.00    -0.264 OA
BRANCH  34  37
ATOM     37  C   UNL     1     -21.306 -39.008  21.968  0.00  0.00    +0.059 C 
ATOM     38  C   UNL     1     -22.029 -39.945  21.235  0.00  0.00    +0.015 C 
ATOM     39  C   UNL     1     -23.381 -40.069  21.422  0.00  0.00    +0.008 C 
ATOM     40  C   UNL     1     -24.021 -39.266  22.334  0.00  0.00    +0.076 C 
ATOM     41  C   UNL     1     -23.323 -38.316  23.083  0.00  0.00    +0.008 C 
ATOM     42  C   UNL     1     -21.968 -38.217  22.872  0.00  0.00    +0.015 C 
BRANCH  40  43
ATOM     43  C   UNL     1     -25.445 -39.397  22.534  0.00  0.00    +0.338 C 
ATOM     44  O   UNL     1     -25.910 -39.416  23.702  0.00  0.00    -0.245 OA
BRANCH  43  45
ATOM     45  O   UNL     1     -26.351 -39.504  21.475  0.00  0.00    -0.477 OA
ATOM     46  H   UNL     1     -26.362 -38.853  20.801  0.00  0.00    +0.295 HD
ENDBRANCH  43  45
ENDBRANCH  40  43
ENDBRANCH  34  37
ENDBRANCH   4  34
BRANCH   2  47
ATOM     47  O   UNL     1     -15.570 -40.913  22.387  0.00  0.00    -0.504 OA
ATOM     48  H   UNL     1     -14.949 -40.244  22.601  0.00  0.00    +0.292 HD
ENDBRANCH   2  47
TORSDOF 9
ENDMDL
