REMARK  Name = 
REMARK  2 active torsions:
REMARK  status: ('A' for Active; 'I' for Inactive)
REMARK    1  A    between atoms: C_1  and  C_6
REMARK    2  A    between atoms: C_6  and  N_8
REMARK                            x       y       z     vdW  Elec       q    Type
REMARK                         _______ _______ _______ _____ _____    ______ ____
ROOT
ATOM      1  C   UNL     1     -15.244 -42.930  27.607  0.00  0.00    +0.000 A 
ATOM      2  N   UNL     1     -16.286 -42.176  27.226  0.00  0.00    +0.000 NA
ATOM      3  C   UNL     1     -17.128 -42.041  28.255  0.00  0.00    +0.000 A 
ATOM      4  O   UNL     1     -16.631 -42.696  29.272  0.00  0.00    +0.000 OA
ATOM      5  N   UNL     1     -15.497 -43.237  28.901  0.00  0.00    +0.000 NA
ENDROOT
BRANCH   1   6
ATOM      6  C   UNL     1     -14.077 -43.368  26.887  0.00  0.00    +0.000 C 
ATOM      7  S   UNL     1     -13.145 -44.581  27.510  0.00  0.00    +0.000 S 
BRANCH   6   8
ATOM      8  N   UNL     1     -13.643 -42.828  25.645  0.00  0.00    +0.000 N 
ATOM      9  H   UNL     1     -13.564 -43.501  24.849  0.00  0.00    +0.000 HD
ATOM     10  H   UNL     1     -13.407 -41.848  25.472  0.00  0.00    +0.000 HD
ENDBRANCH   6   8
ENDBRANCH   1   6
TORSDOF 2
