REMARK  Name = 
REMARK  12 active torsions:
REMARK  status: ('A' for Active; 'I' for Inactive)
REMARK    1  A    between atoms: C_1  and  C_6
REMARK    2  A    between atoms: C_6  and  N_7
REMARK    3  A    between atoms: N_7  and  C_8
REMARK    4  A    between atoms: N_17  and  C_18
REMARK    5  A    between atoms: C_26  and  N_27
REMARK    6  A    between atoms: C_34  and  C_35
REMARK    7  A    between atoms: C_36  and  O_37
REMARK    8  A    between atoms: O_37  and  C_38
REMARK    9  A    between atoms: C_42  and  C_43
REMARK   10  A    between atoms: C_43  and  C_44
REMARK   11  A    between atoms: C_44  and  C_45
REMARK   12  A    between atoms: C_45  and  N_46
REMARK                            x       y       z     vdW  Elec       q    Type
REMARK                         _______ _______ _______ _____ _____    ______ ____
ROOT
ATOM      1  C   UNL     1     -10.732 -44.194  30.671  0.00  0.00    +0.000 C 
ATOM      2  C   UNL     1     -10.831 -42.785  31.094  0.00  0.00    +0.000 C 
ATOM      3  C   UNL     1     -10.847 -41.979  29.851  0.00  0.00    +0.000 C 
ATOM      4  C   UNL     1     -12.106 -42.505  29.052  0.00  0.00    +0.000 C 
ATOM      5  S   UNL     1     -11.563 -44.173  28.988  0.00  0.00    +0.000 S 
ATOM      6  C   UNL     1     -12.817 -45.288  28.760  0.00  0.00    +0.000 C 
ATOM      7  N   UNL     1     -13.291 -46.120  29.686  0.00  0.00    +0.000 NA
ATOM      8  N   UNL     1     -14.287 -46.904  29.217  0.00  0.00    +0.000 NA
ATOM      9  C   UNL     1     -14.555 -46.677  27.984  0.00  0.00    +0.000 C 
ATOM     10  N   UNL     1     -15.539 -47.312  27.170  0.00  0.00    +0.000 N 
ATOM     11  C   UNL     1     -16.122 -48.576  27.596  0.00  0.00    +0.000 C 
ATOM     12  C   UNL     1     -13.594 -45.583  27.594  0.00  0.00    +0.000 C 
ATOM     13  C   UNL     1     -13.544 -45.014  26.398  0.00  0.00    +0.000 C 
ATOM     14  C   UNL     1     -12.685 -43.928  25.951  0.00  0.00    +0.000 C 
ATOM     15  C   UNL     1     -12.841 -42.647  26.096  0.00  0.00    +0.000 C 
ATOM     16  C   UNL     1     -13.817 -41.795  26.690  0.00  0.00    +0.000 C 
ATOM     17  C   UNL     1     -14.424 -41.515  27.741  0.00  0.00    +0.000 C 
ATOM     18  C   UNL     1     -13.287 -42.214  29.789  0.00  0.00    +0.000 C 
ATOM     19  C   UNL     1     -14.622 -41.831  29.195  0.00  0.00    +0.000 C 
ATOM     20  H   UNL     1     -10.344 -44.242  27.850  0.00  0.00    +0.000 HD
ATOM     21  H   UNL     1     -15.810 -46.842  26.284  0.00  0.00    +0.000 HD
ENDROOT
BRANCH  19  22
ATOM     22  N   UNL     1     -15.040 -40.596  29.861  0.00  0.00    +0.000 N 
ATOM     23  C   UNL     1     -14.151 -39.483  29.536  0.00  0.00    +0.000 C 
ATOM     24  O   UNL     1     -13.061 -39.757  29.014  0.00  0.00    +0.000 OA
ATOM     25  C   UNL     1     -14.584 -38.101  29.840  0.00  0.00    +0.000 C 
ATOM     26  N   UNL     1     -15.470 -38.092  30.956  0.00  0.00    +0.000 N 
ATOM     27  C   UNL     1     -16.341 -39.163  31.269  0.00  0.00    +0.000 A 
ATOM     28  C   UNL     1     -16.143 -40.463  30.721  0.00  0.00    +0.000 A 
ATOM     29  C   UNL     1     -17.032 -41.448  31.050  0.00  0.00    +0.000 A 
ATOM     30  C   UNL     1     -18.114 -41.191  31.909  0.00  0.00    +0.000 A 
ATOM     31  C   UNL     1     -18.277 -39.946  32.417  0.00  0.00    +0.000 A 
ATOM     32  C   UNL     1     -17.407 -38.933  32.109  0.00  0.00    +0.000 A 
ATOM     33  H   UNL     1     -15.479 -37.258  31.576  0.00  0.00    +0.000 HD
BRANCH  29  34
ATOM     34  C   UNL     1     -16.965 -42.785  30.523  0.00  0.00    +0.000 A 
ATOM     35  C   UNL     1     -17.662 -43.027  29.380  0.00  0.00    +0.000 A 
ATOM     36  C   UNL     1     -17.773 -44.292  28.872  0.00  0.00    +0.000 A 
ATOM     37  C   UNL     1     -17.157 -45.318  29.554  0.00  0.00    +0.000 A 
ATOM     38  C   UNL     1     -16.452 -45.078  30.706  0.00  0.00    +0.000 A 
ATOM     39  C   UNL     1     -16.351 -43.763  31.210  0.00  0.00    +0.000 A 
BRANCH  35  40
ATOM     40  O   UNL     1     -18.298 -41.992  28.669  0.00  0.00    +0.000 OA
ATOM     41  C   UNL     1     -18.997 -42.313  27.502  0.00  0.00    +0.000 C 
ENDBRANCH  35  40
BRANCH  39  42
ATOM     42  C   UNL     1     -15.572 -43.641  32.463  0.00  0.00    +0.000 C 
BRANCH  42  43
ATOM     43  C   UNL     1     -16.419 -43.665  33.670  0.00  0.00    +0.000 C 
BRANCH  43  44
ATOM     44  C   UNL     1     -15.555 -43.537  34.947  0.00  0.00    +0.000 C 
BRANCH  44  45
ATOM     45  N   UNL     1     -14.819 -42.312  34.944  0.00  0.00    +0.000 NA
ATOM     46  H   UNL     1     -13.948 -42.366  35.517  0.00  0.00    +0.000 HD
ATOM     47  H   UNL     1     -15.440 -41.528  35.173  0.00  0.00    +0.000 HD
ENDBRANCH  44  45
ENDBRANCH  43  44
ENDBRANCH  42  43
ENDBRANCH  39  42
ENDBRANCH  29  34
ENDBRANCH  19  22
BRANCH   1  48
ATOM     48  N   UNL     1      -9.454 -44.777  30.533  0.00  0.00    +0.000 NA
ATOM     49  H   UNL     1      -8.894 -44.233  29.839  0.00  0.00    +0.000 HD
BRANCH  48  50
ATOM     50  C   UNL     1      -8.787 -44.812  31.813  0.00  0.00    +0.000 C 
BRANCH  50  51
ATOM     51  C   UNL     1      -7.442 -45.458  31.612  0.00  0.00    +0.000 A 
ATOM     52  O   UNL     1      -6.872 -45.689  30.458  0.00  0.00    +0.000 OA
ATOM     53  C   UNL     1      -5.703 -46.264  30.611  0.00  0.00    +0.000 A 
ATOM     54  C   UNL     1      -5.469 -46.432  31.960  0.00  0.00    +0.000 A 
ATOM     55  C   UNL     1      -6.584 -45.914  32.577  0.00  0.00    +0.000 A 
ENDBRANCH  50  51
ENDBRANCH  48  50
ENDBRANCH   1  48
TORSDOF 10
