REMARK  Name = =
REMARK  4 active torsions:
REMARK  status: ('A' for Active; 'I' for Inactive)
REMARK    1  A    between atoms: C_1  and  N_31
REMARK    2  A    between atoms: C_19  and  N_20
REMARK    3  A    between atoms: N_31  and  C_32
REMARK    4  A    between atoms: C_32  and  C_33
REMARK                            x       y       z     vdW  Elec       q    Type
REMARK                         _______ _______ _______ _____ _____    ______ ____
ROOT
ATOM      1  C   UNL     1     -13.625 -45.015  31.784  0.00  0.00    +0.000 C 
ATOM      2  C   UNL     1     -14.179 -45.588  30.553  0.00  0.00    +0.000 C 
ATOM      3  C   UNL     1     -13.218 -45.442  29.422  0.00  0.00    +0.000 C 
ATOM      4  C   UNL     1     -12.572 -44.066  29.559  0.00  0.00    +0.000 C 
ATOM      5  S   UNL     1     -12.242 -44.038  31.219  0.00  0.00    +0.000 S 
ATOM      6  C   UNL     1     -10.587 -44.602  31.421  0.00  0.00    +0.000 C 
ATOM      7  N   UNL     1     -10.240 -45.822  31.616  0.00  0.00    +0.000 NA
ATOM      8  N   UNL     1      -8.872 -45.951  31.736  0.00  0.00    +0.000 NA
ATOM      9  C   UNL     1      -8.305 -44.813  31.623  0.00  0.00    +0.000 C 
ATOM     10  N   UNL     1      -6.885 -44.551  31.694  0.00  0.00    +0.000 NA
ATOM     11  C   UNL     1      -6.031 -45.400  32.461  0.00  0.00    +0.000 C 
ATOM     12  C   UNL     1      -9.402 -43.820  31.403  0.00  0.00    +0.000 C 
ATOM     13  C   UNL     1      -9.328 -42.503  31.219  0.00  0.00    +0.000 C 
ATOM     14  C   UNL     1     -10.268 -41.439  30.990  0.00  0.00    +0.000 C 
ATOM     15  C   UNL     1     -10.939 -41.025  29.908  0.00  0.00    +0.000 C 
ATOM     16  C   UNL     1     -11.005 -41.470  28.545  0.00  0.00    +0.000 C 
ATOM     17  C   UNL     1     -11.938 -41.970  27.769  0.00  0.00    +0.000 C 
ATOM     18  C   UNL     1     -13.592 -43.043  29.201  0.00  0.00    +0.000 C 
ATOM     19  C   UNL     1     -13.348 -42.292  27.951  0.00  0.00    +0.000 C 
ENDROOT
BRANCH  19  20
ATOM     20  N   UNL     1     -13.942 -42.821  26.752  0.00  0.00    +0.000 N 
ATOM     21  C   UNL     1     -13.166 -43.720  25.953  0.00  0.00    +0.000 C 
ATOM     22  O   UNL     1     -11.899 -43.713  25.930  0.00  0.00    +0.000 OA
ATOM     23  C   UNL     1     -13.895 -44.709  25.114  0.00  0.00    +0.000 C 
ATOM     24  N   UNL     1     -14.910 -43.950  24.407  0.00  0.00    +0.000 NA
ATOM     25  C   UNL     1     -15.731 -43.059  25.156  0.00  0.00    +0.000 C 
ATOM     26  C   UNL     1     -15.259 -42.482  26.341  0.00  0.00    +0.000 C 
ATOM     27  C   UNL     1     -16.089 -41.629  27.027  0.00  0.00    +0.000 C 
ATOM     28  C   UNL     1     -17.351 -41.386  26.510  0.00  0.00    +0.000 C 
ATOM     29  C   UNL     1     -17.820 -41.946  25.351  0.00  0.00    +0.000 C 
ATOM     30  C   UNL     1     -16.991 -42.807  24.652  0.00  0.00    +0.000 C 
ENDBRANCH  19  20
BRANCH   1  31
ATOM     31  N   UNL     1     -14.470 -44.404  32.696  0.00  0.00    +0.000 NA
BRANCH  31  32
ATOM     32  C   UNL     1     -15.159 -43.217  32.407  0.00  0.00    +0.000 C 
BRANCH  32  33
ATOM     33  C   UNL     1     -14.727 -42.196  33.424  0.00  0.00    +0.000 C 
ATOM     34  O   UNL     1     -13.705 -42.211  34.232  0.00  0.00    +0.000 OA
ATOM     35  C   UNL     1     -13.632 -41.163  34.981  0.00  0.00    +0.000 C 
ATOM     36  C   UNL     1     -14.704 -40.363  34.654  0.00  0.00    +0.000 C 
ATOM     37  C   UNL     1     -15.401 -41.025  33.659  0.00  0.00    +0.000 C 
ENDBRANCH  32  33
ENDBRANCH  31  32
ENDBRANCH   1  31
TORSDOF 4
