REMARK  Name = 
REMARK  21 active torsions:
REMARK  status: ('A' for Active; 'I' for Inactive)
REMARK    1  A    between atoms: C_1  and  O_2
REMARK    2  A    between atoms: O_2  and  N_3
REMARK    3  A    between atoms: C_4  and  C_5
REMARK    4  A    between atoms: C_5  and  C_6
REMARK    5  A    between atoms: C_5  and  C_7
REMARK    6  A    between atoms: C_5  and  C_9
REMARK    7  A    between atoms: C_9  and  C_10
REMARK    8  A    between atoms: C_9  and  C_11
REMARK    9  A    between atoms: C_12  and  C_13
REMARK   10  A    between atoms: C_13  and  C_14
REMARK   11  A    between atoms: C_14  and  C_15
REMARK   12  A    between atoms: C_17  and  C_18
REMARK   13  A    between atoms: C_18  and  O_19
REMARK   14  A    between atoms: C_22  and  C_23
REMARK   15  A    between atoms: N_24  and  O_25
REMARK   16  A    between atoms: O_25  and  C_26
REMARK   17  A    between atoms: C_26  and  C_27
REMARK   18  A    between atoms: C_29  and  C_30
REMARK   19  A    between atoms: C_29  and  C_32
REMARK   20  A    between atoms: C_34  and  C_35
REMARK   21  A    between atoms: N_36  and  O_37
REMARK                            x       y       z     vdW  Elec       q    Type
REMARK                         _______ _______ _______ _____ _____    ______ ____
ROOT
ATOM      1  C   UNL     1     -69.493   2.019  18.090  0.00  0.00    +0.000 C 
ATOM      2  C   UNL     1     -68.437   2.451  17.331  0.00  0.00    +0.000 C 
ATOM      3  C   UNL     1     -68.259   3.928  17.537  0.00  0.00    +0.000 C 
ATOM      4  C   UNL     1     -69.143   4.279  18.649  0.00  0.00    +0.000 C 
ATOM      5  C   UNL     1     -70.256   3.271  18.393  0.00  0.00    +0.000 C 
ATOM      6  C   UNL     1     -71.483   3.429  18.673  0.00  0.00    +0.000 C 
ENDROOT
BRANCH   6   7
ATOM      7  C   UNL     1     -72.258   4.660  18.919  0.00  0.00    +0.000 C 
ATOM      8  N   UNL     1     -71.919   5.707  18.367  0.00  0.00    +0.000 NA
BRANCH   8   9
ATOM      9  O   UNL     1     -71.515   6.767  17.759  0.00  0.00    +0.000 OA
BRANCH   9  10
ATOM     10  C   UNL     1     -72.157   6.773  16.348  0.00  0.00    +0.000 C 
BRANCH  10  11
ATOM     11  C   UNL     1     -73.465   7.312  16.613  0.00  0.00    +0.000 C 
ATOM     12  C   UNL     1     -74.472   7.136  15.550  0.00  0.00    +0.000 C 
ATOM     13  C   UNL     1     -74.558   8.484  14.801  0.00  0.00    +0.000 C 
ATOM     14  C   UNL     1     -74.353   9.405  16.056  0.00  0.00    +0.000 C 
ATOM     15  C   UNL     1     -73.704   8.727  17.029  0.00  0.00    +0.000 C 
BRANCH  14  16
ATOM     16  C   UNL     1     -74.727  10.787  16.132  0.00  0.00    +0.000 C 
ATOM     17  N   UNL     1     -75.434  11.386  15.385  0.00  0.00    +0.000 NA
BRANCH  17  18
ATOM     18  O   UNL     1     -76.155  12.233  14.725  0.00  0.00    +0.000 OA
ATOM     19  H   UNL     1     -76.952  12.632  15.378  0.00  0.00    +0.000 HD
ENDBRANCH  17  18
ENDBRANCH  14  16
BRANCH  13  20
ATOM     20  C   UNL     1     -73.483   8.765  14.099  0.00  0.00    +0.000 C 
ATOM     21  C   UNL     1     -72.728   8.955  13.592  0.00  0.00    +0.000 C 
ENDBRANCH  13  20
BRANCH  13  22
ATOM     22  C   UNL     1     -75.787   8.438  14.136  0.00  0.00    +0.000 C 
ATOM     23  C   UNL     1     -76.826   8.419  13.580  0.00  0.00    +0.000 C 
ENDBRANCH  13  22
ENDBRANCH  10  11
ENDBRANCH   9  10
ENDBRANCH   8   9
ENDBRANCH   6   7
BRANCH   3  24
ATOM     24  C   UNL     1     -66.851   4.344  17.576  0.00  0.00    +0.000 C 
BRANCH  24  25
ATOM     25  O   UNL     1     -66.557   5.627  17.989  0.00  0.00    +0.000 OA
ATOM     26  H   UNL     1     -65.963   5.447  18.814  0.00  0.00    +0.000 HD
ENDBRANCH  24  25
ENDBRANCH   3  24
BRANCH   1  27
ATOM     27  C   UNL     1     -70.104   0.705  18.254  0.00  0.00    +0.000 C 
BRANCH  27  28
ATOM     28  C   UNL     1     -69.615   0.064  19.578  0.00  0.00    +0.000 C 
BRANCH  28  30
ATOM     29  C   UNL     1     -67.088   0.076  19.665  0.00  0.00    +0.000 C 
ATOM     30  C   UNL     1     -68.163  -0.355  19.213  0.00  0.00    +0.000 C 
BRANCH  29  31
ATOM     31  C   UNL     1     -66.167   0.764  20.374  0.00  0.00    +0.000 C 
ATOM     32  C   UNL     1     -66.616   1.845  21.317  0.00  0.00    +0.000 C 
BRANCH  31  33
ATOM     33  C   UNL     1     -64.810   0.217  20.661  0.00  0.00    +0.000 C 
ATOM     34  C   UNL     1     -64.454  -1.069  20.085  0.00  0.00    +0.000 C 
BRANCH  33  36
ATOM     35  N   UNL     1     -62.671   1.052  20.881  0.00  0.00    +0.000 NA
ATOM     36  C   UNL     1     -63.688   1.259  20.317  0.00  0.00    +0.000 C 
BRANCH  35  38
ATOM     37  C   UNL     1     -61.224   2.563  22.033  0.00  0.00    +0.000 C 
ATOM     38  O   UNL     1     -61.410   1.443  21.105  0.00  0.00    +0.000 OA
ENDBRANCH  35  38
ENDBRANCH  33  36
BRANCH  33  39
ATOM     39  C   UNL     1     -64.717   0.201  22.222  0.00  0.00    +0.000 C 
ATOM     40  O   UNL     1     -64.967  -0.848  22.755  0.00  0.00    +0.000 OA
ENDBRANCH  33  39
ENDBRANCH  31  33
ENDBRANCH  29  31
ENDBRANCH  28  30
ENDBRANCH  27  28
ENDBRANCH   1  27
TORSDOF 18
