REMARK  Name = =
REMARK  0 active torsions:
REMARK  status: ('A' for Active; 'I' for Inactive)
REMARK                            x       y       z     vdW  Elec       q    Type
REMARK                         _______ _______ _______ _____ _____    ______ ____
ROOT
ATOM      1  S   UNL     1      -8.382 -42.121  32.369  0.00  0.00    -0.080 S 
ATOM      2  S   UNL     1      -8.663 -41.538  34.390  0.00  0.00    -0.082 S 
ATOM      3  C   UNL     1     -10.050 -42.429  35.158  0.00  0.00    +0.078 C 
ATOM      4  C   UNL     1     -11.206 -42.498  34.205  0.00  0.00    +0.098 C 
ATOM      5  C   UNL     1     -12.137 -41.366  34.433  0.00  0.00    +0.224 C 
ATOM      6  O   UNL     1     -11.855 -40.497  35.320  0.00  0.00    -0.275 OA
ATOM      7  N   UNL     1     -13.330 -41.247  33.669  0.00  0.00    -0.297 N 
ATOM      8  C   UNL     1     -13.524 -42.087  32.528  0.00  0.00    +0.176 C 
ATOM      9  C   UNL     1     -14.945 -42.108  32.096  0.00  0.00    +0.243 C 
ATOM     10  O   UNL     1     -15.784 -41.391  32.706  0.00  0.00    -0.273 OA
ATOM     11  N   UNL     1     -15.329 -42.935  31.006  0.00  0.00    -0.295 N 
ATOM     12  C   UNL     1     -14.511 -44.030  30.528  0.00  0.00    +0.176 C 
ATOM     13  C   UNL     1     -14.035 -43.732  29.145  0.00  0.00    +0.243 C 
ATOM     14  O   UNL     1     -14.265 -42.608  28.625  0.00  0.00    -0.273 OA
ATOM     15  N   UNL     1     -13.323 -44.701  28.398  0.00  0.00    -0.295 N 
ATOM     16  C   UNL     1     -12.480 -45.718  28.998  0.00  0.00    +0.176 C 
ATOM     17  C   UNL     1     -11.491 -46.210  28.002  0.00  0.00    +0.243 C 
ATOM     18  O   UNL     1     -11.950 -46.573  26.881  0.00  0.00    -0.273 OA
ATOM     19  N   UNL     1     -10.108 -46.286  28.257  0.00  0.00    -0.295 N 
ATOM     20  C   UNL     1      -9.379 -45.355  29.097  0.00  0.00    +0.176 C 
ATOM     21  C   UNL     1      -8.723 -46.125  30.195  0.00  0.00    +0.243 C 
ATOM     22  O   UNL     1      -8.807 -47.388  30.238  0.00  0.00    -0.273 OA
ATOM     23  N   UNL     1      -7.990 -45.465  31.220  0.00  0.00    -0.302 N 
ATOM     24  C   UNL     1      -7.339 -44.188  31.001  0.00  0.00    +0.102 C 
ATOM     25  C   UNL     1      -7.157 -43.468  32.311  0.00  0.00    +0.090 C 
ATOM     26  H   UNL     1     -14.018 -40.591  33.924  0.00  0.00    +0.150 HD
ATOM     27  H   UNL     1     -16.187 -42.756  30.557  0.00  0.00    +0.150 HD
ATOM     28  H   UNL     1     -13.404 -44.684  27.417  0.00  0.00    +0.150 HD
ATOM     29  H   UNL     1      -9.603 -47.019  27.837  0.00  0.00    +0.150 HD
ATOM     30  H   UNL     1      -7.923 -45.889  32.106  0.00  0.00    +0.150 HD
ENDROOT
TORSDOF 0
