MODEL 1
REMARK VINA RESULT:   -10.908      0.000      0.000
REMARK INTER + INTRA:         -11.180
REMARK INTER:                 -12.183
REMARK INTRA:                   1.003
REMARK UNBOUND:                 1.003
REMARK  Name = =
REMARK  2 active torsions:
REMARK  status: ('A' for Active; 'I' for Inactive)
REMARK    1  A    between atoms: N_1  and  C_16
REMARK    2  A    between atoms: C_16  and  C_18
REMARK                            x       y       z     vdW  Elec       q    Type
REMARK                         _______ _______ _______ _____ _____    ______ ____
ROOT
ATOM      1  N   UNL     1      51.155 156.930  29.535  0.00  0.00    -0.195 N 
ATOM      2  C   UNL     1      49.757 157.201  29.805  0.00  0.00    +0.259 C 
ATOM      3  O   UNL     1      48.880 156.318  29.648  0.00  0.00    -0.269 OA
ATOM      4  C   UNL     1      49.390 158.531  30.262  0.00  0.00    +0.054 C 
ATOM      5  C   UNL     1      50.350 159.509  30.435  0.00  0.00    +0.009 C 
ATOM      6  C   UNL     1      49.931 160.736  30.867  0.00  0.00    +0.000 C 
ATOM      7  C   UNL     1      50.870 161.744  31.053  0.00  0.00    +0.000 C 
ATOM      8  C   UNL     1      52.190 161.507  30.806  0.00  0.00    +0.000 C 
ATOM      9  C   UNL     1      52.594 160.274  30.373  0.00  0.00    +0.005 C 
ATOM     10  C   UNL     1      51.699 159.248  30.175  0.00  0.00    +0.054 C 
ATOM     11  C   UNL     1      52.127 157.942  29.718  0.00  0.00    +0.259 C 
ATOM     12  O   UNL     1      53.327 157.728  29.493  0.00  0.00    -0.269 OA
ATOM     13  C   UNL     1      48.596 161.003  31.127  0.00  0.00    +0.000 C 
ATOM     14  C   UNL     1      47.633 160.031  30.956  0.00  0.00    +0.000 C 
ATOM     15  C   UNL     1      48.045 158.790  30.519  0.00  0.00    +0.005 C 
ENDROOT
BRANCH   1  16
ATOM     16  C   UNL     1      51.543 155.656  29.092  0.00  0.00    +0.097 C 
ATOM     17  S   UNL     1      51.267 154.359  30.036  0.00  0.00    -0.034 S 
BRANCH  16  18
ATOM     18  C   UNL     1      52.189 155.503  27.797  0.00  0.00    +0.025 C 
ATOM     19  C   UNL     1      52.499 154.267  27.265  0.00  0.00    +0.036 C 
ATOM     20  C   UNL     1      53.115 154.115  26.031  0.00  0.00    +0.132 C 
ATOM     21  N   UNL     1      53.424 152.829  25.505  0.00  0.00    -0.293 N 
ATOM     22  C   UNL     1      53.148 151.569  26.164  0.00  0.00    +0.092 C 
ATOM     23  C   UNL     1      53.356 150.518  25.066  0.00  0.00    +0.023 C 
ATOM     24  C   UNL     1      54.486 151.142  24.280  0.00  0.00    +0.023 C 
ATOM     25  C   UNL     1      54.065 152.595  24.225  0.00  0.00    +0.092 C 
ATOM     26  N   UNL     1      53.397 155.252  25.371  0.00  0.00    -0.229 NA
ATOM     27  C   UNL     1      53.110 156.472  25.856  0.00  0.00    +0.100 C 
ATOM     28  C   UNL     1      52.499 156.640  27.081  0.00  0.00    +0.023 C 
ENDBRANCH  16  18
ENDBRANCH   1  16
TORSDOF 2
ENDMDL
