MODEL 1
REMARK VINA RESULT:    -5.811      0.000      0.000
REMARK INTER + INTRA:         -15.744
REMARK INTER:                 -11.416
REMARK INTRA:                  -4.328
REMARK UNBOUND:                -4.328
REMARK  Name = =
REMARK  21 active torsions:
REMARK  status: ('A' for Active; 'I' for Inactive)
REMARK    1  A    between atoms: P_1  and  O_2
REMARK    2  A    between atoms: P_1  and  O_4
REMARK    3  A    between atoms: P_1  and  O_6
REMARK    4  A    between atoms: P_1  and  O_19
REMARK    5  A    between atoms: O_2  and  O_5
REMARK    6  A    between atoms: O_6  and  P_7
REMARK    7  A    between atoms: P_7  and  O_9
REMARK    8  A    between atoms: P_7  and  O_14
REMARK    9  A    between atoms: O_9  and  P_10
REMARK   10  A    between atoms: P_10  and  O_12
REMARK   11  A    between atoms: P_10  and  O_13
REMARK   12  A    between atoms: O_14  and  P_15
REMARK   13  A    between atoms: P_15  and  O_17
REMARK   14  A    between atoms: P_15  and  O_18
REMARK   15  A    between atoms: O_19  and  O_20
REMARK   16  A    between atoms: O_20  and  C_21
REMARK   17  A    between atoms: C_22  and  C_27
REMARK   18  A    between atoms: C_23  and  O_35
REMARK   19  A    between atoms: C_25  and  O_36
REMARK   20  A    between atoms: C_26  and  C_37
REMARK   21  A    between atoms: C_27  and  N_29
REMARK                            x       y       z     vdW  Elec       q    Type
REMARK                         _______ _______ _______ _____ _____    ______ ____
ROOT
ATOM      1  P   UNL     1      61.611 162.838  38.600  0.00  0.00    +0.336 P 
ATOM      2  H   UNL     1      60.827 162.176  37.668  0.00  0.00    +0.168 HD
ENDROOT
BRANCH   1   3
ATOM      3  O   UNL     1      62.176 161.441  37.790  0.00  0.00    -0.321 OA
ATOM      4  H   UNL     1      61.424 160.968  37.400  0.00  0.00    +0.220 HD
ENDBRANCH   1   3
BRANCH   1   5
ATOM      5  O   UNL     1      61.368 164.374  37.944  0.00  0.00    -0.099 OA
BRANCH   5   6
ATOM      6  O   UNL     1      61.683 164.311  36.654  0.00  0.00    -0.325 OA
BRANCH   6   7
ATOM      7  C   UNL     1      61.081 165.165  35.766  0.00  0.00    +0.194 C 
ATOM      8  C   UNL     1      61.713 166.301  35.372  0.00  0.00    +0.092 C 
ATOM      9  C   UNL     1      61.090 167.147  34.478  0.00  0.00    +0.141 C 
ATOM     10  C   UNL     1      59.841 166.826  34.000  0.00  0.00    +0.074 C 
ATOM     11  C   UNL     1      59.204 165.657  34.412  0.00  0.00    +0.143 C 
ATOM     12  C   UNL     1      59.813 164.802  35.305  0.00  0.00    +0.114 C 
BRANCH  12  13
ATOM     13  C   UNL     1      59.186 163.569  35.764  0.00  0.00    +0.240 C 
ATOM     14  O   UNL     1      58.973 162.652  34.936  0.00  0.00    -0.283 OA
ENDBRANCH  12  13
BRANCH  11  15
ATOM     15  O   UNL     1      57.951 165.368  33.910  0.00  0.00    -0.505 OA
ATOM     16  H   UNL     1      57.758 164.505  33.600  0.00  0.00    +0.292 HD
ENDBRANCH  11  15
BRANCH   9  17
ATOM     17  O   UNL     1      61.734 168.321  34.067  0.00  0.00    -0.505 OA
ATOM     18  H   UNL     1      62.561 168.274  33.632  0.00  0.00    +0.292 HD
ENDBRANCH   9  17
BRANCH   8  19
ATOM     19  C   UNL     1      63.038 166.608  35.902  0.00  0.00    +0.096 C 
ATOM     20  S   UNL     1      63.233 167.468  37.286  0.00  0.00    -0.034 S 
BRANCH  19  21
ATOM     21  N   UNL     1      64.191 166.153  35.203  0.00  0.00    -0.253 N 
ATOM     22  C   UNL     1      64.796 166.727  34.043  0.00  0.00    +0.230 C 
ATOM     23  O   UNL     1      64.575 167.897  33.651  0.00  0.00    -0.275 OA
ATOM     24  C   UNL     1      65.700 165.780  33.374  0.00  0.00    +0.087 C 
ATOM     25  C   UNL     1      65.790 164.636  34.338  0.00  0.00    +0.031 C 
ATOM     26  C   UNL     1      64.978 165.007  35.542  0.00  0.00    +0.099 C 
ENDBRANCH  19  21
ENDBRANCH   8  19
ENDBRANCH   6   7
ENDBRANCH   5   6
ENDBRANCH   1   5
BRANCH   1  27
ATOM     27  O   UNL     1      60.163 162.289  39.263  0.00  0.00    -0.204 OA
BRANCH  27  28
ATOM     28  P   UNL     1      60.392 161.046  40.357  0.00  0.00    +0.502 P 
ATOM     29  O   UNL     1      59.188 161.056  41.301  0.00  0.00    -0.226 OA
BRANCH  28  30
ATOM     30  O   UNL     1      60.391 159.551  39.576  0.00  0.00    -0.186 OA
BRANCH  30  31
ATOM     31  P   UNL     1      59.095 159.491  38.492  0.00  0.00    +0.481 P 
ATOM     32  O   UNL     1      58.863 158.101  37.961  0.00  0.00    -0.227 OA
BRANCH  31  33
ATOM     33  O   UNL     1      59.464 160.511  37.179  0.00  0.00    -0.302 OA
ATOM     34  H   UNL     1      60.066 161.212  37.475  0.00  0.00    +0.222 HD
ENDBRANCH  31  33
BRANCH  31  35
ATOM     35  O   UNL     1      57.734 160.125  39.250  0.00  0.00    -0.302 OA
ATOM     36  H   UNL     1      57.994 160.871  39.812  0.00  0.00    +0.222 HD
ENDBRANCH  31  35
ENDBRANCH  30  31
ENDBRANCH  28  30
BRANCH  28  37
ATOM     37  O   UNL     1      61.760 161.199  41.293  0.00  0.00    -0.186 OA
BRANCH  37  38
ATOM     38  P   UNL     1      62.759 159.872  41.296  0.00  0.00    +0.481 P 
ATOM     39  O   UNL     1      63.895 159.946  42.258  0.00  0.00    -0.227 OA
BRANCH  38  40
ATOM     40  O   UNL     1      61.812 158.505  41.683  0.00  0.00    -0.302 OA
ATOM     41  H   UNL     1      61.359 158.189  40.886  0.00  0.00    +0.222 HD
ENDBRANCH  38  40
BRANCH  38  42
ATOM     42  O   UNL     1      63.302 159.630  39.693  0.00  0.00    -0.302 OA
ATOM     43  H   UNL     1      63.224 158.691  39.463  0.00  0.00    +0.222 HD
ENDBRANCH  38  42
ENDBRANCH  37  38
ENDBRANCH  28  37
ENDBRANCH  27  28
ENDBRANCH   1  27
BRANCH   1  44
ATOM     44  O   UNL     1      61.197 163.675  39.749  0.00  0.00    -0.150 OA
BRANCH  44  45
ATOM     45  O   UNL     1      62.719 163.721  39.561  0.00  0.00    -0.242 OA
ATOM     46  H   UNL     1      62.985 163.049  38.914  0.00  0.00    +0.254 HD
ENDBRANCH  44  45
ENDBRANCH   1  44
TORSDOF 21
ENDMDL
