MODEL 1
REMARK VINA RESULT:    -6.915      0.000      0.000
REMARK INTER + INTRA:          -9.242
REMARK INTER:                  -8.936
REMARK INTRA:                  -0.306
REMARK UNBOUND:                -0.306
REMARK  Name = =
REMARK  6 active torsions:
REMARK  status: ('A' for Active; 'I' for Inactive)
REMARK    1  A    between atoms: C_1  and  C_18
REMARK    2  A    between atoms: C_1  and  N_32
REMARK    3  A    between atoms: C_19  and  C_25
REMARK    4  A    between atoms: C_21  and  O_31
REMARK    5  A    between atoms: N_32  and  C_33
REMARK    6  A    between atoms: C_34  and  N_39
REMARK                            x       y       z     vdW  Elec       q    Type
REMARK                         _______ _______ _______ _____ _____    ______ ____
ROOT
ATOM      1  C   UNL     1      61.022 164.499  36.916  0.00  0.00    +0.061 C 
ATOM      2  C   UNL     1      61.771 163.308  37.474  0.00  0.00    +0.019 C 
ATOM      3  C   UNL     1      61.302 163.131  38.905  0.00  0.00    +0.006 C 
ATOM      4  C   UNL     1      59.800 162.989  38.880  0.00  0.00    +0.018 C 
ATOM      5  C   UNL     1      59.195 162.949  37.541  0.00  0.00    +0.006 C 
ATOM      6  C   UNL     1      58.880 161.617  36.966  0.00  0.00    +0.005 C 
ATOM      7  C   UNL     1      59.351 160.436  37.765  0.00  0.00    +0.021 C 
ATOM      8  C   UNL     1      59.072 160.682  39.203  0.00  0.00    -0.052 C 
ATOM      9  C   UNL     1      59.285 161.882  39.718  0.00  0.00    -0.052 C 
ATOM     10  C   UNL     1      58.998 162.117  41.169  0.00  0.00    +0.021 C 
ATOM     11  C   UNL     1      57.801 161.375  41.660  0.00  0.00    +0.005 C 
ATOM     12  C   UNL     1      57.564 160.042  41.049  0.00  0.00    +0.004 C 
ATOM     13  C   UNL     1      58.566 159.602  40.036  0.00  0.00    +0.018 C 
ATOM     14  C   UNL     1      59.618 158.787  40.726  0.00  0.00    +0.004 C 
ATOM     15  C   UNL     1      59.028 158.483  42.083  0.00  0.00    +0.000 C 
ATOM     16  C   UNL     1      57.592 158.897  42.040  0.00  0.00    +0.000 C 
ATOM     17  C   UNL     1      59.641 163.963  36.552  0.00  0.00    +0.019 C 
ENDROOT
BRANCH   1  18
ATOM     18  C   UNL     1      60.944 165.574  37.908  0.00  0.00    -0.007 C 
ATOM     19  C   UNL     1      62.044 166.182  38.415  0.00  0.00    +0.024 C 
ATOM     20  C   UNL     1      61.936 167.243  39.335  0.00  0.00    +0.069 C 
ATOM     21  C   UNL     1      60.733 167.700  39.754  0.00  0.00    +0.140 C 
ATOM     22  C   UNL     1      59.603 167.096  39.254  0.00  0.00    +0.037 C 
ATOM     23  C   UNL     1      59.703 166.059  38.354  0.00  0.00    +0.000 C 
ATOM     24 BR   UNL     1      63.496 168.098  40.041  0.00  0.00    -0.046 Br
BRANCH  19  25
ATOM     25  C   UNL     1      63.438 165.820  38.139  0.00  0.00    +0.085 C 
ATOM     26  N   UNL     1      64.101 166.180  37.056  0.00  0.00    -0.224 NA
ATOM     27  C   UNL     1      65.378 165.881  36.835  0.00  0.00    +0.199 C 
ATOM     28  N   UNL     1      66.050 165.171  37.752  0.00  0.00    -0.222 NA
ATOM     29  C   UNL     1      65.427 164.774  38.875  0.00  0.00    +0.102 C 
ATOM     30  C   UNL     1      64.105 165.078  39.114  0.00  0.00    +0.040 C 
ENDBRANCH  19  25
BRANCH  21  31
ATOM     31  O   UNL     1      60.645 168.761  40.672  0.00  0.00    -0.505 OA
ATOM     32  H   UNL     1      60.228 168.630  41.501  0.00  0.00    +0.292 HD
ENDBRANCH  21  31
ENDBRANCH   1  18
BRANCH   1  33
ATOM     33  N   UNL     1      61.596 164.979  35.686  0.00  0.00    -0.294 NA
ATOM     34  H   UNL     1      61.533 164.206  35.023  0.00  0.00    +0.124 HD
BRANCH  33  35
ATOM     35  C   UNL     1      61.102 166.123  35.006  0.00  0.00    +0.114 C 
ATOM     36  C   UNL     1      61.700 167.316  34.678  0.00  0.00    +0.143 C 
ATOM     37  C   UNL     1      60.549 167.761  34.089  0.00  0.00    +0.197 C 
ATOM     38  O   UNL     1      60.200 168.801  33.508  0.00  0.00    -0.292 OA
ATOM     39  C   UNL     1      59.946 166.572  34.414  0.00  0.00    +0.212 C 
ATOM     40  O   UNL     1      58.786 166.071  34.245  0.00  0.00    -0.215 OA
BRANCH  36  41
ATOM     41  N   UNL     1      63.017 167.872  34.877  0.00  0.00    -0.314 NA
ATOM     42  H   UNL     1      63.656 167.135  35.176  0.00  0.00    +0.119 HD
ATOM     43  H   UNL     1      62.975 168.597  35.594  0.00  0.00    +0.119 HD
ENDBRANCH  36  41
ENDBRANCH  33  35
ENDBRANCH   1  33
TORSDOF 6
ENDMDL
