MODEL 1
REMARK VINA RESULT:    -8.576      0.000      0.000
REMARK INTER + INTRA:         -11.838
REMARK INTER:                 -11.584
REMARK INTRA:                  -0.254
REMARK UNBOUND:                -0.254
REMARK  Name = =
REMARK  7 active torsions:
REMARK  status: ('A' for Active; 'I' for Inactive)
REMARK    1  A    between atoms: C_4  and  C_20
REMARK    2  A    between atoms: C_7  and  C_10
REMARK    3  A    between atoms: C_9  and  N_27
REMARK    4  A    between atoms: C_32  and  O_35
REMARK    5  A    between atoms: O_35  and  P_36
REMARK    6  A    between atoms: P_36  and  O_38
REMARK    7  A    between atoms: P_36  and  O_39
REMARK                            x       y       z     vdW  Elec       q    Type
REMARK                         _______ _______ _______ _____ _____    ______ ____
ROOT
ATOM      1  C   UNL     1       2.693  -8.639  27.314  0.00  0.00    +0.206 C 
ATOM      2  O   UNL     1       2.253  -8.141  26.005  0.00  0.00    -0.473 OA
ATOM      3  C   UNL     1       1.838  -6.770  26.043  0.00  0.00    +0.168 C 
ATOM      4  C   UNL     1       1.319  -6.264  27.118  0.00  0.00    +0.019 C 
ATOM      5  C   UNL     1       1.076  -7.072  28.292  0.00  0.00    +0.048 C 
ATOM      6  C   UNL     1       1.548  -8.439  28.177  0.00  0.00    +0.055 C 
ATOM      7  C   UNL     1       0.404  -9.341  28.120  0.00  0.00    +0.046 C 
ATOM      8  C   UNL     1      -0.785  -8.425  28.146  0.00  0.00    +0.027 C 
ATOM      9  C   UNL     1      -0.348  -7.122  28.760  0.00  0.00    +0.087 C 
ENDROOT
BRANCH   7  10
ATOM     10  C   UNL     1       0.328 -10.187  26.895  0.00  0.00    +0.060 C 
ATOM     11  N   UNL     1      -0.252  -9.702  25.802  0.00  0.00    -0.246 NA
ATOM     12  C   UNL     1      -0.350 -10.429  24.650  0.00  0.00    +0.119 C 
ATOM     13  C   UNL     1       0.189 -11.704  24.679  0.00  0.00    +0.118 C 
ATOM     14  N   UNL     1       0.092 -12.427  23.541  0.00  0.00    -0.239 NA
ATOM     15  C   UNL     1       0.604 -13.656  23.544  0.00  0.00    +0.120 C 
ATOM     16  C   UNL     1       1.213 -14.199  24.650  0.00  0.00    +0.119 C 
ATOM     17  N   UNL     1       1.319 -13.490  25.804  0.00  0.00    -0.241 NA
ATOM     18  C   UNL     1       0.798 -12.251  25.784  0.00  0.00    +0.102 C 
ATOM     19  C   UNL     1       0.862 -11.448  26.926  0.00  0.00    +0.035 C 
ENDBRANCH   7  10
BRANCH   4  20
ATOM     20  C   UNL     1       0.914  -4.833  27.098  0.00  0.00    +0.030 C 
ATOM     21  C   UNL     1      -0.303  -4.396  27.568  0.00  0.00    +0.066 C 
ATOM     22  N   UNL     1      -0.691  -3.096  27.507  0.00  0.00    -0.266 N 
ATOM     23  C   UNL     1       0.138  -2.207  26.972  0.00  0.00    +0.328 C 
ATOM     24  O   UNL     1      -0.245  -0.992  26.925  0.00  0.00    -0.250 OA
ATOM     25  N   UNL     1       1.331  -2.591  26.504  0.00  0.00    -0.161 NA
ATOM     26  C   UNL     1       1.741  -3.881  26.553  0.00  0.00    +0.091 C 
ATOM     27  H   UNL     1      -1.570  -2.818  27.853  0.00  0.00    +0.157 HD
ENDBRANCH   4  20
BRANCH   9  28
ATOM     28  N   UNL     1      -0.469  -7.042  30.159  0.00  0.00    -0.227 N 
ATOM     29  C   UNL     1       0.461  -6.472  31.056  0.00  0.00    +0.249 C 
ATOM     30  O   UNL     1       1.088  -5.464  30.679  0.00  0.00    -0.273 OA
ATOM     31  C   UNL     1       0.692  -7.030  32.385  0.00  0.00    +0.177 C 
ATOM     32  N   UNL     1      -0.194  -8.138  32.633  0.00  0.00    -0.174 NA
ATOM     33  C   UNL     1      -1.572  -7.777  32.271  0.00  0.00    +0.275 C 
ATOM     34  C   UNL     1      -1.650  -7.639  30.771  0.00  0.00    +0.276 C 
ATOM     35  O   UNL     1      -2.650  -8.018  30.193  0.00  0.00    -0.270 OA
BRANCH  33  36
ATOM     36  O   UNL     1      -1.789  -6.514  32.816  0.00  0.00    -0.273 OA
BRANCH  36  37
ATOM     37  P   UNL     1      -3.434  -6.306  33.142  0.00  0.00    +0.305 P 
ATOM     38  S   UNL     1      -4.009  -5.018  32.140  0.00  0.00    +0.022 S 
BRANCH  37  39
ATOM     39  O   UNL     1      -3.675  -5.929  34.772  0.00  0.00    -0.327 OA
ATOM     40  H   UNL     1      -2.817  -5.827  35.211  0.00  0.00    +0.219 HD
ENDBRANCH  37  39
BRANCH  37  41
ATOM     41  O   UNL     1      -4.303  -7.711  32.751  0.00  0.00    -0.327 OA
ATOM     42  H   UNL     1      -4.265  -7.858  31.793  0.00  0.00    +0.219 HD
ENDBRANCH  37  41
ENDBRANCH  36  37
ENDBRANCH  33  36
ENDBRANCH   9  28
TORSDOF 7
ENDMDL
