MODEL 1
REMARK VINA RESULT:    -8.922      0.000      0.000
REMARK INTER + INTRA:         -17.564
REMARK INTER:                 -14.660
REMARK INTRA:                  -2.904
REMARK UNBOUND:                -2.904
REMARK  Name = =
REMARK  14 active torsions:
REMARK  status: ('A' for Active; 'I' for Inactive)
REMARK    1  A    between atoms: C_10  and  S_21
REMARK    2  A    between atoms: C_12  and  O_30
REMARK    3  A    between atoms: S_21  and  P_22
REMARK    4  A    between atoms: P_22  and  O_24
REMARK    5  A    between atoms: P_22  and  O_25
REMARK    6  A    between atoms: O_25  and  P_26
REMARK    7  A    between atoms: P_26  and  O_28
REMARK    8  A    between atoms: P_26  and  O_29
REMARK    9  A    between atoms: O_30  and  P_31
REMARK   10  A    between atoms: P_31  and  O_33
REMARK   11  A    between atoms: P_31  and  O_34
REMARK   12  A    between atoms: O_34  and  P_35
REMARK   13  A    between atoms: P_35  and  O_37
REMARK   14  A    between atoms: P_35  and  O_38
REMARK                            x       y       z     vdW  Elec       q    Type
REMARK                         _______ _______ _______ _____ _____    ______ ____
ROOT
ATOM      1  C   UNL     1      -1.137  -5.999  30.562  0.00  0.00    +0.000 C 
ATOM      2  C   UNL     1      -2.232  -5.943  31.405  0.00  0.00    +0.000 C 
ATOM      3  C   UNL     1      -3.225  -5.020  31.092  0.00  0.00    +0.000 C 
ATOM      4  C   UNL     1      -3.109  -4.203  29.986  0.00  0.00    +0.000 C 
ATOM      5  C   UNL     1      -2.017  -4.261  29.148  0.00  0.00    +0.000 C 
ATOM      6  C   UNL     1      -1.031  -5.170  29.449  0.00  0.00    +0.003 C 
ATOM      7  C   UNL     1       0.099  -5.298  28.664  0.00  0.00    +0.035 C 
ATOM      8  C   UNL     1       1.094  -6.234  28.994  0.00  0.00    +0.003 C 
ATOM      9  C   UNL     1       2.217  -6.337  28.185  0.00  0.00    +0.006 C 
ATOM     10  C   UNL     1       2.386  -5.551  27.072  0.00  0.00    +0.026 C 
ATOM     11  C   UNL     1       1.444  -4.652  26.745  0.00  0.00    +0.043 C 
ATOM     12  C   UNL     1       0.291  -4.525  27.551  0.00  0.00    +0.149 C 
ATOM     13  C   UNL     1       0.956  -7.036  30.099  0.00  0.00    +0.000 C 
ATOM     14  C   UNL     1      -0.162  -6.925  30.893  0.00  0.00    +0.000 C 
ATOM     15  C   UNL     1      -0.253  -7.760  32.002  0.00  0.00    +0.000 C 
ATOM     16  C   UNL     1      -1.359  -7.666  32.808  0.00  0.00    +0.000 C 
ATOM     17  C   UNL     1      -2.352  -6.761  32.516  0.00  0.00    +0.000 C 
ATOM     18  C   UNL     1      -3.455  -6.695  33.354  0.00  0.00    +0.000 C 
ATOM     19  C   UNL     1      -4.423  -5.780  33.029  0.00  0.00    +0.000 C 
ATOM     20  C   UNL     1      -4.318  -4.957  31.925  0.00  0.00    +0.000 C 
ENDROOT
BRANCH  10  21
ATOM     21  S   UNL     1       3.882  -5.791  26.122  0.00  0.00    -0.082 S 
ATOM     22  H   UNL     1       3.617  -5.785  24.788  0.00  0.00    +0.108 HD
BRANCH  21  23
ATOM     23  P   UNL     1       4.974  -4.275  26.617  0.00  0.00    +0.389 P 
ATOM     24  O   UNL     1       6.382  -4.874  26.592  0.00  0.00    -0.246 OA
BRANCH  23  25
ATOM     25  O   UNL     1       4.597  -3.758  28.160  0.00  0.00    -0.316 OA
ATOM     26  H   UNL     1       3.653  -3.907  28.329  0.00  0.00    +0.221 HD
ENDBRANCH  23  25
BRANCH  23  27
ATOM     27  O   UNL     1       4.770  -3.109  25.439  0.00  0.00    -0.201 OA
BRANCH  27  28
ATOM     28  P   UNL     1       6.171  -2.141  25.443  0.00  0.00    +0.480 P 
ATOM     29  O   UNL     1       5.780  -0.831  24.752  0.00  0.00    -0.227 OA
BRANCH  28  30
ATOM     30  O   UNL     1       6.657  -1.756  26.999  0.00  0.00    -0.302 OA
ATOM     31  H   UNL     1       7.518  -2.166  27.179  0.00  0.00    +0.222 HD
ENDBRANCH  28  30
BRANCH  28  32
ATOM     32  O   UNL     1       7.395  -2.831  24.520  0.00  0.00    -0.302 OA
ATOM     33  H   UNL     1       8.036  -3.265  25.105  0.00  0.00    +0.222 HD
ENDBRANCH  28  32
ENDBRANCH  27  28
ENDBRANCH  23  27
ENDBRANCH  21  23
ENDBRANCH  10  21
BRANCH  12  34
ATOM     34  O   UNL     1      -0.635  -3.586  27.162  0.00  0.00    -0.402 OA
BRANCH  34  35
ATOM     35  P   UNL     1      -0.244  -1.932  26.975  0.00  0.00    +0.539 P 
ATOM     36  O   UNL     1      -1.523  -1.101  26.857  0.00  0.00    -0.215 OA
BRANCH  35  37
ATOM     37  O   UNL     1       0.600  -1.347  28.314  0.00  0.00    -0.293 OA
ATOM     38  H   UNL     1       1.035  -0.513  28.081  0.00  0.00    +0.223 HD
ENDBRANCH  35  37
BRANCH  35  39
ATOM     39  O   UNL     1       0.699  -1.666  25.611  0.00  0.00    -0.176 OA
BRANCH  39  40
ATOM     40  P   UNL     1       2.070  -0.733  25.979  0.00  0.00    +0.482 P 
ATOM     41  O   UNL     1       1.590   0.609  26.459  0.00  0.00    -0.227 OA
BRANCH  40  42
ATOM     42  O   UNL     1       3.059  -0.571  24.616  0.00  0.00    -0.302 OA
ATOM     43  H   UNL     1       3.667  -1.325  24.566  0.00  0.00    +0.222 HD
ENDBRANCH  40  42
BRANCH  40  44
ATOM     44  O   UNL     1       2.967  -1.475  27.205  0.00  0.00    -0.302 OA
ATOM     45  H   UNL     1       3.610  -2.085  26.812  0.00  0.00    +0.222 HD
ENDBRANCH  40  44
ENDBRANCH  39  40
ENDBRANCH  35  39
ENDBRANCH  34  35
ENDBRANCH  12  34
TORSDOF 14
ENDMDL
