REMARK  Name = =
REMARK  0 active torsions:
REMARK  status: ('A' for Active; 'I' for Inactive)
REMARK                            x       y       z     vdW  Elec       q    Type
REMARK                         _______ _______ _______ _____ _____    ______ ____
ROOT
ATOM      1  N   UNL     1      52.551 157.110  27.202  0.00  0.00    -0.266 NA
ATOM      2  C   UNL     1      52.021 156.395  28.184  0.00  0.00    +0.148 C 
ATOM      3  C   UNL     1      52.343 154.990  28.015  0.00  0.00    -0.017 C 
ATOM      4  C   UNL     1      53.064 154.926  26.924  0.00  0.00    +0.011 C 
ATOM      5  C   UNL     1      53.248 156.227  26.331  0.00  0.00    +0.076 C 
ATOM      6  C   UNL     1      53.953 156.309  25.189  0.00  0.00    +0.019 C 
ATOM      7  C   UNL     1      54.526 155.080  24.602  0.00  0.00    +0.002 C 
ATOM      8  C   UNL     1      54.369 153.867  25.177  0.00  0.00    -0.000 C 
ATOM      9  C   UNL     1      53.634 153.700  26.403  0.00  0.00    -0.002 C 
ATOM     10  C   UNL     1      52.723 152.581  26.592  0.00  0.00    -0.010 C 
ATOM     11  C   UNL     1      52.660 151.510  25.809  0.00  0.00    -0.028 C 
ATOM     12  C   UNL     1      51.649 150.462  26.177  0.00  0.00    +0.045 C 
ATOM     13  C   UNL     1      51.658 150.190  27.660  0.00  0.00    +0.094 C 
ATOM     14  N   UNL     1      51.780 151.353  28.466  0.00  0.00    -0.214 NA
ATOM     15  C   UNL     1      51.770 152.595  27.745  0.00  0.00    +0.099 C 
ATOM     16  C   UNL     1      52.031 153.704  28.745  0.00  0.00    +0.046 C 
ENDROOT
TORSDOF 0
