REMARK  Name = =
REMARK  1 active torsions:
REMARK  status: ('A' for Active; 'I' for Inactive)
REMARK    1  A    between atoms: N_3  and  S_4
REMARK                            x       y       z     vdW  Elec       q    Type
REMARK                         _______ _______ _______ _____ _____    ______ ____
ROOT
ATOM      1  C   UNL     1      51.704 156.206  29.156  0.00  0.00    +0.319 C 
ATOM      2  O   UNL     1      51.073 155.134  29.457  0.00  0.00    -0.264 OA
ATOM      3  N   UNL     1      52.462 156.294  27.960  0.00  0.00    -0.184 N 
ATOM      4  H   UNL     1      52.943 157.126  27.745  0.00  0.00    +0.176 HD
ENDROOT
BRANCH   3   5
ATOM      5  S   UNL     1      52.546 154.954  26.883  0.00  0.00    +0.035 S 
ATOM      6  O   UNL     1      53.182 153.761  27.576  0.00  0.00    -0.158 OA
ATOM      7  O   UNL     1      53.340 155.315  25.651  0.00  0.00    -0.158 OA
ATOM      8  H   UNL     1      51.281 154.626  26.508  0.00  0.00    +0.233 HD
ENDBRANCH   3   5
TORSDOF 1
