REMARK  Name = =
REMARK  3 active torsions:
REMARK  status: ('A' for Active; 'I' for Inactive)
REMARK    1  A    between atoms: C_1  and  O_7
REMARK    2  A    between atoms: N_3  and  S_4
REMARK    3  A    between atoms: O_7  and  O_8
REMARK                            x       y       z     vdW  Elec       q    Type
REMARK                         _______ _______ _______ _____ _____    ______ ____
ROOT
ATOM      1  C   UNL     1      51.759 155.705  28.708  0.00  0.00    +0.450 C 
ATOM      2  O   UNL     1      50.601 155.287  28.484  0.00  0.00    -0.222 OA
ATOM      3  N   UNL     1      52.854 155.003  28.167  0.00  0.00    -0.155 N 
ATOM      4  H   UNL     1      53.776 155.309  28.328  0.00  0.00    +0.179 HD
ENDROOT
BRANCH   3   5
ATOM      5  S   UNL     1      52.547 153.595  27.216  0.00  0.00    +0.037 S 
ATOM      6  O   UNL     1      53.747 152.704  27.344  0.00  0.00    -0.158 OA
ATOM      7  O   UNL     1      52.297 154.015  25.795  0.00  0.00    -0.158 OA
ATOM      8  H   UNL     1      51.446 152.915  27.636  0.00  0.00    +0.233 HD
ENDBRANCH   3   5
BRANCH   1   9
ATOM      9  O   UNL     1      51.903 156.855  29.491  0.00  0.00    -0.278 OA
BRANCH   9  10
ATOM     10  O   UNL     1      50.871 157.635  29.827  0.00  0.00    -0.197 OA
ATOM     11  H   UNL     1      51.188 158.374  30.369  0.00  0.00    +0.268 HD
ENDBRANCH   9  10
ENDBRANCH   1   9
TORSDOF 3
