REMARK  Name = =
REMARK  0 active torsions:
REMARK  status: ('A' for Active; 'I' for Inactive)
REMARK                            x       y       z     vdW  Elec       q    Type
REMARK                         _______ _______ _______ _____ _____    ______ ____
ROOT
ATOM      1  N   UNL     1      53.203 157.075  27.627  0.00  0.00    -0.268 NA
ATOM      2  C   UNL     1      52.287 156.451  28.351  0.00  0.00    +0.122 C 
ATOM      3  C   UNL     1      51.885 155.241  27.696  0.00  0.00    -0.019 C 
ATOM      4  C   UNL     1      52.576 155.174  26.583  0.00  0.00    +0.011 C 
ATOM      5  C   UNL     1      53.446 156.305  26.462  0.00  0.00    +0.076 C 
ATOM      6  C   UNL     1      54.248 156.372  25.381  0.00  0.00    +0.019 C 
ATOM      7  C   UNL     1      54.153 155.304  24.397  0.00  0.00    +0.002 C 
ATOM      8  C   UNL     1      53.315 154.270  24.514  0.00  0.00    -0.000 C 
ATOM      9  C   UNL     1      52.419 154.101  25.607  0.00  0.00    -0.002 C 
ATOM     10  C   UNL     1      52.093 152.859  26.242  0.00  0.00    -0.010 C 
ATOM     11  C   UNL     1      52.483 151.689  25.771  0.00  0.00    -0.028 C 
ATOM     12  C   UNL     1      52.124 150.400  26.462  0.00  0.00    +0.045 C 
ATOM     13  C   UNL     1      51.825 150.590  27.915  0.00  0.00    +0.094 C 
ATOM     14  N   UNL     1      51.958 151.930  28.402  0.00  0.00    -0.214 NA
ATOM     15  C   UNL     1      51.274 152.811  27.511  0.00  0.00    +0.099 C 
ATOM     16  C   UNL     1      50.935 154.161  28.066  0.00  0.00    +0.046 C 
ATOM     17  C   UNL     1      51.805 156.990  29.638  0.00  0.00    +0.031 C 
ENDROOT
TORSDOF 0
