REMARK  Name = =
REMARK  4 active torsions:
REMARK  status: ('A' for Active; 'I' for Inactive)
REMARK    1  A    between atoms: S_1  and  C_4
REMARK    2  A    between atoms: S_1  and  N_14
REMARK    3  A    between atoms: C_12  and  O_15
REMARK    4  A    between atoms: O_15  and  O_16
REMARK                            x       y       z     vdW  Elec       q    Type
REMARK                         _______ _______ _______ _____ _____    ______ ____
ROOT
ATOM      1  S   UNL     1      51.662 154.889  28.546  0.00  0.00    +0.078 S 
ATOM      2  O   UNL     1      50.171 155.036  28.502  0.00  0.00    -0.150 OA
ATOM      3  O   UNL     1      51.970 153.888  29.650  0.00  0.00    -0.150 OA
ENDROOT
BRANCH   1   4
ATOM      4  C   UNL     1      52.338 154.304  27.077  0.00  0.00    +0.126 C 
ATOM      5  C   UNL     1      52.650 152.982  26.837  0.00  0.00    +0.032 C 
ATOM      6  C   UNL     1      53.195 152.618  25.612  0.00  0.00    +0.070 C 
ATOM      7  C   UNL     1      53.443 153.527  24.611  0.00  0.00    +0.068 C 
ATOM      8  C   UNL     1      53.139 154.844  24.837  0.00  0.00    +0.014 C 
ATOM      9  C   UNL     1      52.597 155.199  26.059  0.00  0.00    +0.021 C 
ATOM     10 CL   UNL     1      54.128 153.104  23.063  0.00  0.00    -0.081 Cl
ATOM     11 CL   UNL     1      53.593 150.928  25.302  0.00  0.00    -0.081 Cl
ENDBRANCH   1   4
BRANCH   1  14
ATOM     12  C   UNL     1      51.645 157.406  29.648  0.00  0.00    +0.450 C 
ATOM     13  O   UNL     1      50.397 157.223  29.851  0.00  0.00    -0.222 OA
ATOM     14  N   UNL     1      52.387 156.391  29.036  0.00  0.00    -0.149 N 
ATOM     15  H   UNL     1      53.349 156.531  28.878  0.00  0.00    +0.180 HD
BRANCH  12  16
ATOM     16  O   UNL     1      52.157 158.628  30.064  0.00  0.00    -0.278 OA
BRANCH  16  17
ATOM     17  O   UNL     1      51.414 159.575  30.643  0.00  0.00    -0.197 OA
ATOM     18  H   UNL     1      51.971 160.341  30.851  0.00  0.00    +0.268 HD
ENDBRANCH  16  17
ENDBRANCH  12  16
ENDBRANCH   1  14
TORSDOF 4
