REMARK  Name = =
REMARK  2 active torsions:
REMARK  status: ('A' for Active; 'I' for Inactive)
REMARK    1  A    between atoms: C_2  and  C_17
REMARK    2  A    between atoms: C_17  and  C_18
REMARK                            x       y       z     vdW  Elec       q    Type
REMARK                         _______ _______ _______ _____ _____    ______ ____
ROOT
ATOM      1  N   UNL     1      52.684 157.359  27.433  0.00  0.00    -0.268 NA
ATOM      2  C   UNL     1      52.189 156.620  28.405  0.00  0.00    +0.127 C 
ATOM      3  C   UNL     1      52.485 155.250  28.177  0.00  0.00    -0.019 C 
ATOM      4  C   UNL     1      53.169 155.183  27.047  0.00  0.00    +0.011 C 
ATOM      5  C   UNL     1      53.340 156.505  26.497  0.00  0.00    +0.076 C 
ATOM      6  C   UNL     1      53.990 156.612  25.355  0.00  0.00    +0.019 C 
ATOM      7  C   UNL     1      54.516 155.401  24.718  0.00  0.00    +0.002 C 
ATOM      8  C   UNL     1      54.369 154.179  25.244  0.00  0.00    -0.000 C 
ATOM      9  C   UNL     1      53.689 153.958  26.474  0.00  0.00    -0.002 C 
ATOM     10  C   UNL     1      52.711 152.899  26.635  0.00  0.00    -0.010 C 
ATOM     11  C   UNL     1      52.422 151.936  25.775  0.00  0.00    -0.028 C 
ATOM     12  C   UNL     1      51.369 150.975  26.196  0.00  0.00    +0.045 C 
ATOM     13  C   UNL     1      51.682 150.508  27.599  0.00  0.00    +0.094 C 
ATOM     14  N   UNL     1      52.158 151.545  28.469  0.00  0.00    -0.214 NA
ATOM     15  C   UNL     1      51.924 152.854  27.899  0.00  0.00    +0.099 C 
ATOM     16  C   UNL     1      52.204 153.980  28.850  0.00  0.00    +0.046 C 
ENDROOT
BRANCH   2  17
ATOM     17  C   UNL     1      51.432 157.201  29.563  0.00  0.00    +0.062 C 
BRANCH  17  18
ATOM     18  C   UNL     1      51.566 158.683  29.604  0.00  0.00    +0.018 C 
ATOM     19  S   UNL     1      50.524 159.554  30.045  0.00  0.00    -0.055 S 
ENDBRANCH  17  18
ENDBRANCH   2  17
TORSDOF 2
