REMARK  Name = =
REMARK  3 active torsions:
REMARK  status: ('A' for Active; 'I' for Inactive)
REMARK    1  A    between atoms: C_2  and  C_17
REMARK    2  A    between atoms: C_17  and  C_18
REMARK    3  A    between atoms: C_18  and  C_20
REMARK                            x       y       z     vdW  Elec       q    Type
REMARK                         _______ _______ _______ _____ _____    ______ ____
ROOT
ATOM      1  N   UNL     1      53.495 156.673  26.961  0.00  0.00    -0.268 NA
ATOM      2  C   UNL     1      52.681 155.914  27.679  0.00  0.00    +0.126 C 
ATOM      3  C   UNL     1      52.437 154.654  26.997  0.00  0.00    -0.019 C 
ATOM      4  C   UNL     1      53.122 154.716  25.887  0.00  0.00    +0.011 C 
ATOM      5  C   UNL     1      53.834 155.967  25.776  0.00  0.00    +0.076 C 
ATOM      6  C   UNL     1      54.611 156.184  24.697  0.00  0.00    +0.019 C 
ATOM      7  C   UNL     1      54.674 155.144  23.675  0.00  0.00    +0.002 C 
ATOM      8  C   UNL     1      53.993 153.979  23.752  0.00  0.00    -0.000 C 
ATOM      9  C   UNL     1      53.137 153.684  24.873  0.00  0.00    -0.002 C 
ATOM     10  C   UNL     1      53.148 152.378  25.507  0.00  0.00    -0.010 C 
ATOM     11  C   UNL     1      53.738 151.292  25.010  0.00  0.00    -0.028 C 
ATOM     12  C   UNL     1      53.640 150.039  25.809  0.00  0.00    +0.045 C 
ATOM     13  C   UNL     1      52.178 149.874  26.165  0.00  0.00    +0.094 C 
ATOM     14  N   UNL     1      51.683 150.996  26.899  0.00  0.00    -0.214 NA
ATOM     15  C   UNL     1      52.462 152.190  26.814  0.00  0.00    +0.099 C 
ATOM     16  C   UNL     1      51.661 153.388  27.275  0.00  0.00    +0.046 C 
ENDROOT
BRANCH   2  17
ATOM     17  C   UNL     1      52.092 156.280  28.994  0.00  0.00    +0.062 C 
BRANCH  17  18
ATOM     18  C   UNL     1      52.438 157.679  29.308  0.00  0.00    +0.016 C 
ATOM     19  S   UNL     1      53.922 158.245  28.944  0.00  0.00    -0.055 S 
BRANCH  18  20
ATOM     20  C   UNL     1      51.506 158.604  29.938  0.00  0.00    +0.004 C 
ATOM     21  C   UNL     1      50.172 158.279  30.044  0.00  0.00    +0.019 C 
ATOM     22  C   UNL     1      49.279 159.143  30.636  0.00  0.00    +0.081 C 
ATOM     23  N   UNL     1      47.997 158.796  30.721  0.00  0.00    -0.244 NA
ATOM     24  C   UNL     1      47.114 159.635  31.300  0.00  0.00    +0.099 C 
ATOM     25  C   UNL     1      47.489 160.851  31.815  0.00  0.00    +0.021 C 
ATOM     26  C   UNL     1      48.798 161.239  31.744  0.00  0.00    +0.003 C 
ATOM     27  C   UNL     1      49.697 160.355  31.141  0.00  0.00    +0.018 C 
ATOM     28  C   UNL     1      51.031 160.695  31.043  0.00  0.00    +0.002 C 
ATOM     29  C   UNL     1      51.927 159.814  30.441  0.00  0.00    +0.000 C 
ENDBRANCH  18  20
ENDBRANCH  17  18
ENDBRANCH   2  17
TORSDOF 3
