REMARK  Name = =
REMARK  4 active torsions:
REMARK  status: ('A' for Active; 'I' for Inactive)
REMARK    1  A    between atoms: C_1  and  C_18
REMARK    2  A    between atoms: C_7  and  C_26
REMARK    3  A    between atoms: C_15  and  S_20
REMARK    4  A    between atoms: S_20  and  C_21
REMARK                            x       y       z     vdW  Elec       q    Type
REMARK                         _______ _______ _______ _____ _____    ______ ____
ROOT
ATOM      1  C   UNL     1       1.396  -8.450  27.416  0.00  0.00    +0.107 C 
ATOM      2  N   UNL     1       0.580  -9.533  27.310  0.00  0.00    -0.244 NA
ATOM      3  C   UNL     1       1.027 -10.760  26.958  0.00  0.00    +0.098 C 
ATOM      4  C   UNL     1       2.334 -10.953  26.696  0.00  0.00    +0.095 C 
ATOM      5  N   UNL     1       3.170  -9.912  26.798  0.00  0.00    -0.241 NA
ATOM      6  C   UNL     1       2.716  -8.668  27.150  0.00  0.00    +0.116 C 
ATOM      7  C   UNL     1       2.802 -12.203  26.226  0.00  0.00    -0.003 C 
ATOM      8  C   UNL     1       1.907 -13.228  26.035  0.00  0.00    -0.003 C 
ATOM      9  C   UNL     1       0.542 -13.037  26.307  0.00  0.00    +0.001 C 
ATOM     10  C   UNL     1       0.125 -11.823  26.759  0.00  0.00    +0.021 C 
ENDROOT
BRANCH   1  18
ATOM     11  N   UNL     1      -2.843  -7.364  30.081  0.00  0.00    -0.313 N 
ATOM     12  C   UNL     1      -1.726  -6.677  30.608  0.00  0.00    +0.302 C 
ATOM     13  O   UNL     1      -1.780  -6.170  31.732  0.00  0.00    -0.253 OA
ATOM     14  N   UNL     1      -0.510  -6.579  29.810  0.00  0.00    -0.251 N 
ATOM     15  C   UNL     1       0.579  -5.863  30.446  0.00  0.00    +0.161 C 
ATOM     16  C   UNL     1       1.837  -6.540  29.821  0.00  0.00    +0.174 C 
ATOM     17  O   UNL     1       1.734  -6.401  28.474  0.00  0.00    -0.346 OA
ATOM     18  C   UNL     1       0.786  -7.135  27.804  0.00  0.00    +0.176 C 
ATOM     19  C   UNL     1      -0.511  -7.214  28.525  0.00  0.00    +0.131 C 
ATOM     20  H   UNL     1      -3.670  -7.437  30.610  0.00  0.00    +0.146 HD
ATOM     21  H   UNL     1      -2.794  -7.769  29.185  0.00  0.00    +0.146 HD
BRANCH  15  22
ATOM     22  S   UNL     1       0.728  -4.135  30.066  0.00  0.00    -0.052 S 
BRANCH  22  23
ATOM     23  C   UNL     1      -0.776  -3.210  30.053  0.00  0.00    +0.209 A 
ATOM     24  N   UNL     1      -1.858  -3.144  30.815  0.00  0.00    -0.234 N 
ATOM     25  N   UNL     1      -2.655  -2.182  30.332  0.00  0.00    -0.046 NA
ATOM     26  N   UNL     1      -2.098  -1.637  29.278  0.00  0.00    -0.022 NA
ATOM     27  N   UNL     1      -0.947  -2.233  29.075  0.00  0.00    -0.102 NA
ATOM     28  H   UNL     1      -2.044  -3.706  31.602  0.00  0.00    +0.193 HD
ENDBRANCH  22  23
ENDBRANCH  15  22
ENDBRANCH   1  18
BRANCH   7  29
ATOM     29  C   UNL     1       4.243 -12.414  26.124  0.00  0.00    +0.033 C 
ATOM     30  C   UNL     1       4.779 -12.642  24.712  0.00  0.00    +0.031 C 
ATOM     31  C   UNL     1       6.083 -13.326  25.065  0.00  0.00    -0.026 C 
ATOM     32  C   UNL     1       5.837 -14.167  26.149  0.00  0.00    -0.026 C 
ATOM     33  C   UNL     1       4.423 -13.945  26.544  0.00  0.00    +0.031 C 
ATOM     34  C   UNL     1       6.807 -14.972  26.678  0.00  0.00    -0.005 C 
ATOM     35  C   UNL     1       8.076 -14.979  26.156  0.00  0.00    -0.000 C 
ATOM     36  C   UNL     1       8.350 -14.159  25.091  0.00  0.00    -0.000 C 
ATOM     37  C   UNL     1       7.352 -13.338  24.551  0.00  0.00    -0.005 C 
ENDBRANCH   7  29
TORSDOF 4
