MODEL 1
REMARK VINA RESULT:   -10.811      0.000      0.000
REMARK INTER + INTRA:         -16.506
REMARK INTER:                 -14.602
REMARK INTRA:                  -1.903
REMARK UNBOUND:                -1.903
REMARK  Name = =
REMARK  6 active torsions:
REMARK  status: ('A' for Active; 'I' for Inactive)
REMARK    1  A    between atoms: N_1  and  C_23
REMARK    2  A    between atoms: C_6  and  N_10
REMARK    3  A    between atoms: C_9  and  C_31
REMARK    4  A    between atoms: C_24  and  S_25
REMARK    5  A    between atoms: S_25  and  N_28
REMARK    6  A    between atoms: C_35  and  C_37
REMARK                            x       y       z     vdW  Elec       q    Type
REMARK                         _______ _______ _______ _____ _____    ______ ____
ROOT
ATOM      1  N   UNL     1       2.056  -0.048  22.579  0.00  0.00    -0.296 N 
ATOM      2  C   UNL     1       2.374  -0.235  23.966  0.00  0.00    +0.118 C 
ATOM      3  C   UNL     1       2.930  -1.650  24.038  0.00  0.00    -0.001 C 
ATOM      4  C   UNL     1       3.430  -1.923  22.800  0.00  0.00    +0.009 C 
ATOM      5  C   UNL     1       3.232  -0.734  21.963  0.00  0.00    +0.119 C 
ATOM      6  C   UNL     1       3.996  -3.133  22.525  0.00  0.00    +0.051 C 
ATOM      7  C   UNL     1       4.070  -4.108  23.507  0.00  0.00    +0.015 C 
ATOM      8  C   UNL     1       3.565  -3.821  24.749  0.00  0.00    +0.004 C 
ATOM      9  C   UNL     1       2.991  -2.595  25.034  0.00  0.00    +0.031 C 
ENDROOT
BRANCH   6  10
ATOM     10  N   UNL     1       4.548  -3.467  21.239  0.00  0.00    -0.259 N 
ATOM     11  C   UNL     1       3.629  -4.080  20.366  0.00  0.00    +0.229 C 
ATOM     12  O   UNL     1       2.503  -4.419  20.789  0.00  0.00    -0.275 OA
ATOM     13  C   UNL     1       3.857  -4.386  18.924  0.00  0.00    +0.086 C 
ATOM     14  C   UNL     1       5.079  -5.246  18.738  0.00  0.00    +0.010 C 
ATOM     15  C   UNL     1       6.319  -4.452  18.999  0.00  0.00    +0.002 C 
ATOM     16  C   UNL     1       6.654  -4.350  20.472  0.00  0.00    +0.022 C 
ATOM     17  C   UNL     1       5.931  -3.133  21.035  0.00  0.00    +0.098 C 
ENDBRANCH   6  10
BRANCH   1  23
ATOM     18  C   UNL     1      -1.057   0.724  20.693  0.00  0.00    +0.049 C 
ATOM     19  C   UNL     1      -1.062   2.185  21.073  0.00  0.00    +0.014 C 
ATOM     20  C   UNL     1       0.291   2.722  20.646  0.00  0.00    +0.071 C 
ATOM     21  C   UNL     1       1.329   1.735  20.970  0.00  0.00    +0.187 C 
ATOM     22  O   UNL     1       2.514   1.946  20.550  0.00  0.00    -0.290 OA
ATOM     23  C   UNL     1       1.084   0.490  21.765  0.00  0.00    +0.098 C 
ATOM     24  C   UNL     1      -0.106  -0.012  21.623  0.00  0.00    +0.119 C 
BRANCH  24  25
ATOM     25  S   UNL     1      -0.614  -1.406  22.446  0.00  0.00    +0.073 S 
ATOM     26  O   UNL     1      -0.624  -1.430  23.908  0.00  0.00    -0.150 OA
ATOM     27  O   UNL     1       0.099  -2.670  21.890  0.00  0.00    -0.150 OA
BRANCH  25  28
ATOM     28  N   UNL     1      -2.261  -1.714  21.981  0.00  0.00    -0.178 N 
ATOM     29  C   UNL     1      -3.388  -1.120  22.564  0.00  0.00    +0.319 C 
ATOM     30  O   UNL     1      -3.186  -0.297  23.500  0.00  0.00    -0.264 OA
ATOM     31  H   UNL     1      -2.413  -2.357  21.251  0.00  0.00    +0.177 HD
ENDBRANCH  25  28
ENDBRANCH  24  25
ENDBRANCH   1  23
BRANCH   9  32
ATOM     32  C   UNL     1       2.486  -2.314  26.382  0.00  0.00    +0.150 C 
ATOM     33  N   UNL     1       3.137  -1.444  27.163  0.00  0.00    -0.228 NA
ATOM     34  C   UNL     1       2.718  -1.176  28.394  0.00  0.00    +0.253 C 
ATOM     35  N   UNL     1       1.620  -1.793  28.850  0.00  0.00    -0.232 NA
ATOM     36  C   UNL     1       0.930  -2.688  28.076  0.00  0.00    +0.127 C 
ATOM     37  N   UNL     1       1.380  -2.934  26.846  0.00  0.00    -0.180 NA
BRANCH  36  38
ATOM     38  C   UNL     1      -0.244  -3.307  28.685  0.00  0.00    +0.056 C 
ATOM     39  C   UNL     1      -0.703  -4.591  28.029  0.00  0.00    +0.007 C 
ATOM     40  C   UNL     1      -2.158  -4.618  28.547  0.00  0.00    +0.000 C 
ATOM     41  C   UNL     1      -1.993  -4.695  30.071  0.00  0.00    +0.000 C 
ATOM     42  C   UNL     1      -1.658  -6.147  30.437  0.00  0.00    +0.000 C 
ATOM     43  C   UNL     1      -2.942  -6.779  30.876  0.00  0.00    +0.001 C 
ATOM     44  C   UNL     1      -3.342  -6.260  32.229  0.00  0.00    +0.007 C 
ATOM     45  C   UNL     1      -3.238  -4.754  32.215  0.00  0.00    +0.000 C 
ATOM     46  C   UNL     1      -3.190  -4.196  30.811  0.00  0.00    +0.000 C 
ATOM     47  C   UNL     1      -2.456  -6.785  33.334  0.00  0.00    +0.064 C 
ATOM     48  C   UNL     1      -1.738  -8.019  32.949  0.00  0.00    +0.151 C 
ATOM     49  O   UNL     1      -0.651  -8.256  33.417  0.00  0.00    -0.296 OA
ATOM     50  C   UNL     1      -2.356  -8.955  31.996  0.00  0.00    +0.065 C 
ATOM     51  C   UNL     1      -2.945  -8.271  30.783  0.00  0.00    +0.008 C 
ATOM     52  C   UNL     1      -1.065  -6.780  29.208  0.00  0.00    +0.000 C 
ATOM     53  C   UNL     1      -0.031  -5.812  28.611  0.00  0.00    +0.000 C 
ATOM     54  C   UNL     1      -2.624  -3.245  28.192  0.00  0.00    +0.000 C 
ATOM     55  C   UNL     1      -1.440  -2.366  28.438  0.00  0.00    +0.007 C 
ENDBRANCH  36  38
ENDBRANCH   9  32
TORSDOF 6
ENDMDL
