MODEL 1
REMARK VINA RESULT:    -9.942      0.000      0.000
REMARK INTER + INTRA:         -16.443
REMARK INTER:                 -14.010
REMARK INTRA:                  -2.433
REMARK UNBOUND:                -2.433
REMARK  Name = =
REMARK  7 active torsions:
REMARK  status: ('A' for Active; 'I' for Inactive)
REMARK    1  A    between atoms: N_1  and  C_37
REMARK    2  A    between atoms: C_36  and  N_41
REMARK    3  A    between atoms: C_38  and  O_56
REMARK    4  A    between atoms: C_40  and  N_52
REMARK    5  A    between atoms: C_44  and  N_47
REMARK    6  A    between atoms: N_52  and  S_53
REMARK    7  A    between atoms: O_56  and  S_57
REMARK                            x       y       z     vdW  Elec       q    Type
REMARK                         _______ _______ _______ _____ _____    ______ ____
ROOT
ATOM      1  N   UNL     1       3.377  -6.577  26.056  0.00  0.00    -0.244 N 
ATOM      2  C   UNL     1       4.464  -7.400  26.619  0.00  0.00    +0.184 C 
ATOM      3  C   UNL     1       5.658  -7.383  25.735  0.00  0.00    +0.247 C 
ATOM      4  O   UNL     1       5.491  -7.374  24.489  0.00  0.00    -0.273 OA
ATOM      5  N   UNL     1       6.984  -7.376  26.248  0.00  0.00    -0.272 N 
ATOM      6  C   UNL     1       7.269  -7.622  27.620  0.00  0.00    +0.152 C 
ATOM      7  C   UNL     1       8.699  -7.178  27.809  0.00  0.00    +0.031 C 
ATOM      8  C   UNL     1       9.314  -7.547  26.470  0.00  0.00    +0.024 C 
ATOM      9  C   UNL     1       8.238  -7.130  25.520  0.00  0.00    +0.094 C 
ATOM     10  C   UNL     1       7.071  -9.014  28.072  0.00  0.00    +0.241 C 
ATOM     11  O   UNL     1       7.474  -9.280  29.248  0.00  0.00    -0.273 OA
ATOM     12  N   UNL     1       6.487 -10.061  27.337  0.00  0.00    -0.303 N 
ATOM     13  C   UNL     1       6.800 -10.422  25.969  0.00  0.00    +0.089 C 
ATOM     14  C   UNL     1       6.991 -11.943  25.850  0.00  0.00    +0.022 C 
ATOM     15  C   UNL     1       7.334 -12.228  24.415  0.00  0.00    +0.011 C 
ATOM     16  C   UNL     1       6.792 -13.558  23.931  0.00  0.00    +0.085 C 
ATOM     17  C   UNL     1       5.454 -13.836  24.495  0.00  0.00    +0.223 C 
ATOM     18  O   UNL     1       5.231 -14.866  25.208  0.00  0.00    -0.275 OA
ATOM     19  N   UNL     1       4.337 -12.983  24.280  0.00  0.00    -0.297 N 
ATOM     20  C   UNL     1       4.181 -12.163  23.098  0.00  0.00    +0.176 C 
ATOM     21  C   UNL     1       2.985 -12.517  22.303  0.00  0.00    +0.246 C 
ATOM     22  O   UNL     1       3.142 -12.940  21.132  0.00  0.00    -0.273 OA
ATOM     23  N   UNL     1       1.687 -12.367  22.887  0.00  0.00    -0.272 N 
ATOM     24  C   UNL     1       1.409 -11.482  23.990  0.00  0.00    +0.152 C 
ATOM     25  C   UNL     1       0.282 -12.173  24.755  0.00  0.00    +0.031 C 
ATOM     26  C   UNL     1      -0.336 -13.157  23.817  0.00  0.00    +0.024 C 
ATOM     27  C   UNL     1       0.437 -13.013  22.547  0.00  0.00    +0.094 C 
ATOM     28  C   UNL     1       0.888 -10.157  23.572  0.00  0.00    +0.241 C 
ATOM     29  O   UNL     1       0.181 -10.130  22.533  0.00  0.00    -0.273 OA
ATOM     30  N   UNL     1       1.138  -8.938  24.262  0.00  0.00    -0.295 N 
ATOM     31  C   UNL     1       2.422  -8.611  24.853  0.00  0.00    +0.176 C 
ATOM     32  C   UNL     1       2.510  -7.139  25.090  0.00  0.00    +0.250 C 
ATOM     33  O   UNL     1       1.786  -6.374  24.403  0.00  0.00    -0.273 OA
ATOM     34  H   UNL     1       5.801 -10.598  27.794  0.00  0.00    +0.149 HD
ATOM     35  H   UNL     1       3.635 -12.948  24.970  0.00  0.00    +0.150 HD
ATOM     36  H   UNL     1       0.405  -8.286  24.341  0.00  0.00    +0.150 HD
ENDROOT
BRANCH   1  40
ATOM     37  F   UNL     1       1.303  -3.463  29.052  0.00  0.00    -0.201 F 
ATOM     38  C   UNL     1       2.174  -3.715  28.048  0.00  0.00    +0.169 C 
ATOM     39  C   UNL     1       2.357  -4.976  27.529  0.00  0.00    +0.094 C 
ATOM     40  C   UNL     1       3.238  -5.244  26.508  0.00  0.00    +0.106 C 
ATOM     41  C   UNL     1       3.953  -4.184  26.005  0.00  0.00    +0.169 C 
ATOM     42  C   UNL     1       3.774  -2.890  26.529  0.00  0.00    +0.058 C 
ATOM     43  C   UNL     1       2.893  -2.643  27.546  0.00  0.00    +0.096 C 
BRANCH  39  44
ATOM     44  N   UNL     1       1.599  -6.032  28.098  0.00  0.00    -0.305 N 
ATOM     45  C   UNL     1       0.346  -6.509  27.600  0.00  0.00    +0.093 C 
ATOM     46  C   UNL     1      -0.171  -7.554  28.596  0.00  0.00    +0.043 C 
ATOM     47  C   UNL     1      -0.253  -6.858  29.938  0.00  0.00    +0.101 C 
ATOM     48  C   UNL     1       1.178  -6.711  30.434  0.00  0.00    +0.043 C 
ATOM     49  C   UNL     1       2.143  -6.693  29.291  0.00  0.00    +0.093 C 
BRANCH  47  50
ATOM     50  N   UNL     1      -1.000  -7.630  30.897  0.00  0.00    -0.193 N 
ATOM     51  N   UNL     1      -2.043  -8.401  30.690  0.00  0.00    -0.154 NA
ATOM     52  C   UNL     1      -2.459  -8.953  31.828  0.00  0.00    +0.218 C 
ATOM     53  N   UNL     1      -1.649  -8.514  32.798  0.00  0.00    -0.203 NA
ATOM     54  C   UNL     1      -0.738  -7.692  32.227  0.00  0.00    +0.186 C 
ENDBRANCH  47  50
ENDBRANCH  39  44
BRANCH  43  55
ATOM     55  N   UNL     1       2.695  -1.367  28.071  0.00  0.00    -0.219 N 
ATOM     56  H   UNL     1       3.242  -1.089  28.841  0.00  0.00    +0.173 HD
BRANCH  55  57
ATOM     57  S   UNL     1       1.554  -0.259  27.450  0.00  0.00    +0.033 S 
ATOM     58  O   UNL     1       1.955   0.455  26.219  0.00  0.00    -0.158 OA
ATOM     59  O   UNL     1       0.311  -1.061  27.120  0.00  0.00    -0.158 OA
ATOM     60  H   UNL     1       1.389   0.701  28.399  0.00  0.00    +0.233 HD
ENDBRANCH  55  57
ENDBRANCH  43  55
BRANCH  41  61
ATOM     61  O   UNL     1       4.848  -4.409  24.980  0.00  0.00    -0.444 OA
BRANCH  61  62
ATOM     62  S   UNL     1       4.517  -3.597  23.420  0.00  0.00    -0.061 S 
ATOM     63  C   UNL     1       5.997  -3.983  22.316  0.00  0.00    +0.101 C 
ATOM     64  C   UNL     1       5.757  -3.373  21.029  0.00  0.00    +0.003 C 
ATOM     65  C   UNL     1       5.124  -2.244  20.869  0.00  0.00    +0.060 C 
ATOM     66  N   UNL     1       4.615  -1.519  21.947  0.00  0.00    -0.274 N 
ATOM     67  C   UNL     1       4.399  -2.080  23.277  0.00  0.00    +0.158 C 
ATOM     68  C   UNL     1       3.302  -1.102  23.428  0.00  0.00    +0.086 C 
ATOM     69  C   UNL     1       4.121  -0.318  22.470  0.00  0.00    +0.215 C 
ATOM     70  O   UNL     1       4.301   0.894  22.225  0.00  0.00    -0.202 OA
ATOM     71  H   UNL     1       3.269  -4.065  23.150  0.00  0.00    +0.125 HD
ENDBRANCH  61  62
ENDBRANCH  41  61
ENDBRANCH   1  40
TORSDOF 7
ENDMDL
