REMARK  Name = =
REMARK  7 active torsions:
REMARK  status: ('A' for Active; 'I' for Inactive)
REMARK    1  A    between atoms: N_1  and  C_37
REMARK    2  A    between atoms: C_36  and  N_41
REMARK    3  A    between atoms: C_38  and  O_56
REMARK    4  A    between atoms: C_40  and  N_52
REMARK    5  A    between atoms: C_44  and  N_47
REMARK    6  A    between atoms: N_52  and  S_53
REMARK    7  A    between atoms: O_56  and  S_57
REMARK                            x       y       z     vdW  Elec       q    Type
REMARK                         _______ _______ _______ _____ _____    ______ ____
ROOT
ATOM      1  N   UNL     1       3.097  -7.537  23.028  0.00  0.00    -0.244 N 
ATOM      2  C   UNL     1       2.798  -8.524  24.083  0.00  0.00    +0.184 C 
ATOM      3  C   UNL     1       1.407  -9.030  23.959  0.00  0.00    +0.247 C 
ATOM      4  O   UNL     1       0.501  -8.236  23.602  0.00  0.00    -0.273 OA
ATOM      5  N   UNL     1       1.063 -10.383  24.231  0.00  0.00    -0.272 N 
ATOM      6  C   UNL     1       1.966 -11.284  24.862  0.00  0.00    +0.152 C 
ATOM      7  C   UNL     1       1.372 -12.654  24.640  0.00  0.00    +0.031 C 
ATOM      8  C   UNL     1      -0.116 -12.356  24.703  0.00  0.00    +0.024 C 
ATOM      9  C   UNL     1      -0.200 -11.076  23.936  0.00  0.00    +0.094 C 
ATOM     10  C   UNL     1       2.221 -11.031  26.294  0.00  0.00    +0.241 C 
ATOM     11  O   UNL     1       2.895 -11.919  26.905  0.00  0.00    -0.273 OA
ATOM     12  N   UNL     1       1.796  -9.917  27.039  0.00  0.00    -0.303 N 
ATOM     13  C   UNL     1       0.458  -9.361  27.055  0.00  0.00    +0.089 C 
ATOM     14  C   UNL     1       0.010  -9.091  28.501  0.00  0.00    +0.022 C 
ATOM     15  C   UNL     1      -1.386  -8.541  28.429  0.00  0.00    +0.011 C 
ATOM     16  C   UNL     1      -1.678  -7.527  29.517  0.00  0.00    +0.085 C 
ATOM     17  C   UNL     1      -0.504  -6.671  29.790  0.00  0.00    +0.223 C 
ATOM     18  O   UNL     1       0.033  -6.623  30.943  0.00  0.00    -0.275 OA
ATOM     19  N   UNL     1       0.097  -5.851  28.796  0.00  0.00    -0.297 N 
ATOM     20  C   UNL     1      -0.635  -5.292  27.680  0.00  0.00    +0.176 C 
ATOM     21  C   UNL     1      -0.648  -3.814  27.680  0.00  0.00    +0.246 C 
ATOM     22  O   UNL     1      -1.748  -3.220  27.791  0.00  0.00    -0.273 OA
ATOM     23  N   UNL     1       0.588  -3.103  27.552  0.00  0.00    -0.272 N 
ATOM     24  C   UNL     1       1.775  -3.672  26.968  0.00  0.00    +0.152 C 
ATOM     25  C   UNL     1       2.925  -2.996  27.712  0.00  0.00    +0.031 C 
ATOM     26  C   UNL     1       2.366  -1.762  28.340  0.00  0.00    +0.024 C 
ATOM     27  C   UNL     1       0.925  -1.752  27.947  0.00  0.00    +0.094 C 
ATOM     28  C   UNL     1       1.948  -3.342  25.531  0.00  0.00    +0.241 C 
ATOM     29  O   UNL     1       1.520  -2.222  25.154  0.00  0.00    -0.273 OA
ATOM     30  N   UNL     1       2.555  -4.201  24.574  0.00  0.00    -0.295 N 
ATOM     31  C   UNL     1       2.350  -5.637  24.555  0.00  0.00    +0.176 C 
ATOM     32  C   UNL     1       2.725  -6.185  23.217  0.00  0.00    +0.250 C 
ATOM     33  O   UNL     1       2.708  -5.414  22.224  0.00  0.00    -0.273 OA
ATOM     34  H   UNL     1       2.470  -9.473  27.602  0.00  0.00    +0.149 HD
ATOM     35  H   UNL     1       1.059  -5.654  28.871  0.00  0.00    +0.150 HD
ATOM     36  H   UNL     1       3.142  -3.802  23.892  0.00  0.00    +0.150 HD
ENDROOT
BRANCH   1  40
ATOM     37  F   UNL     1       7.045  -9.304  20.963  0.00  0.00    -0.201 F 
ATOM     38  C   UNL     1       5.763  -8.883  20.863  0.00  0.00    +0.169 C 
ATOM     39  C   UNL     1       5.055  -8.412  21.945  0.00  0.00    +0.094 C 
ATOM     40  C   UNL     1       3.753  -7.980  21.856  0.00  0.00    +0.106 C 
ATOM     41  C   UNL     1       3.160  -8.033  20.618  0.00  0.00    +0.169 C 
ATOM     42  C   UNL     1       3.875  -8.513  19.505  0.00  0.00    +0.058 C 
ATOM     43  C   UNL     1       5.171  -8.940  19.613  0.00  0.00    +0.096 C 
BRANCH  39  44
ATOM     44  N   UNL     1       5.717  -8.393  23.200  0.00  0.00    -0.305 N 
ATOM     45  C   UNL     1       6.770  -7.496  23.563  0.00  0.00    +0.093 C 
ATOM     46  C   UNL     1       7.274  -7.923  24.947  0.00  0.00    +0.043 C 
ATOM     47  C   UNL     1       7.700  -9.370  24.817  0.00  0.00    +0.101 C 
ATOM     48  C   UNL     1       6.419 -10.189  24.742  0.00  0.00    +0.043 C 
ATOM     49  C   UNL     1       5.287  -9.368  24.210  0.00  0.00    +0.093 C 
BRANCH  47  50
ATOM     50  N   UNL     1       8.465  -9.808  25.956  0.00  0.00    -0.193 N 
ATOM     51  N   UNL     1       8.866 -11.024  26.251  0.00  0.00    -0.154 NA
ATOM     52  C   UNL     1       9.554 -11.033  27.391  0.00  0.00    +0.218 C 
ATOM     53  N   UNL     1       9.590  -9.773  27.839  0.00  0.00    -0.203 NA
ATOM     54  C   UNL     1       8.916  -9.005  26.952  0.00  0.00    +0.186 C 
ENDBRANCH  47  50
ENDBRANCH  39  44
BRANCH  43  55
ATOM     55  N   UNL     1       5.898  -9.409  18.520  0.00  0.00    -0.219 N 
ATOM     56  H   UNL     1       6.873  -9.272  18.515  0.00  0.00    +0.173 HD
BRANCH  55  57
ATOM     57  S   UNL     1       5.188 -10.208  17.189  0.00  0.00    +0.033 S 
ATOM     58  O   UNL     1       3.938  -9.610  16.672  0.00  0.00    -0.158 OA
ATOM     59  O   UNL     1       6.206 -10.163  16.067  0.00  0.00    -0.158 OA
ATOM     60  H   UNL     1       4.853 -11.454  17.618  0.00  0.00    +0.233 HD
ENDBRANCH  55  57
ENDBRANCH  43  55
BRANCH  41  61
ATOM     61  O   UNL     1       1.854  -7.610  20.484  0.00  0.00    -0.444 OA
BRANCH  61  62
ATOM     62  S   UNL     1       1.585  -6.070  19.612  0.00  0.00    -0.061 S 
ATOM     63  C   UNL     1       0.078  -6.358  18.515  0.00  0.00    +0.101 C 
ATOM     64  C   UNL     1      -0.198  -5.126  17.814  0.00  0.00    +0.003 C 
ATOM     65  C   UNL     1       0.726  -4.296  17.417  0.00  0.00    +0.060 C 
ATOM     66  N   UNL     1       2.082  -4.532  17.642  0.00  0.00    -0.274 N 
ATOM     67  C   UNL     1       2.592  -5.484  18.624  0.00  0.00    +0.158 C 
ATOM     68  C   UNL     1       3.779  -4.612  18.741  0.00  0.00    +0.086 C 
ATOM     69  C   UNL     1       3.423  -4.257  17.344  0.00  0.00    +0.215 C 
ATOM     70  O   UNL     1       4.043  -3.875  16.329  0.00  0.00    -0.202 OA
ATOM     71  H   UNL     1       1.570  -5.190  20.649  0.00  0.00    +0.125 HD
ENDBRANCH  61  62
ENDBRANCH  41  61
ENDBRANCH   1  40
TORSDOF 7
