REMARK  Name = =
REMARK  0 active torsions:
REMARK  status: ('A' for Active; 'I' for Inactive)
REMARK                            x       y       z     vdW  Elec       q    Type
REMARK                         _______ _______ _______ _____ _____    ______ ____
ROOT
ATOM      1  C   UNL     1      -4.424  -4.412  30.785  0.00  0.00    +0.027 C 
ATOM      2  C   UNL     1      -5.453  -3.600  31.506  0.00  0.00    +0.013 C 
ATOM      3  C   UNL     1      -4.815  -2.360  32.150  0.00  0.00    +0.069 C 
ATOM      4  C   UNL     1      -4.272  -1.593  31.006  0.00  0.00    +0.173 C 
ATOM      5  O   UNL     1      -4.523  -0.391  30.777  0.00  0.00    -0.291 OA
ATOM      6  C   UNL     1      -3.392  -2.320  30.111  0.00  0.00    +0.033 C 
ATOM      7  C   UNL     1      -3.452  -3.632  29.998  0.00  0.00    -0.023 C 
ENDROOT
TORSDOF 0
