REMARK  Name = =
REMARK  5 active torsions:
REMARK  status: ('A' for Active; 'I' for Inactive)
REMARK    1  A    between atoms: C_1  and  C_8
REMARK    2  A    between atoms: C_2  and  N_15
REMARK    3  A    between atoms: C_10  and  N_14
REMARK    4  A    between atoms: N_18  and  C_21
REMARK    5  A    between atoms: C_22  and  O_27
REMARK                            x       y       z     vdW  Elec       q    Type
REMARK                         _______ _______ _______ _____ _____    ______ ____
ROOT
ATOM      1  C   UNL     1      -9.979  -1.205  31.287  0.00  0.00    +0.063 C 
ATOM      2  C   UNL     1     -10.419  -2.406  30.546  0.00  0.00    +0.089 C 
ATOM      3  C   UNL     1     -10.382  -3.602  31.481  0.00  0.00    +0.089 C 
ATOM      4  C   UNL     1     -10.428  -3.224  32.901  0.00  0.00    +0.175 C 
ATOM      5  O   UNL     1      -9.998  -4.029  33.762  0.00  0.00    -0.291 OA
ATOM      6  C   UNL     1     -10.963  -1.930  33.337  0.00  0.00    +0.033 C 
ATOM      7  C   UNL     1     -10.736  -0.901  32.518  0.00  0.00    -0.017 C 
ENDROOT
BRANCH   1   8
ATOM      8  C   UNL     1      -8.558  -1.404  31.713  0.00  0.00    -0.016 C 
ATOM      9  C   UNL     1      -7.886  -0.440  32.456  0.00  0.00    +0.010 C 
ATOM     10  C   UNL     1      -6.582  -0.569  32.868  0.00  0.00    +0.041 C 
ATOM     11  C   UNL     1      -5.912  -1.729  32.515  0.00  0.00    +0.014 C 
ATOM     12  C   UNL     1      -6.527  -2.713  31.783  0.00  0.00    +0.001 C 
ATOM     13  C   UNL     1      -7.836  -2.530  31.397  0.00  0.00    -0.004 C 
BRANCH  10  14
ATOM     14  N   UNL     1      -5.918   0.419  33.624  0.00  0.00    -0.357 N 
ATOM     15  H   UNL     1      -6.390   1.245  33.877  0.00  0.00    +0.142 HD
ATOM     16  H   UNL     1      -4.982   0.283  33.899  0.00  0.00    +0.142 HD
ENDBRANCH  10  14
ENDBRANCH   1   8
BRANCH   2  17
ATOM     17  N   UNL     1     -11.681  -2.364  29.920  0.00  0.00    -0.304 N 
ATOM     18  C   UNL     1     -11.719  -2.904  28.627  0.00  0.00    +0.078 C 
ATOM     19  C   UNL     1     -12.411  -2.155  27.555  0.00  0.00    +0.082 C 
ATOM     20  N   UNL     1     -12.930  -0.863  27.910  0.00  0.00    -0.281 N 
ATOM     21  C   UNL     1     -12.924  -0.363  29.238  0.00  0.00    +0.117 C 
ATOM     22  C   UNL     1     -12.639  -1.419  30.281  0.00  0.00    +0.113 C 
BRANCH  20  23
ATOM     23  C   UNL     1     -13.469  -0.066  26.873  0.00  0.00    +0.086 C 
ATOM     24  C   UNL     1     -14.775  -0.145  26.455  0.00  0.00    +0.147 C 
ATOM     25  C   UNL     1     -15.285   0.649  25.429  0.00  0.00    +0.038 C 
ATOM     26  C   UNL     1     -14.418   1.547  24.821  0.00  0.00    +0.003 C 
ATOM     27  C   UNL     1     -13.109   1.654  25.212  0.00  0.00    +0.001 C 
ATOM     28  C   UNL     1     -12.638   0.858  26.225  0.00  0.00    +0.018 C 
BRANCH  24  29
ATOM     29  O   UNL     1     -15.623  -1.049  27.077  0.00  0.00    -0.504 OA
ATOM     30  H   UNL     1     -15.302  -1.593  27.769  0.00  0.00    +0.292 HD
ENDBRANCH  24  29
ENDBRANCH  20  23
ENDBRANCH   2  17
TORSDOF 5
