REMARK  Name = =
REMARK  8 active torsions:
REMARK  status: ('A' for Active; 'I' for Inactive)
REMARK    1  A    between atoms: N_1  and  C_8
REMARK    2  A    between atoms: N_4  and  C_21
REMARK    3  A    between atoms: C_7  and  C_14
REMARK    4  A    between atoms: C_16  and  N_20
REMARK    5  A    between atoms: C_22  and  O_27
REMARK    6  A    between atoms: O_27  and  N_28
REMARK    7  A    between atoms: N_28  and  N_29
REMARK    8  A    between atoms: N_28  and  O_31
REMARK                            x       y       z     vdW  Elec       q    Type
REMARK                         _______ _______ _______ _____ _____    ______ ____
ROOT
ATOM      1  N   UNL     1     -12.852   0.103  28.161  0.00  0.00    -0.270 NA
ATOM      2  C   UNL     1     -13.547   0.552  26.961  0.00  0.00    +0.094 C 
ATOM      3  C   UNL     1     -13.455   2.103  26.995  0.00  0.00    +0.108 C 
ATOM      4  N   UNL     1     -14.390   2.516  28.022  0.00  0.00    -0.302 N 
ATOM      5  C   UNL     1     -14.540   1.644  29.140  0.00  0.00    +0.108 C 
ATOM      6  C   UNL     1     -13.325   0.748  29.319  0.00  0.00    +0.094 C 
ENDROOT
BRANCH   1   8
ATOM      7  C   UNL     1     -10.934  -1.478  27.628  0.00  0.00    +0.059 C 
ATOM      8  C   UNL     1     -11.515  -0.177  28.015  0.00  0.00    +0.073 C 
ATOM      9  C   UNL     1     -10.484   0.573  28.839  0.00  0.00    +0.086 C 
ATOM     10  C   UNL     1     -10.110  -0.218  30.010  0.00  0.00    +0.174 C 
ATOM     11  O   UNL     1      -9.509   0.256  30.978  0.00  0.00    -0.291 OA
ATOM     12  C   UNL     1     -10.475  -1.648  30.011  0.00  0.00    +0.033 C 
ATOM     13  C   UNL     1     -10.856  -2.277  28.954  0.00  0.00    -0.018 C 
BRANCH   7  14
ATOM     14  C   UNL     1     -11.626  -2.353  26.688  0.00  0.00    -0.016 C 
ATOM     15  C   UNL     1     -10.868  -2.896  25.636  0.00  0.00    +0.010 C 
ATOM     16  C   UNL     1     -11.329  -3.814  24.746  0.00  0.00    +0.041 C 
ATOM     17  C   UNL     1     -12.659  -4.267  24.872  0.00  0.00    +0.014 C 
ATOM     18  C   UNL     1     -13.442  -3.768  25.887  0.00  0.00    +0.001 C 
ATOM     19  C   UNL     1     -12.885  -2.823  26.762  0.00  0.00    -0.004 C 
BRANCH  16  20
ATOM     20  N   UNL     1     -10.549  -4.277  23.645  0.00  0.00    -0.357 N 
ATOM     21  H   UNL     1     -10.922  -4.943  23.023  0.00  0.00    +0.142 HD
ATOM     22  H   UNL     1      -9.638  -3.930  23.507  0.00  0.00    +0.142 HD
ENDBRANCH  16  20
ENDBRANCH   7  14
ENDBRANCH   1   8
BRANCH   4  23
ATOM     23  C   UNL     1     -15.111   3.708  27.790  0.00  0.00    +0.085 C 
ATOM     24  C   UNL     1     -14.548   4.748  27.095  0.00  0.00    +0.183 C 
ATOM     25  C   UNL     1     -15.306   5.895  26.895  0.00  0.00    +0.041 C 
ATOM     26  C   UNL     1     -16.605   6.024  27.370  0.00  0.00    +0.003 C 
ATOM     27  C   UNL     1     -17.140   4.963  28.062  0.00  0.00    +0.001 C 
ATOM     28  C   UNL     1     -16.436   3.786  28.295  0.00  0.00    +0.018 C 
BRANCH  24  29
ATOM     29  O   UNL     1     -13.277   4.602  26.633  0.00  0.00    -0.360 OA
BRANCH  29  30
ATOM     30  N   UNL     1     -12.748   5.082  25.506  0.00  0.00    +0.108 NA
BRANCH  30  31
ATOM     31  N   UNL     1     -12.844   4.535  24.222  0.00  0.00    +0.095 NA
ATOM     32  O   UNL     1     -13.676   5.044  23.399  0.00  0.00    -0.077 OA
ENDBRANCH  30  31
BRANCH  30  33
ATOM     33  O   UNL     1     -12.024   6.266  25.617  0.00  0.00    -0.263 OA
ATOM     34  H   UNL     1     -12.020   6.557  26.542  0.00  0.00    +0.242 HD
ENDBRANCH  30  33
ENDBRANCH  29  30
ENDBRANCH  24  29
ENDBRANCH   4  23
TORSDOF 8
