REMARK  Name = =
REMARK  0 active torsions:
REMARK  status: ('A' for Active; 'I' for Inactive)
REMARK                            x       y       z     vdW  Elec       q    Type
REMARK                         _______ _______ _______ _____ _____    ______ ____
ROOT
ATOM      1  C   UNL     1      -3.881  -4.049  31.437  0.00  0.00    +0.138 C 
ATOM      2  C   UNL     1      -3.450  -5.443  31.155  0.00  0.00    +0.181 C 
ATOM      3  O   UNL     1      -4.117  -6.508  31.309  0.00  0.00    -0.291 OA
ATOM      4  C   UNL     1      -2.085  -5.336  30.660  0.00  0.00    +0.038 C 
ATOM      5  C   UNL     1      -1.814  -4.037  30.329  0.00  0.00    +0.038 C 
ATOM      6  C   UNL     1      -0.565  -3.679  29.828  0.00  0.00    +0.003 C 
ATOM      7  C   UNL     1       0.442  -4.602  29.645  0.00  0.00    +0.000 C 
ATOM      8  C   UNL     1       0.173  -5.913  29.979  0.00  0.00    +0.000 C 
ATOM      9  C   UNL     1      -1.064  -6.281  30.476  0.00  0.00    +0.003 C 
ATOM     10  C   UNL     1      -2.988  -3.234  30.591  0.00  0.00    +0.181 C 
ATOM     11  O   UNL     1      -3.169  -2.068  30.161  0.00  0.00    -0.291 OA
ENDROOT
TORSDOF 0
