MODEL 1
REMARK VINA RESULT:    -8.587      0.000      0.000
REMARK INTER + INTRA:         -16.814
REMARK INTER:                 -14.610
REMARK INTRA:                  -2.204
REMARK UNBOUND:                -2.204
REMARK  Name = =
REMARK  13 active torsions:
REMARK  status: ('A' for Active; 'I' for Inactive)
REMARK    1  A    between atoms: N_1  and  O_7
REMARK    2  A    between atoms: C_2  and  C_27
REMARK    3  A    between atoms: O_7  and  C_8
REMARK    4  A    between atoms: C_10  and  C_25
REMARK    5  A    between atoms: C_12  and  N_14
REMARK    6  A    between atoms: C_15  and  C_23
REMARK    7  A    between atoms: C_27  and  C_28
REMARK    8  A    between atoms: C_27  and  O_34
REMARK    9  A    between atoms: C_27  and  C_35
REMARK   10  A    between atoms: C_35  and  N_36
REMARK   11  A    between atoms: N_36  and  C_37
REMARK   12  A    between atoms: C_37  and  C_38
REMARK   13  A    between atoms: C_38  and  O_39
REMARK                            x       y       z     vdW  Elec       q    Type
REMARK                         _______ _______ _______ _____ _____    ______ ____
ROOT
ATOM      1  N   UNL     1      -2.776  -6.325  30.778  0.00  0.00    -0.190 N 
ATOM      2  C   UNL     1      -2.906  -5.121  31.387  0.00  0.00    +0.171 C 
ATOM      3  C   UNL     1      -3.604  -5.107  32.757  0.00  0.00    +0.116 C 
ATOM      4  N   UNL     1      -4.470  -6.188  33.005  0.00  0.00    -0.329 N 
ATOM      5  C   UNL     1      -4.066  -7.449  32.627  0.00  0.00    +0.080 C 
ATOM      6  C   UNL     1      -3.100  -7.540  31.405  0.00  0.00    +0.127 C 
ATOM      7  H   UNL     1      -5.343  -6.047  33.439  0.00  0.00    +0.147 HD
ENDROOT
BRANCH   1   8
ATOM      8  O   UNL     1      -1.838  -6.623  29.821  0.00  0.00    -0.375 OA
BRANCH   8   9
ATOM      9  C   UNL     1      -0.498  -6.182  30.089  0.00  0.00    +0.177 C 
ATOM     10  C   UNL     1       0.066  -6.442  31.200  0.00  0.00    +0.061 C 
ATOM     11  C   UNL     1       1.595  -6.070  31.807  0.00  0.00    +0.104 C 
ATOM     12  N   UNL     1       1.841  -5.504  30.718  0.00  0.00    -0.229 NA
ATOM     13  C   UNL     1       1.537  -5.106  29.541  0.00  0.00    +0.136 C 
ATOM     14  C   UNL     1       0.216  -5.460  29.150  0.00  0.00    +0.074 C 
BRANCH  13  15
ATOM     15  N   UNL     1       2.469  -4.367  28.722  0.00  0.00    -0.275 N 
ATOM     16  C   UNL     1       3.880  -4.644  28.571  0.00  0.00    +0.189 C 
ATOM     17  C   UNL     1       4.379  -3.602  27.659  0.00  0.00    +0.008 C 
ATOM     18  C   UNL     1       3.305  -2.932  27.193  0.00  0.00    -0.004 C 
ATOM     19  C   UNL     1       2.087  -3.334  27.830  0.00  0.00    +0.120 C 
ATOM     20  C   UNL     1       3.484  -1.902  26.181  0.00  0.00    -0.003 C 
ATOM     21  C   UNL     1       4.755  -1.771  25.858  0.00  0.00    -0.000 C 
ATOM     22  C   UNL     1       5.867  -2.357  26.203  0.00  0.00    -0.000 C 
ATOM     23  C   UNL     1       5.674  -3.378  27.200  0.00  0.00    -0.002 C 
BRANCH  16  24
ATOM     24  C   UNL     1       3.969  -5.968  27.766  0.00  0.00    +0.097 C 
ATOM     25  N   UNL     1       4.030  -6.923  27.203  0.00  0.00    -0.194 NA
ENDBRANCH  16  24
ENDBRANCH  13  15
BRANCH  11  26
ATOM     26  C   UNL     1       1.281  -6.724  33.060  0.00  0.00    +0.108 C 
ATOM     27  N   UNL     1       0.742  -6.481  34.063  0.00  0.00    -0.295 NA
ATOM     28  H   UNL     1       0.683  -7.164  34.768  0.00  0.00    +0.187 HD
ENDBRANCH  11  26
ENDBRANCH   8   9
ENDBRANCH   1   8
BRANCH   2  29
ATOM     29  C   UNL     1      -3.554  -4.045  30.522  0.00  0.00    +0.164 C 
BRANCH  29  30
ATOM     30  C   UNL     1      -2.735  -3.361  29.549  0.00  0.00    +0.108 C 
ATOM     31  N   UNL     1      -1.707  -2.569  30.201  0.00  0.00    -0.150 NA
ATOM     32  N   UNL     1      -0.888  -1.928  29.418  0.00  0.00    -0.147 NA
ATOM     33  C   UNL     1      -0.861  -1.913  28.029  0.00  0.00    +0.122 C 
ATOM     34  C   UNL     1      -1.864  -2.678  27.382  0.00  0.00    +0.024 C 
ATOM     35  C   UNL     1      -2.663  -3.291  28.282  0.00  0.00    +0.021 C 
ENDBRANCH  29  30
BRANCH  29  36
ATOM     36  O   UNL     1      -4.598  -4.775  29.935  0.00  0.00    -0.378 OA
ATOM     37  H   UNL     1      -5.398  -4.686  30.477  0.00  0.00    +0.211 HD
ENDBRANCH  29  36
BRANCH  29  38
ATOM     38  C   UNL     1      -4.379  -3.086  31.456  0.00  0.00    +0.123 C 
BRANCH  38  39
ATOM     39  N   UNL     1      -5.700  -2.984  31.034  0.00  0.00    -0.212 NA
BRANCH  39  40
ATOM     40  C   UNL     1      -6.801  -2.563  31.799  0.00  0.00    +0.120 C 
BRANCH  40  41
ATOM     41  C   UNL     1      -6.304  -2.224  33.227  0.00  0.00    +0.156 C 
BRANCH  41  42
ATOM     42  O   UNL     1      -6.646  -3.212  34.093  0.00  0.00    -0.380 OA
ATOM     43  H   UNL     1      -5.905  -3.387  34.693  0.00  0.00    +0.211 HD
ENDBRANCH  41  42
ENDBRANCH  40  41
ENDBRANCH  39  40
ENDBRANCH  38  39
ENDBRANCH  29  38
ENDBRANCH   2  29
TORSDOF 13
ENDMDL
