REMARK  Name = =
REMARK  13 active torsions:
REMARK  status: ('A' for Active; 'I' for Inactive)
REMARK    1  A    between atoms: N_1  and  O_7
REMARK    2  A    between atoms: C_2  and  C_27
REMARK    3  A    between atoms: O_7  and  C_8
REMARK    4  A    between atoms: C_10  and  C_25
REMARK    5  A    between atoms: C_12  and  N_14
REMARK    6  A    between atoms: C_15  and  C_23
REMARK    7  A    between atoms: C_27  and  C_28
REMARK    8  A    between atoms: C_27  and  O_34
REMARK    9  A    between atoms: C_27  and  C_35
REMARK   10  A    between atoms: C_35  and  N_36
REMARK   11  A    between atoms: N_36  and  C_37
REMARK   12  A    between atoms: C_37  and  C_38
REMARK   13  A    between atoms: C_38  and  O_39
REMARK                            x       y       z     vdW  Elec       q    Type
REMARK                         _______ _______ _______ _____ _____    ______ ____
ROOT
ATOM      1  N   UNL     1     -13.737  -1.710  28.520  0.00  0.00    -0.190 N 
ATOM      2  C   UNL     1     -13.361  -1.391  27.257  0.00  0.00    +0.171 C 
ATOM      3  C   UNL     1     -13.675   0.036  26.779  0.00  0.00    +0.116 C 
ATOM      4  N   UNL     1     -14.732   0.680  27.449  0.00  0.00    -0.329 N 
ATOM      5  C   UNL     1     -14.814   0.547  28.817  0.00  0.00    +0.080 C 
ATOM      6  C   UNL     1     -14.239  -0.766  29.432  0.00  0.00    +0.127 C 
ATOM      7  H   UNL     1     -15.395   1.212  26.953  0.00  0.00    +0.147 HD
ENDROOT
BRANCH   1   8
ATOM      8  O   UNL     1     -13.184  -2.717  29.272  0.00  0.00    -0.375 OA
BRANCH   8   9
ATOM      9  C   UNL     1     -12.341  -2.306  30.359  0.00  0.00    +0.177 C 
ATOM     10  C   UNL     1     -12.690  -2.501  31.567  0.00  0.00    +0.061 C 
ATOM     11  C   UNL     1     -11.940  -2.139  33.034  0.00  0.00    +0.104 C 
ATOM     12  N   UNL     1     -10.985  -1.666  32.378  0.00  0.00    -0.229 NA
ATOM     13  C   UNL     1     -10.389  -1.348  31.292  0.00  0.00    +0.136 C 
ATOM     14  C   UNL     1     -11.129  -1.683  30.124  0.00  0.00    +0.074 C 
BRANCH  13  15
ATOM     15  N   UNL     1      -9.095  -0.707  31.293  0.00  0.00    -0.275 N 
ATOM     16  C   UNL     1      -8.617   0.256  30.326  0.00  0.00    +0.189 C 
ATOM     17  C   UNL     1      -7.247   0.581  30.756  0.00  0.00    +0.008 C 
ATOM     18  C   UNL     1      -7.058   0.003  31.960  0.00  0.00    -0.004 C 
ATOM     19  C   UNL     1      -8.153  -0.836  32.345  0.00  0.00    +0.120 C 
ATOM     20  C   UNL     1      -5.820   0.241  32.685  0.00  0.00    -0.003 C 
ATOM     21  C   UNL     1      -5.017   1.036  32.005  0.00  0.00    -0.000 C 
ATOM     22  C   UNL     1      -5.083   1.672  30.869  0.00  0.00    -0.000 C 
ATOM     23  C   UNL     1      -6.316   1.432  30.165  0.00  0.00    -0.002 C 
BRANCH  16  24
ATOM     24  C   UNL     1      -9.440   1.548  30.572  0.00  0.00    +0.097 C 
ATOM     25  N   UNL     1     -10.028   2.476  30.733  0.00  0.00    -0.194 NA
ENDBRANCH  16  24
ENDBRANCH  13  15
BRANCH  11  26
ATOM     26  C   UNL     1     -13.063  -2.685  33.768  0.00  0.00    +0.108 C 
ATOM     27  N   UNL     1     -14.010  -3.331  33.565  0.00  0.00    -0.295 NA
ATOM     28  H   UNL     1     -14.622  -3.552  34.303  0.00  0.00    +0.187 HD
ENDBRANCH  11  26
ENDBRANCH   8   9
ENDBRANCH   1   8
BRANCH   2  29
ATOM     29  C   UNL     1     -13.857  -2.361  26.190  0.00  0.00    +0.164 C 
BRANCH  29  30
ATOM     30  C   UNL     1     -13.408  -2.174  24.830  0.00  0.00    +0.108 C 
ATOM     31  N   UNL     1     -14.508  -1.777  23.970  0.00  0.00    -0.150 NA
ATOM     32  N   UNL     1     -14.214  -1.551  22.722  0.00  0.00    -0.147 NA
ATOM     33  C   UNL     1     -12.972  -1.630  22.104  0.00  0.00    +0.122 C 
ATOM     34  C   UNL     1     -11.891  -2.022  22.933  0.00  0.00    +0.024 C 
ATOM     35  C   UNL     1     -12.306  -2.241  24.200  0.00  0.00    +0.021 C 
ENDBRANCH  29  30
BRANCH  29  36
ATOM     36  O   UNL     1     -13.443  -3.585  26.735  0.00  0.00    -0.378 OA
ATOM     37  H   UNL     1     -13.769  -3.660  27.645  0.00  0.00    +0.211 HD
ENDBRANCH  29  36
BRANCH  29  38
ATOM     38  C   UNL     1     -15.416  -2.507  26.337  0.00  0.00    +0.123 C 
BRANCH  38  39
ATOM     39  N   UNL     1     -15.795  -3.844  26.387  0.00  0.00    -0.212 NA
BRANCH  39  40
ATOM     40  C   UNL     1     -17.019  -4.359  26.848  0.00  0.00    +0.120 C 
BRANCH  40  41
ATOM     41  C   UNL     1     -17.155  -5.819  26.347  0.00  0.00    +0.156 C 
BRANCH  41  42
ATOM     42  O   UNL     1     -18.236  -6.413  26.914  0.00  0.00    -0.380 OA
ATOM     43  H   UNL     1     -18.310  -7.325  26.592  0.00  0.00    +0.211 HD
ENDBRANCH  41  42
ENDBRANCH  40  41
ENDBRANCH  39  40
ENDBRANCH  38  39
ENDBRANCH  29  38
ENDBRANCH   2  29
TORSDOF 13
