REMARK  Name = =
REMARK  9 active torsions:
REMARK  status: ('A' for Active; 'I' for Inactive)
REMARK    1  A    between atoms: O_1  and  C_2
REMARK    2  A    between atoms: O_1  and  C_22
REMARK    3  A    between atoms: C_3  and  C_13
REMARK    4  A    between atoms: C_7  and  O_21
REMARK    5  A    between atoms: C_9  and  O_20
REMARK    6  A    between atoms: C_16  and  O_19
REMARK    7  A    between atoms: C_22  and  N_30
REMARK    8  A    between atoms: N_30  and  C_31
REMARK    9  A    between atoms: C_39  and  O_41
REMARK                            x       y       z     vdW  Elec       q    Type
REMARK                         _______ _______ _______ _____ _____    ______ ____
ROOT
ATOM      1  O   UNL     1      51.958 159.041  29.052  0.00  0.00    -0.450 OA
ENDROOT
BRANCH   1   2
ATOM      2  C   UNL     1      51.342 159.716  30.030  0.00  0.00    +0.214 A 
ATOM      3  C   UNL     1      51.911 160.806  30.637  0.00  0.00    +0.182 A 
ATOM      4  O   UNL     1      51.252 161.451  31.613  0.00  0.00    -0.450 OA
ATOM      5  C   UNL     1      50.082 161.142  32.066  0.00  0.00    +0.155 A 
ATOM      6  C   UNL     1      49.443 160.056  31.506  0.00  0.00    +0.110 A 
ATOM      7  C   UNL     1      48.189 159.729  31.995  0.00  0.00    +0.143 C 
ATOM      8  C   UNL     1      47.608 160.495  33.028  0.00  0.00    +0.073 C 
ATOM      9  C   UNL     1      48.258 161.570  33.574  0.00  0.00    +0.140 C 
ATOM     10  C   UNL     1      49.501 161.901  33.094  0.00  0.00    +0.074 C 
ATOM     11  C   UNL     1      50.065 159.348  30.497  0.00  0.00    +0.238 A 
ATOM     12  O   UNL     1      49.512 158.375  29.982  0.00  0.00    -0.283 OA
BRANCH   3  13
ATOM     13  C   UNL     1      53.214 161.323  30.284  0.00  0.00    +0.038 C 
ATOM     14  C   UNL     1      53.342 162.671  29.920  0.00  0.00    +0.006 C 
ATOM     15  C   UNL     1      54.566 163.185  29.588  0.00  0.00    +0.037 C 
ATOM     16  C   UNL     1      55.701 162.401  29.602  0.00  0.00    +0.134 C 
ATOM     17  C   UNL     1      55.613 161.091  29.951  0.00  0.00    +0.037 C 
ATOM     18  C   UNL     1      54.343 160.575  30.291  0.00  0.00    +0.006 C 
BRANCH  16  19
ATOM     19  O   UNL     1      56.960 162.925  29.261  0.00  0.00    -0.506 OA
ATOM     20  H   UNL     1      57.042 163.826  29.017  0.00  0.00    +0.292 HD
ENDBRANCH  16  19
ENDBRANCH   3  13
BRANCH   9  21
ATOM     21  O   UNL     1      47.679 162.333  34.604  0.00  0.00    -0.505 OA
ATOM     22  H   UNL     1      46.831 162.109  34.933  0.00  0.00    +0.292 HD
ENDBRANCH   9  21
BRANCH   7  23
ATOM     23  O   UNL     1      47.500 158.685  31.503  0.00  0.00    -0.505 OA
ATOM     24  H   UNL     1      47.867 158.163  30.817  0.00  0.00    +0.292 HD
ENDBRANCH   7  23
ENDBRANCH   1   2
BRANCH   1  25
ATOM     25  C   UNL     1      52.164 157.677  28.804  0.00  0.00    +0.277 C 
ATOM     26  C   UNL     1      51.079 156.910  29.548  0.00  0.00    +0.139 C 
ATOM     27  N   UNL     1      52.086 156.030  30.146  0.00  0.00    -0.271 N 
ATOM     28  C   UNL     1      51.328 154.922  30.592  0.00  0.00    +0.094 C 
ATOM     29  C   UNL     1      50.238 154.784  29.830  0.00  0.00    +0.023 C 
ATOM     30  C   UNL     1      50.286 155.895  28.798  0.00  0.00    +0.027 C 
ATOM     31  C   UNL     1      53.052 157.014  29.791  0.00  0.00    +0.282 C 
ATOM     32  O   UNL     1      54.221 157.214  30.194  0.00  0.00    -0.269 OA
BRANCH  25  33
ATOM     33  N   UNL     1      52.285 157.397  27.432  0.00  0.00    -0.296 N 
ATOM     34  H   UNL     1      52.135 158.185  26.861  0.00  0.00    +0.150 HD
BRANCH  33  35
ATOM     35  C   UNL     1      52.576 156.225  26.698  0.00  0.00    +0.068 C 
ATOM     36  C   UNL     1      53.551 156.290  25.686  0.00  0.00    +0.095 C 
ATOM     37  N   UNL     1      54.152 157.492  25.430  0.00  0.00    -0.243 NA
ATOM     38  C   UNL     1      55.079 157.576  24.472  0.00  0.00    +0.099 C 
ATOM     39  C   UNL     1      55.435 156.463  23.740  0.00  0.00    +0.021 C 
ATOM     40  C   UNL     1      54.853 155.235  23.969  0.00  0.00    +0.003 C 
ATOM     41  C   UNL     1      53.880 155.170  24.980  0.00  0.00    +0.022 C 
ATOM     42  C   UNL     1      53.288 153.928  25.213  0.00  0.00    +0.038 C 
ATOM     43  C   UNL     1      52.339 153.884  26.204  0.00  0.00    +0.135 C 
ATOM     44  C   UNL     1      51.996 155.005  26.924  0.00  0.00    +0.053 C 
BRANCH  43  45
ATOM     45  O   UNL     1      51.700 152.660  26.491  0.00  0.00    -0.505 OA
ATOM     46  H   UNL     1      51.925 151.889  26.008  0.00  0.00    +0.292 HD
ENDBRANCH  43  45
ENDBRANCH  33  35
ENDBRANCH  25  33
ENDBRANCH   1  25
TORSDOF 9
