REMARK  Name = =
REMARK  7 active torsions:
REMARK  status: ('A' for Active; 'I' for Inactive)
REMARK    1  A    between atoms: S_1  and  N_2
REMARK    2  A    between atoms: S_1  and  C_8
REMARK    3  A    between atoms: S_1  and  P_14
REMARK    4  A    between atoms: C_8  and  O_10
REMARK    5  A    between atoms: O_10  and  C_11
REMARK    6  A    between atoms: P_14  and  O_16
REMARK    7  A    between atoms: P_14  and  O_17
REMARK                            x       y       z     vdW  Elec       q    Type
REMARK                         _______ _______ _______ _____ _____    ______ ____
ROOT
ATOM      1  S   UNL     1      49.404 160.121  30.347  0.00  0.00    -0.021 S 
ATOM      2  H   UNL     1      50.484 160.775  29.841  0.00  0.00    +0.120 HD
ENDROOT
BRANCH   1   3
ATOM      3  N   UNL     1      49.196 160.776  31.831  0.00  0.00    -0.238 N 
ATOM      4  C   UNL     1      48.685 162.154  32.026  0.00  0.00    +0.105 C 
ATOM      5  C   UNL     1      48.876 162.474  33.464  0.00  0.00    +0.032 C 
ATOM      6  C   UNL     1      49.804 161.420  33.979  0.00  0.00    +0.088 C 
ATOM      7  C   UNL     1      49.447 160.235  33.121  0.00  0.00    +0.234 C 
ATOM      8  O   UNL     1      49.390 159.043  33.482  0.00  0.00    -0.274 OA
ENDBRANCH   1   3
BRANCH   1   9
ATOM      9  C   UNL     1      49.853 158.495  30.417  0.00  0.00    +0.177 C 
ATOM     10  C   UNL     1      49.006 157.510  30.599  0.00  0.00    +0.048 C 
BRANCH   9  11
ATOM     11  O   UNL     1      51.192 158.167  30.270  0.00  0.00    -0.436 OA
BRANCH  11  12
ATOM     12  C   UNL     1      51.722 157.228  29.431  0.00  0.00    +0.204 C 
ATOM     13  C   UNL     1      51.445 155.954  29.643  0.00  0.00    +0.054 C 
ATOM     14 CL   UNL     1      52.762 157.662  28.074  0.00  0.00    -0.042 Cl
ENDBRANCH  11  12
ENDBRANCH   9  11
ENDBRANCH   1   9
BRANCH   1  15
ATOM     15  P   UNL     1      48.206 160.540  29.114  0.00  0.00    +0.388 P 
ATOM     16  O   UNL     1      47.064 161.394  29.671  0.00  0.00    -0.246 OA
BRANCH  15  17
ATOM     17  O   UNL     1      47.531 159.119  28.442  0.00  0.00    -0.316 OA
ATOM     18  H   UNL     1      47.125 158.590  29.146  0.00  0.00    +0.221 HD
ENDBRANCH  15  17
BRANCH  15  19
ATOM     19  O   UNL     1      48.887 161.397  27.826  0.00  0.00    -0.316 OA
ATOM     20  H   UNL     1      49.285 162.217  28.158  0.00  0.00    +0.221 HD
ENDBRANCH  15  19
ENDBRANCH   1  15
TORSDOF 7
