REMARK  Name = =
REMARK  13 active torsions:
REMARK  status: ('A' for Active; 'I' for Inactive)
REMARK    1  A    between atoms: N_1  and  C_5
REMARK    2  A    between atoms: N_1  and  N_24
REMARK    3  A    between atoms: C_2  and  C_21
REMARK    4  A    between atoms: N_4  and  S_10
REMARK    5  A    between atoms: S_10  and  C_11
REMARK    6  A    between atoms: S_10  and  P_17
REMARK    7  A    between atoms: C_11  and  O_13
REMARK    8  A    between atoms: O_13  and  C_14
REMARK    9  A    between atoms: P_17  and  O_19
REMARK   10  A    between atoms: P_17  and  O_20
REMARK   11  A    between atoms: C_21  and  O_23
REMARK   12  A    between atoms: N_24  and  C_25
REMARK   13  A    between atoms: C_26  and  N_31
REMARK                            x       y       z     vdW  Elec       q    Type
REMARK                         _______ _______ _______ _____ _____    ______ ____
ROOT
ATOM      1  N   UNL     1      51.357 156.326  29.441  0.00  0.00    -0.184 N 
ATOM      2  C   UNL     1      50.473 155.367  28.918  0.00  0.00    +0.342 C 
ATOM      3  O   UNL     1      49.310 155.586  28.645  0.00  0.00    -0.261 OA
ENDROOT
BRANCH   1   5
ATOM      4  N   UNL     1      50.227 158.507  29.981  0.00  0.00    -0.220 N 
ATOM      5  C   UNL     1      51.050 157.420  30.288  0.00  0.00    +0.181 C 
ATOM      6  C   UNL     1      49.946 156.655  31.244  0.00  0.00    +0.053 C 
ATOM      7  C   UNL     1      48.785 156.635  30.353  0.00  0.00    +0.090 C 
ATOM      8  C   UNL     1      48.915 157.921  29.607  0.00  0.00    +0.235 C 
ATOM      9  O   UNL     1      48.074 158.405  28.836  0.00  0.00    -0.274 OA
BRANCH   4  10
ATOM     10  S   UNL     1      50.294 160.205  30.010  0.00  0.00    -0.020 S 
ATOM     11  H   UNL     1      50.181 160.656  28.732  0.00  0.00    +0.120 HD
BRANCH  10  12
ATOM     12  C   UNL     1      51.691 160.834  30.668  0.00  0.00    +0.177 C 
ATOM     13  C   UNL     1      52.682 160.105  31.164  0.00  0.00    +0.048 C 
BRANCH  12  14
ATOM     14  O   UNL     1      51.856 162.231  30.707  0.00  0.00    -0.436 OA
BRANCH  14  15
ATOM     15  C   UNL     1      53.088 162.805  30.702  0.00  0.00    +0.204 C 
ATOM     16  C   UNL     1      53.464 163.683  31.585  0.00  0.00    +0.054 C 
ATOM     17 CL   UNL     1      54.235 162.375  29.459  0.00  0.00    -0.042 Cl
ENDBRANCH  14  15
ENDBRANCH  12  14
ENDBRANCH  10  12
BRANCH  10  18
ATOM     18  P   UNL     1      48.962 160.688  31.253  0.00  0.00    +0.388 P 
ATOM     19  O   UNL     1      49.261 160.049  32.578  0.00  0.00    -0.246 OA
BRANCH  18  20
ATOM     20  O   UNL     1      47.489 160.133  30.685  0.00  0.00    -0.316 OA
ATOM     21  H   UNL     1      47.296 160.546  29.829  0.00  0.00    +0.221 HD
ENDBRANCH  18  20
BRANCH  18  22
ATOM     22  O   UNL     1      48.945 162.366  31.353  0.00  0.00    -0.316 OA
ATOM     23  H   UNL     1      49.802 162.679  31.683  0.00  0.00    +0.221 HD
ENDBRANCH  18  22
ENDBRANCH  10  18
ENDBRANCH   4  10
ENDBRANCH   1   5
BRANCH   2  24
ATOM     24  C   UNL     1      50.943 153.982  28.688  0.00  0.00    +0.394 C 
ATOM     25  O   UNL     1      51.838 153.566  29.514  0.00  0.00    -0.240 OA
BRANCH  24  26
ATOM     26  O   UNL     1      50.572 153.099  27.742  0.00  0.00    -0.474 OA
ATOM     27  H   UNL     1      49.924 153.336  27.108  0.00  0.00    +0.296 HD
ENDBRANCH  24  26
ENDBRANCH   2  24
BRANCH   1  28
ATOM     28  N   UNL     1      52.699 156.253  28.919  0.00  0.00    -0.257 N 
ATOM     29  H   UNL     1      53.437 156.096  29.551  0.00  0.00    +0.170 HD
BRANCH  28  30
ATOM     30  C   UNL     1      53.012 156.395  27.546  0.00  0.00    +0.075 C 
ATOM     31  C   UNL     1      53.120 155.351  26.623  0.00  0.00    +0.066 C 
ATOM     32  C   UNL     1      53.426 155.614  25.291  0.00  0.00    +0.016 C 
ATOM     33  C   UNL     1      53.614 156.933  24.917  0.00  0.00    +0.001 C 
ATOM     34  C   UNL     1      53.510 157.943  25.819  0.00  0.00    +0.001 C 
ATOM     35  C   UNL     1      53.218 157.694  27.123  0.00  0.00    +0.017 C 
BRANCH  31  36
ATOM     36  N   UNL     1      52.943 154.074  27.088  0.00  0.00    -0.267 N 
ATOM     37  C   UNL     1      53.000 152.826  26.235  0.00  0.00    +0.311 C 
ATOM     38  O   UNL     1      53.257 152.900  25.106  0.00  0.00    -0.252 OA
ATOM     39  N   UNL     1      52.683 151.744  27.115  0.00  0.00    -0.232 N 
ATOM     40  C   UNL     1      53.077 150.464  25.988  0.00  0.00    +0.307 C 
ATOM     41  O   UNL     1      53.463 150.781  24.970  0.00  0.00    -0.265 OA
ATOM     42  H   UNL     1      52.765 153.960  28.050  0.00  0.00    +0.156 HD
ATOM     43  H   UNL     1      52.354 151.725  28.043  0.00  0.00    +0.160 HD
ENDBRANCH  31  36
ENDBRANCH  28  30
ENDBRANCH   1  28
TORSDOF 13
