# Name:          seed_class_5_483_33/34898
# Creation time: Fri May 21 00:57:19 2010


@<TRIPOS>MOLECULE
seed_class_5_483_33/34898
   12    12     1     1     1
SMALL
USER_CHARGES


@<TRIPOS>ATOM
      1 H           2.2643    3.2540   -1.9246 H.spc      1 <1>        0.000
      2 C           3.4601    4.1707   -1.8246 C.ar       1 <1>        0.000
      3 C           3.4066    5.4832   -2.3089 C.ar       1 <1>        0.000
      4 N           4.4871    6.2687   -2.2034 N.ar       1 <1>        0.000
      5 C           5.6178    5.8192   -1.6422 C.ar       1 <1>        0.000
      6 N           5.7040    4.5688   -1.1682 N.ar       1 <1>        0.000
      7 C           4.6576    3.7352   -1.2446 C.ar       1 <1>        0.000
      8 H           6.8135    6.7360   -1.5423 H.spc      1 <1>        0.000
      9 N           2.2325    5.9715   -2.8994 N.pl3      1 <1>        0.000
     10 H           4.7386    2.7201   -0.8559 H.spc      1 <1>        0.000
     11 H           1.4126    5.3698   -2.9776 H.spc      1 <1>        0.000
     12 H           2.1982    6.9284   -3.2508 H.spc      1 <1>        0.000
@<TRIPOS>BOND
     1    1    2 1  
     2    2    3 ar 
     3    3    4 ar 
     4    4    5 ar 
     5    5    6 ar 
     6    6    7 ar 
     7    7    2 ar 
     8    5    8 1  
     9    3    9 1  
    10    7   10 1  
    11    9   11 1  
    12    9   12 1  
