# Name:          seed_class_5_387_198/34898
# Creation time: Fri May 21 00:57:18 2010


@<TRIPOS>MOLECULE
seed_class_5_387_198/34898
   14    14     1     1     1
SMALL
USER_CHARGES


@<TRIPOS>ATOM
      1 H           0.5367   -0.2691   -1.1848 H.spc      1 <1>        0.000
      2 C           1.6796    0.6894   -1.4194 C.ar       1 <1>        0.000
      3 C           2.8899    0.5159   -0.7373 C.ar       1 <1>        0.000
      4 C           3.9496    1.4046   -0.9548 C.ar       1 <1>        0.000
      5 C           3.7990    2.4667   -1.8544 C.ar       1 <1>        0.000
      6 C           2.5888    2.6402   -2.5365 C.ar       1 <1>        0.000
      7 C           1.5291    1.7515   -2.3190 C.ar       1 <1>        0.000
      8 O           2.4414    3.6795   -3.4168 O.3        1 <1>        0.000
      9 O           5.1339    1.2349   -0.2873 O.3        1 <1>        0.000
     10 H           3.0071   -0.3111   -0.0369 H.spc      1 <1>        0.000
     11 H           4.6241    3.1586   -2.0237 H.spc      1 <1>        0.000
     12 H           0.5869    1.8865   -2.8501 H.spc      1 <1>        0.000
     13 H           3.2547    4.1885   -3.4482 H.spc      1 <1>        0.000
     14 H           5.0701    0.4669    0.2852 H.spc      1 <1>        0.000
@<TRIPOS>BOND
     1    1    2 1  
     2    2    3 ar 
     3    3    4 ar 
     4    4    5 ar 
     5    5    6 ar 
     6    6    7 ar 
     7    7    2 ar 
     8    6    8 1  
     9    4    9 1  
    10    3   10 1  
    11    5   11 1  
    12    7   12 1  
    13    8   13 1  
    14    9   14 1  
