# Name:          seed_class_4_192_129/38664
# Creation time: Fri May 21 00:57:15 2010


@<TRIPOS>MOLECULE
seed_class_4_192_129/38664
   39    42     1     1     1
SMALL
USER_CHARGES


@<TRIPOS>ATOM
      1 H           4.4616    0.0689    2.9258 H.spc      1 <1>        0.000
      2 C           3.3631   -0.5989    2.4523 C.ar       1 <1>        0.000
      3 C           3.4289   -1.2751    1.2282 C.ar       1 <1>        0.000
      4 C           2.3064   -1.9576    0.7442 C.ar       1 <1>        0.000
      5 C           1.1181   -1.9639    1.4845 C.ar       1 <1>        0.000
      6 C           1.0523   -1.2877    2.7086 C.ar       1 <1>        0.000
      7 C           2.1748   -0.6052    3.1925 C.ar       1 <1>        0.000
      8 C          -0.1210   -2.6838    1.0087 C.3        1 <1>        0.000
      9 C          -0.0653   -3.0622   -0.4831 C.3        1 <1>        0.000
     10 C          -1.2942   -3.8913   -0.9001 C.3        1 <1>        0.000
     11 C          -2.6074   -3.1662   -0.5518 C.3        1 <1>        0.000
     12 C          -3.7084   -3.9790   -1.2577 C.3        1 <1>        0.000
     13 C          -3.0417   -4.4774   -2.5533 C.3        1 <1>        0.000
     14 C          -1.5192   -4.4222   -2.3281 C.3        1 <1>        0.000
     15 H          -4.8411   -3.1567   -1.5504 H.spc      1 <1>        0.000
     16 C          -2.6631   -2.7877    0.9400 C.3        1 <1>        0.000
     17 C          -1.4342   -1.9586    1.3570 C.3        1 <1>        0.000
     18 H          -2.6423   -1.7969   -1.2245 H.spc      1 <1>        0.000
     19 C           1.2983   -3.6835   -0.8385 C.3        1 <1>        0.000
     20 C           2.4296   -2.6708   -0.5810 C.3        1 <1>        0.000
     21 H           4.3541   -1.2702    0.6519 H.spc      1 <1>        0.000
     22 H           0.1271   -1.2926    3.2849 H.spc      1 <1>        0.000
     23 H           2.1236   -0.0787    4.1455 H.spc      1 <1>        0.000
     24 H          -0.1264   -3.6148    1.5756 H.spc      1 <1>        0.000
     25 H          -0.1318   -2.1588   -1.0893 H.spc      1 <1>        0.000
     26 H          -1.0262   -4.7781   -0.3258 H.spc      1 <1>        0.000
     27 H          -4.0818   -4.7967   -0.6411 H.spc      1 <1>        0.000
     28 H          -3.3288   -3.8527   -3.3991 H.spc      1 <1>        0.000
     29 H          -3.3603   -5.4940   -2.7839 H.spc      1 <1>        0.000
     30 H          -1.0443   -3.7702   -3.0612 H.spc      1 <1>        0.000
     31 H          -1.0758   -5.4109   -2.4463 H.spc      1 <1>        0.000
     32 H          -2.6774   -3.7048    1.5290 H.spc      1 <1>        0.000
     33 H          -3.5580   -2.1896    1.1117 H.spc      1 <1>        0.000
     34 H          -1.4696   -1.8067    2.4358 H.spc      1 <1>        0.000
     35 H          -1.4584   -1.0104    0.8199 H.spc      1 <1>        0.000
     36 H           1.3001   -3.9590   -1.8931 H.spc      1 <1>        0.000
     37 H           1.4609   -4.5645   -0.2177 H.spc      1 <1>        0.000
     38 H           2.3798   -1.9162   -1.3660 H.spc      1 <1>        0.000
     39 H           3.3690   -3.2235   -0.5704 H.spc      1 <1>        0.000
@<TRIPOS>BOND
     1    1    2 1  
     2    2    3 ar 
     3    3    4 ar 
     4    4    5 ar 
     5    5    6 ar 
     6    6    7 ar 
     7    7    2 ar 
     8    5    8 1  
     9    8    9 1  
    10    9   10 1  
    11   10   11 1  
    12   11   12 1  
    13   12   13 1  
    14   13   14 1  
    15   14   10 1  
    16   12   15 1  
    17   11   16 1  
    18   16   17 1  
    19   17    8 1  
    20   11   18 1  
    21    9   19 1  
    22   19   20 1  
    23   20    4 1  
    24    3   21 1  
    25    6   22 1  
    26    7   23 1  
    27    8   24 1  
    28    9   25 1  
    29   10   26 1  
    30   12   27 1  
    31   13   28 1  
    32   13   29 1  
    33   14   30 1  
    34   14   31 1  
    35   16   32 1  
    36   16   33 1  
    37   17   34 1  
    38   17   35 1  
    39   19   36 1  
    40   19   37 1  
    41   20   38 1  
    42   20   39 1  
