# Name:          seed_class_4_242_53/38664
# Creation time: Fri May 21 00:57:16 2010


@<TRIPOS>MOLECULE
seed_class_4_242_53/38664
   12    12     1     1     1
SMALL
USER_CHARGES


@<TRIPOS>ATOM
      1 H           8.5960   -0.7031   -4.0555 H.spc      1 <1>        0.000
      2 C           7.4683    0.1650   -3.0895 C.2        1 <1>        0.000
      3 C           6.1647   -0.1439   -3.1185 C.2        1 <1>        0.000
      4 N           5.2490    0.5237   -2.3665 N.pl3      1 <1>        0.000
      5 C           5.6013    1.5448   -1.5401 C.2        1 <1>        0.000
      6 C           6.8724    1.9514   -1.4198 C.2        1 <1>        0.000
      7 C           7.9196    1.2670   -2.2107 C.2        1 <1>        0.000
      8 O           9.1025    1.5966   -2.1412 O.2        1 <1>        0.000
      9 H           7.2801    3.2467   -0.3642 H.spc      1 <1>        0.000
     10 H           3.8352    0.1297   -2.4496 H.spc      1 <1>        0.000
     11 H           5.8280   -0.9548   -3.7644 H.spc      1 <1>        0.000
     12 H           4.8276    2.0467   -0.9591 H.spc      1 <1>        0.000
@<TRIPOS>BOND
     1    1    2 1  
     2    2    3 2  
     3    3    4 1  
     4    4    5 1  
     5    5    6 2  
     6    6    7 1  
     7    7    2 1  
     8    7    8 2  
     9    6    9 1  
    10    4   10 1  
    11    3   11 1  
    12    5   12 1  
