# Name:          seed_class_2_51_85/95646
# Creation time: Fri May 21 00:57:14 2010


@<TRIPOS>MOLECULE
seed_class_2_51_85/95646
    5     4     1     1     1
SMALL
USER_CHARGES


@<TRIPOS>ATOM
      1 S          -3.2424    4.0627    2.3539 S.2        1 <1>        0.000
      2 P          -4.4142    2.7862    1.4379 P.3        1 <1>        0.000
      3 H          -3.6460    2.1459    0.2277 H.spc      1 <1>        0.000
      4 H          -4.8441    1.6575    2.4410 H.spc      1 <1>        0.000
      5 H          -5.6911    3.5326    0.9114 H.spc      1 <1>        0.000
@<TRIPOS>BOND
     1    1    2 2  
     2    2    3 1  
     3    2    4 1  
     4    2    5 1  
