# Name:          seed_class_4_240_54/38664
# Creation time: Fri May 21 00:57:16 2010


@<TRIPOS>MOLECULE
seed_class_4_240_54/38664
   30    33     1     1     1
SMALL
USER_CHARGES


@<TRIPOS>ATOM
      1 N          -6.7436   -0.4218   -0.9860 N.pl3      1 <1>        0.000
      2 C          -5.6401    0.1450   -0.3054 C.ar       1 <1>        0.000
      3 C          -4.5585    0.1370   -1.1943 C.ar       1 <1>        0.000
      4 C          -5.0724   -0.4651   -2.4448 C.ar       1 <1>        0.000
      5 C          -6.3626   -0.7672   -2.2450 C.ar       1 <1>        0.000
      6 H          -7.2669   -1.4024   -3.2740 H.spc      1 <1>        0.000
      7 C          -4.0249   -0.2110   -3.5022 C.3        1 <1>        0.000
      8 C          -2.5862   -0.4370   -3.0017 C.3        1 <1>        0.000
      9 N          -1.6130   -0.2242   -4.0827 N.3        1 <1>        0.000
     10 C          -0.2423   -0.4662   -3.6100 C.3        1 <1>        0.000
     11 C           0.1290    0.5325   -2.4983 C.3        1 <1>        0.000
     12 C          -0.9843    0.7356   -1.4986 C.2        1 <1>        0.000
     13 C          -2.2276    0.2919   -1.7288 C.2        1 <1>        0.000
     14 C          -3.3172    0.6434   -0.7909 C.ar       1 <1>        0.000
     15 C          -3.1575    1.1578    0.5013 C.ar       1 <1>        0.000
     16 C          -4.2391    1.1659    1.3902 C.ar       1 <1>        0.000
     17 C          -5.4804    0.6595    0.9868 C.ar       1 <1>        0.000
     18 H           1.3776    0.0676   -1.7876 H.spc      1 <1>        0.000
     19 H          -7.6766   -0.5508   -0.5945 H.spc      1 <1>        0.000
     20 H          -4.1083    0.8330   -3.8041 H.spc      1 <1>        0.000
     21 H          -4.2037   -0.9116   -4.3178 H.spc      1 <1>        0.000
     22 H          -2.5392   -1.4854   -2.7073 H.spc      1 <1>        0.000
     23 H          -1.6839    0.7418   -4.4023 H.spc      1 <1>        0.000
     24 H           0.4475   -0.3398   -4.4444 H.spc      1 <1>        0.000
     25 H          -0.1786   -1.4789   -3.2120 H.spc      1 <1>        0.000
     26 H           0.3064    1.4945   -2.9791 H.spc      1 <1>        0.000
     27 H          -0.7710    1.2567   -0.5653 H.spc      1 <1>        0.000
     28 H          -2.1910    1.5520    0.8154 H.spc      1 <1>        0.000
     29 H          -4.1148    1.5665    2.3963 H.spc      1 <1>        0.000
     30 H          -6.3225    0.6658    1.6788 H.spc      1 <1>        0.000
@<TRIPOS>BOND
     1    1    2 ar 
     2    2    3 ar 
     3    3    4 ar 
     4    4    5 ar 
     5    5    1 ar 
     6    5    6 1  
     7    4    7 1  
     8    7    8 1  
     9    8    9 1  
    10    9   10 1  
    11   10   11 1  
    12   11   12 1  
    13   12   13 2  
    14   13    8 1  
    15   13   14 1  
    16   14    3 ar 
    17   14   15 ar 
    18   15   16 ar 
    19   16   17 ar 
    20   17    2 ar 
    21   11   18 1  
    22    1   19 1  
    23    7   20 1  
    24    7   21 1  
    25    8   22 1  
    26    9   23 1  
    27   10   24 1  
    28   10   25 1  
    29   11   26 1  
    30   12   27 1  
    31   15   28 1  
    32   16   29 1  
    33   17   30 1  
