# Name:          seed_class_2_23_1105/95646
# Creation time: Fri May 21 00:57:13 2010


@<TRIPOS>MOLECULE
seed_class_2_23_1105/95646
    9     9     1     1     1
SMALL
USER_CHARGES


@<TRIPOS>ATOM
      1 H           1.9266    0.1722   -0.1658 H.spc      1 <1>        0.000
      2 C           0.4758    0.0001   -0.0031 C.ar       1 <1>        0.000
      3 N          -0.4896    0.6935   -0.6641 N.pl3      1 <1>        0.000
      4 C          -1.6994    0.2430   -0.2361 C.ar       1 <1>        0.000
      5 N          -1.5073   -0.7027    0.6645 N.ar       1 <1>        0.000
      6 C          -0.1259   -0.8673    0.8222 C.ar       1 <1>        0.000
      7 H          -0.3336    1.4236   -1.3591 H.spc      1 <1>        0.000
      8 H          -2.6687    0.6037   -0.5803 H.spc      1 <1>        0.000
      9 H           0.3685   -1.5707    1.4922 H.spc      1 <1>        0.000
@<TRIPOS>BOND
     1    1    2 1  
     2    2    3 ar 
     3    3    4 ar 
     4    4    5 ar 
     5    5    6 ar 
     6    6    2 ar 
     7    3    7 1  
     8    4    8 1  
     9    6    9 1  
