# Name:          seed_class_2_69_33/95646
# Creation time: Fri May 21 00:57:14 2010


@<TRIPOS>MOLECULE
seed_class_2_69_33/95646
   16    17     1     1     1
SMALL
USER_CHARGES


@<TRIPOS>ATOM
      1 H           0.9040    2.5910   -0.7890 H.spc      1 <1>        0.000
      2 C           1.7379    1.6173   -0.1900 C.ar       1 <1>        0.000
      3 N           2.9499    1.3597   -0.7002 N.ar       1 <1>        0.000
      4 C           3.7465    0.4394   -0.1397 C.ar       1 <1>        0.000
      5 C           3.3176   -0.2660    0.9910 C.ar       1 <1>        0.000
      6 N           2.1047   -0.0042    1.4968 N.ar       1 <1>        0.000
      7 C           1.3036    0.9151    0.9406 C.ar       1 <1>        0.000
      8 C           4.1518   -1.2270    1.5746 C.ar       1 <1>        0.000
      9 C           5.4149   -1.4826    1.0275 C.ar       1 <1>        0.000
     10 C           5.8437   -0.7772   -0.1033 C.ar       1 <1>        0.000
     11 C           5.0095    0.1838   -0.6869 C.ar       1 <1>        0.000
     12 H           0.3201    1.1148    1.3659 H.spc      1 <1>        0.000
     13 H           3.8179   -1.7762    2.4549 H.spc      1 <1>        0.000
     14 H           6.0644   -2.2307    1.4819 H.spc      1 <1>        0.000
     15 H           6.8271   -0.9762   -0.5293 H.spc      1 <1>        0.000
     16 H           5.3434    0.7330   -1.5673 H.spc      1 <1>        0.000
@<TRIPOS>BOND
     1    1    2 1  
     2    2    3 ar 
     3    3    4 ar 
     4    4    5 ar 
     5    5    6 ar 
     6    6    7 ar 
     7    7    2 ar 
     8    5    8 ar 
     9    8    9 ar 
    10    9   10 ar 
    11   10   11 ar 
    12   11    4 ar 
    13    7   12 1  
    14    8   13 1  
    15    9   14 1  
    16   10   15 1  
    17   11   16 1  
