# Name:          seed_class_3_84_523/26467
# Creation time: Fri May 21 00:57:14 2010


@<TRIPOS>MOLECULE
seed_class_3_84_523/26467
    8     7     1     1     1
SMALL
USER_CHARGES


@<TRIPOS>ATOM
      1 P          -4.5978   -3.0209   -0.3375 P.3        1 <1>        0.000
      2 O          -5.6298   -3.8052    0.3559 O.2        1 <1>        0.000
      3 O          -4.5547   -1.5693    0.2592 O.3        1 <1>        0.000
      4 H          -4.2069   -1.5704    1.6462 H.spc      1 <1>        0.000
      5 O          -3.1996   -3.7082   -0.1434 O.3        1 <1>        0.000
      6 O          -4.9368   -2.9475   -1.8686 O.3        1 <1>        0.000
      7 H          -2.5265   -3.1952   -0.5966 H.spc      1 <1>        0.000
      8 H          -4.2623   -2.4351   -2.3203 H.spc      1 <1>        0.000
@<TRIPOS>BOND
     1    1    2 2  
     2    1    3 1  
     3    4    3 1  
     4    1    5 1  
     5    1    6 1  
     6    5    7 1  
     7    6    8 1  
