# Name:          seed_class_4_252_46/38664
# Creation time: Fri May 21 00:57:16 2010


@<TRIPOS>MOLECULE
seed_class_4_252_46/38664
   39    43     1     1     1
SMALL
USER_CHARGES


@<TRIPOS>ATOM
      1 N           1.0093    2.9593    0.5687 N.3        1 <1>        0.000
      2 C           0.7118    3.0502    2.0054 C.3        1 <1>        0.000
      3 C          -0.3736    1.9838    2.2426 C.3        1 <1>        0.000
      4 C          -0.0625    0.8833    1.2112 C.3        1 <1>        0.000
      5 C           0.9549    1.5254    0.2497 C.3        1 <1>        0.000
      6 C           2.3909    0.9648    0.2570 C.3        1 <1>        0.000
      7 C           2.3191   -0.5749    0.2906 C.3        1 <1>        0.000
      8 C           1.3006   -1.2162    1.2513 C.3        1 <1>        0.000
      9 C           0.4366   -0.2682    2.1037 C.3        1 <1>        0.000
     10 N          -0.6593   -1.2472    2.1404 N.pl3      1 <1>        0.000
     11 C          -1.7400   -0.7750    1.3584 C.ar       1 <1>        0.000
     12 C          -1.4519    0.4700    0.7866 C.ar       1 <1>        0.000
     13 C          -2.4005    1.1039   -0.0248 C.ar       1 <1>        0.000
     14 C          -3.6371    0.4928   -0.2643 C.ar       1 <1>        0.000
     15 C          -3.9252   -0.7522    0.3075 C.ar       1 <1>        0.000
     16 C          -2.9766   -1.3861    1.1189 C.ar       1 <1>        0.000
     17 H          -5.1353   -1.3501    0.0732 H.spc      1 <1>        0.000
     18 H          -0.6363   -2.5198    2.8758 H.spc      1 <1>        0.000
     19 H           1.9919   -2.1162    2.1214 H.spc      1 <1>        0.000
     20 H           0.3898   -2.1236    0.4593 H.spc      1 <1>        0.000
     21 H           3.6180   -1.0723    0.6228 H.spc      1 <1>        0.000
     22 C           3.4664    1.6631    1.0545 C.2        1 <1>        0.000
     23 C           3.3645    2.9613    1.3705 C.2        1 <1>        0.000
     24 C           2.1702    3.7801    0.9423 C.3        1 <1>        0.000
     25 H           4.6791    0.8840    1.5042 H.spc      1 <1>        0.000
     26 H           0.3747    4.0468    2.2906 H.spc      1 <1>        0.000
     27 H           1.5966    2.8758    2.6177 H.spc      1 <1>        0.000
     28 H          -1.3783    2.3881    2.1191 H.spc      1 <1>        0.000
     29 H          -0.3573    1.6036    3.2640 H.spc      1 <1>        0.000
     30 H           0.5906    1.2948   -0.7514 H.spc      1 <1>        0.000
     31 H           2.8504    1.2631   -0.6853 H.spc      1 <1>        0.000
     32 H           1.9694   -0.8541   -0.7033 H.spc      1 <1>        0.000
     33 H           0.8531    0.1690    3.0112 H.spc      1 <1>        0.000
     34 H          -2.1763    2.0732   -0.4701 H.spc      1 <1>        0.000
     35 H          -4.3756    0.9864   -0.8960 H.spc      1 <1>        0.000
     36 H          -3.2008   -2.3554    1.5642 H.spc      1 <1>        0.000
     37 H           4.1586    3.4352    1.9475 H.spc      1 <1>        0.000
     38 H           2.4627    4.3572    0.0651 H.spc      1 <1>        0.000
     39 H           1.8764    4.4026    1.7874 H.spc      1 <1>        0.000
@<TRIPOS>BOND
     1    1    2 1  
     2    2    3 1  
     3    3    4 1  
     4    4    5 1  
     5    5    1 1  
     6    5    6 1  
     7    6    7 1  
     8    7    8 1  
     9    8    9 1  
    10    9    4 1  
    11    9   10 1  
    12   10   11 1  
    13   11   12 ar 
    14   12    4 1  
    15   12   13 ar 
    16   13   14 ar 
    17   14   15 ar 
    18   15   16 ar 
    19   16   11 ar 
    20   15   17 1  
    21   10   18 1  
    22    8   19 1  
    23    8   20 1  
    24    7   21 1  
    25    6   22 1  
    26   22   23 2  
    27   23   24 1  
    28   24    1 1  
    29   22   25 1  
    30    2   26 1  
    31    2   27 1  
    32    3   28 1  
    33    3   29 1  
    34    5   30 1  
    35    6   31 1  
    36    7   32 1  
    37    9   33 1  
    38   13   34 1  
    39   14   35 1  
    40   16   36 1  
    41   23   37 1  
    42   24   38 1  
    43   24   39 1  
