# Name:          seed_class_4_324_26/38664
# Creation time: Fri May 21 00:57:17 2010


@<TRIPOS>MOLECULE
seed_class_4_324_26/38664
   27    28     1     1     1
SMALL
USER_CHARGES


@<TRIPOS>ATOM
      1 N          -0.2613    2.0118   -1.1479 N.3        1 <1>        0.000
      2 C           0.9110    1.4982   -1.8710 C.3        1 <1>        0.000
      3 C           2.2034    1.7378   -1.0684 C.3        1 <1>        0.000
      4 C           3.4672    1.2433   -1.7963 C.3        1 <1>        0.000
      5 C           4.7384    1.5304   -0.9758 C.3        1 <1>        0.000
      6 C           4.6382    0.9400    0.4430 C.3        1 <1>        0.000
      7 C           3.3744    1.4345    1.1709 C.3        1 <1>        0.000
      8 C           2.1032    1.1473    0.3504 C.3        1 <1>        0.000
      9 C           0.8115    1.5995    1.0566 C.3        1 <1>        0.000
     10 C          -0.4210    1.3664    0.1632 C.3        1 <1>        0.000
     11 H           2.0137   -0.3519    0.1941 H.spc      1 <1>        0.000
     12 H          -1.4707    1.7866   -1.9527 H.spc      1 <1>        0.000
     13 H           0.9898    2.0202   -2.8246 H.spc      1 <1>        0.000
     14 H           0.7867    0.4258   -2.0216 H.spc      1 <1>        0.000
     15 H           2.3085    2.8189   -0.9772 H.spc      1 <1>        0.000
     16 H           3.5449    1.7674   -2.7489 H.spc      1 <1>        0.000
     17 H           3.3843    0.1660   -1.9397 H.spc      1 <1>        0.000
     18 H           4.8598    2.6104   -0.8930 H.spc      1 <1>        0.000
     19 H           5.5876    1.0714   -1.4820 H.spc      1 <1>        0.000
     20 H           5.5117    1.2580    1.0122 H.spc      1 <1>        0.000
     21 H           4.5883   -0.1459    0.3628 H.spc      1 <1>        0.000
     22 H           3.4573    2.5118    1.3143 H.spc      1 <1>        0.000
     23 H           3.2968    0.9104    2.1235 H.spc      1 <1>        0.000
     24 H           0.8879    2.6649    1.2737 H.spc      1 <1>        0.000
     25 H           0.6933    1.0191    1.9716 H.spc      1 <1>        0.000
     26 H          -1.2930    1.7954    0.6568 H.spc      1 <1>        0.000
     27 H          -0.5398    0.2939    0.0094 H.spc      1 <1>        0.000
@<TRIPOS>BOND
     1    1    2 1  
     2    2    3 1  
     3    3    4 1  
     4    4    5 1  
     5    5    6 1  
     6    6    7 1  
     7    7    8 1  
     8    8    3 1  
     9    8    9 1  
    10    9   10 1  
    11   10    1 1  
    12    8   11 1  
    13    1   12 1  
    14    2   13 1  
    15    2   14 1  
    16    3   15 1  
    17    4   16 1  
    18    4   17 1  
    19    5   18 1  
    20    5   19 1  
    21    6   20 1  
    22    6   21 1  
    23    7   22 1  
    24    7   23 1  
    25    9   24 1  
    26    9   25 1  
    27   10   26 1  
    28   10   27 1  
