# Name:          seed_class_5_421_72/34898
# Creation time: Fri May 21 00:57:18 2010


@<TRIPOS>MOLECULE
seed_class_5_421_72/34898
   16    16     1     1     1
SMALL
USER_CHARGES


@<TRIPOS>ATOM
      1 H          -2.6439    0.1429   -1.6979 H.spc      1 <1>        0.000
      2 C          -1.3173    0.0149   -0.9880 C.ar       1 <1>        0.000
      3 C          -0.4733   -1.0656   -1.2710 C.ar       1 <1>        0.000
      4 C           0.7567   -1.1842   -0.6128 C.ar       1 <1>        0.000
      5 C           1.1425   -0.2223    0.3284 C.ar       1 <1>        0.000
      6 C           0.2985    0.8583    0.6114 C.ar       1 <1>        0.000
      7 C          -0.9314    0.9769   -0.0468 C.ar       1 <1>        0.000
      8 C           0.7064    1.8751    1.6064 C.2        1 <1>        0.000
      9 O           1.7896    1.7861    2.1606 O.2        1 <1>        0.000
     10 O          -0.1017    2.8784    1.8941 O.3        1 <1>        0.000
     11 H           1.6670   -2.3496   -0.9180 H.spc      1 <1>        0.000
     12 O          -0.8509   -2.0069   -2.1920 O.3        1 <1>        0.000
     13 H           2.1000   -0.3147    0.8409 H.spc      1 <1>        0.000
     14 H          -1.5885    1.8182    0.1735 H.spc      1 <1>        0.000
     15 H          -0.9052    2.7997    1.3747 H.spc      1 <1>        0.000
     16 H          -0.1643   -2.6738   -2.2663 H.spc      1 <1>        0.000
@<TRIPOS>BOND
     1    1    2 1  
     2    2    3 ar 
     3    3    4 ar 
     4    4    5 ar 
     5    5    6 ar 
     6    6    7 ar 
     7    7    2 ar 
     8    6    8 1  
     9    8    9 2  
    10    8   10 1  
    11    4   11 1  
    12    3   12 1  
    13    5   13 1  
    14    7   14 1  
    15   10   15 1  
    16   12   16 1  
