#	Name:			dihydrophenanthrene
#	Creating user name:	becker
#	Creation time:		Thu Dec 19 02:54:45 2002

#	Modifying user name:	zmliu
#	Modification time:	Thu Mar 11 20:44:31 2004

@<TRIPOS>MOLECULE
dihydrophenanthrene
   26    28     1     1     0
SMALL
NO_CHARGES


@<TRIPOS>ATOM
      1 C1          2.8233    0.7004    0.2821 C.ar      1 DIHYDROPHENANTHRENE    0.0000 
      2 C2          3.5466   -0.4619    0.0033 C.ar      1 DIHYDROPHENANTHRENE    0.0000 
      3 C3          2.8703   -1.6358   -0.3381 C.ar      1 DIHYDROPHENANTHRENE    0.0000 
      4 C4          1.4731   -1.6527   -0.3758 C.ar      1 DIHYDROPHENANTHRENE    0.0000 
      5 C5          0.7431   -0.5067   -0.0372 C.ar      1 DIHYDROPHENANTHRENE    0.0000 
      6 C6          1.4250    0.6856    0.2336 C.ar      1 DIHYDROPHENANTHRENE    0.0000 
      7 C7         -0.7430   -0.5072    0.0354 C.ar      1 DIHYDROPHENANTHRENE    0.0000 
      8 C8         -1.4256    0.6851   -0.2337 C.ar      1 DIHYDROPHENANTHRENE    0.0000 
      9 C9         -0.6173    1.9652   -0.4703 C.3       1 DIHYDROPHENANTHRENE    0.0000 
     10 C10         0.6168    1.9667    0.4650 C.3       1 DIHYDROPHENANTHRENE    0.0000 
     11 C11        -1.4723   -1.6541    0.3727 C.ar      1 DIHYDROPHENANTHRENE    0.0000 
     12 C12        -2.8695   -1.6371    0.3384 C.ar      1 DIHYDROPHENANTHRENE    0.0000 
     13 C13        -3.5467   -0.4623    0.0023 C.ar      1 DIHYDROPHENANTHRENE    0.0000 
     14 C14        -2.8241    0.7007   -0.2760 C.ar      1 DIHYDROPHENANTHRENE    0.0000 
     15 H1          3.3532    1.6131    0.5355 H.spc     1 DIHYDROPHENANTHRENE    0.0000 
     16 H2          4.6314   -0.4525    0.0491 H.spc     1 DIHYDROPHENANTHRENE    0.0000 
     17 H3          3.4311   -2.5348   -0.5755 H.spc     1 DIHYDROPHENANTHRENE    0.0000 
     18 H4          0.9685   -2.5639   -0.6771 H.spc     1 DIHYDROPHENANTHRENE    0.0000 
     19 H5         -1.2271    2.8618   -0.2734 H.spc     1 DIHYDROPHENANTHRENE    0.0000 
     20 H6         -0.2952    1.9818   -1.5237 H.spc     1 DIHYDROPHENANTHRENE    0.0000 
     21 H7          1.2267    2.8624    0.2644 H.spc     1 DIHYDROPHENANTHRENE    0.0000 
     22 H8          0.2947    1.9876    1.5183 H.spc     1 DIHYDROPHENANTHRENE    0.0000 
     23 H9         -0.9670   -2.5661    0.6707 H.spc     1 DIHYDROPHENANTHRENE    0.0000 
     24 H10        -3.4298   -2.5369    0.5741 H.spc     1 DIHYDROPHENANTHRENE    0.0000 
     25 H11        -4.6316   -0.4525   -0.0400 H.spc     1 DIHYDROPHENANTHRENE    0.0000 
     26 H12        -3.3547    1.6143   -0.5241 H.spc     1 DIHYDROPHENANTHRENE    0.0000 
@<TRIPOS>BOND
     1    1    2 ar   
     2    1    6 ar   
     3    2    3 ar   
     4    3    4 ar   
     5    4    5 ar   
     6    5    6 ar   
     7    5    7 1    
     8    6   10 1    
     9    7    8 ar   
    10    7   11 ar   
    11    8    9 1    
    12    8   14 ar   
    13    9   10 1    
    14   11   12 ar   
    15   12   13 ar   
    16   13   14 ar   
    17    1   15 1    
    18    2   16 1    
    19    3   17 1    
    20    4   18 1    
    21    9   19 1    
    22    9   20 1    
    23   10   21 1    
    24   10   22 1    
    25   11   23 1    
    26   12   24 1    
    27   13   25 1    
    28   14   26 1    
@<TRIPOS>SUBSTRUCTURE
     1 DIHYDROPHENANTHRENE     1 PERM              0 ****  ****    0 ROOT 
@<TRIPOS>NORMAL
@<TRIPOS>FF_PBC
FORCE_FIELD_SETUP_FEATURE Force Field Setup information
v1.0  0 0.000000 0.000000 0.000000 0.000000 0.000000 0.000000 NONE 2 0 0 0 0 0 0 0 0 0 0 0 0
