# Name:          seed_class_4_332_25/38664
# Creation time: Fri May 21 00:57:17 2010


@<TRIPOS>MOLECULE
seed_class_4_332_25/38664
   25    27     1     1     1
SMALL
USER_CHARGES


@<TRIPOS>ATOM
      1 H          -0.9366   -2.8381    2.6676 H.spc      1 <1>        0.000
      2 C           0.4102   -2.0331    1.9153 C.ar       1 <1>        0.000
      3 C           0.1843   -1.0316    0.9635 C.ar       1 <1>        0.000
      4 C           1.2678   -0.3840    0.3581 C.ar       1 <1>        0.000
      5 C           2.5773   -0.7378    0.7046 C.ar       1 <1>        0.000
      6 C           2.8032   -1.7394    1.6564 C.ar       1 <1>        0.000
      7 C           1.7197   -2.3870    2.2617 C.ar       1 <1>        0.000
      8 S           3.8899    0.1291   -0.1068 S.3        1 <1>        0.000
      9 C           3.3156    1.3415   -1.2615 C.ar       1 <1>        0.000
     10 C           1.9261    1.4601   -1.3855 C.ar       1 <1>        0.000
     11 C           1.3799    2.3931   -2.2750 C.ar       1 <1>        0.000
     12 C           2.2230    3.2075   -3.0404 C.ar       1 <1>        0.000
     13 C           3.6124    3.0888   -2.9164 C.ar       1 <1>        0.000
     14 C           4.1587    2.1559   -2.0270 C.ar       1 <1>        0.000
     15 C           0.9321    0.6605   -0.6353 C.2        1 <1>        0.000
     16 C          -0.3649    0.8992   -0.8725 C.2        1 <1>        0.000
     17 H          -1.4241    0.1140   -0.1364 H.spc      1 <1>        0.000
     18 H          -0.8352   -0.7561    0.6938 H.spc      1 <1>        0.000
     19 H           3.8227   -2.0150    1.9261 H.spc      1 <1>        0.000
     20 H           1.8956   -3.1668    3.0027 H.spc      1 <1>        0.000
     21 H           0.2981    2.4854   -2.3716 H.spc      1 <1>        0.000
     22 H           1.7977    3.9340   -3.7328 H.spc      1 <1>        0.000
     23 H           4.2689    3.7228   -3.5124 H.spc      1 <1>        0.000
     24 H           5.2405    2.0636   -1.9305 H.spc      1 <1>        0.000
     25 H          -0.6554    1.6602   -1.5968 H.spc      1 <1>        0.000
@<TRIPOS>BOND
     1    1    2 1  
     2    2    3 ar 
     3    3    4 ar 
     4    4    5 ar 
     5    5    6 ar 
     6    6    7 ar 
     7    7    2 ar 
     8    5    8 1  
     9    8    9 1  
    10    9   10 ar 
    11   10   11 ar 
    12   11   12 ar 
    13   12   13 ar 
    14   13   14 ar 
    15   14    9 ar 
    16   10   15 1  
    17   15    4 1  
    18   15   16 2  
    19   16   17 1  
    20    3   18 1  
    21    6   19 1  
    22    7   20 1  
    23   11   21 1  
    24   12   22 1  
    25   13   23 1  
    26   14   24 1  
    27   16   25 1  
