# Name:          seed_class_2_39_143/95646
# Creation time: Fri May 21 00:57:13 2010


@<TRIPOS>MOLECULE
seed_class_2_39_143/95646
    3     2     1     1     1
SMALL
USER_CHARGES


@<TRIPOS>ATOM
      1 H           1.8623   -0.7182   -1.8934 H.spc      1 <1>        0.000
      2 N           2.7513   -1.9985   -2.3703 N.2        1 <1>        0.000
      3 O           3.8438   -1.8248   -2.8848 O.2        1 <1>        0.000
@<TRIPOS>BOND
     1    1    2 1  
     2    2    3 2  
