#	Name:			benzofuran
#	Creating user name:	becker
#	Creation time:		Thu Dec 19 02:54:41 2002

#	Modifying user name:	zmliu
#	Modification time:	Thu Mar 11 20:30:36 2004

@<TRIPOS>MOLECULE
benzofuran
   15    16     1     1     0
SMALL
GAST_HUCK


@<TRIPOS>ATOM
      1 O1          1.5544    1.5276   -0.0011 O.3       1 BENZOFURAN   -0.2439 
      2 C1          2.4434    0.5087   -0.0002 C.2       1 BENZOFURAN    0.1676 
      3 C2          1.9571   -0.7407    0.0007 C.2       1 BENZOFURAN   -0.0064 
      4 C3         -0.6304   -1.4086   -0.0006 C.ar      1 BENZOFURAN   -0.0247 
      5 C4         -1.8965   -0.8099   -0.0002 C.ar      1 BENZOFURAN   -0.0239 
      6 C5         -2.0328    0.5871    0.0006 C.ar      1 BENZOFURAN   -0.0203 
      7 C6         -0.9102    1.4262   -0.0001 C.ar      1 BENZOFURAN    0.0180 
      8 C7          0.3495    0.8264   -0.0005 C.ar      1 BENZOFURAN    0.1331 
      9 C8          0.4681   -0.5509   -0.0001 C.ar      1 BENZOFURAN    0.0005 
     10 H1          3.5151    0.7043   -0.0001 H.spc     1 BENZOFURAN   -1.0000 
     11 H2          2.5069   -1.6811    0.0019 H.spc     1 BENZOFURAN   -1.0000 
     12 H3         -0.5041   -2.4859   -0.0011 H.spc     1 BENZOFURAN   -1.0000 
     13 H4         -2.7832   -1.4362   -0.0007 H.spc     1 BENZOFURAN   -1.0000 
     14 H5         -3.0254    1.0269    0.0020 H.spc     1 BENZOFURAN   -1.0000 
     15 H6         -1.0118    2.5063   -0.0004 H.spc     1 BENZOFURAN   -1.0000 
@<TRIPOS>BOND
     1    2    1 1    
     2    1    8 1    
     3    3    2 2    
     4    9    3 1    
     5    4    5 ar   
     6    4    9 ar   
     7    5    6 ar   
     8    6    7 ar   
     9    7    8 ar   
    10    8    9 ar   
    11    2   10 1    
    12    3   11 1    
    13    4   12 1    
    14    5   13 1    
    15    6   14 1    
    16    7   15 1    
@<TRIPOS>SUBSTRUCTURE
     1 BENZOFURAN     4 PERM              0 ****  ****    0 ROOT 
@<TRIPOS>NORMAL
@<TRIPOS>FF_PBC
FORCE_FIELD_SETUP_FEATURE Force Field Setup information
v1.0  0 0.000000 0.000000 0.000000 0.000000 0.000000 0.000000 NONE 2 0 0 0 0 0 0 0 0 0 0 0 0
