# Name:          seed_class_4_344_23/38664
# Creation time: Fri May 21 00:57:17 2010


@<TRIPOS>MOLECULE
seed_class_4_344_23/38664
   38    41     1     1     1
SMALL
USER_CHARGES


@<TRIPOS>ATOM
      1 H          -5.2663    0.4112   -0.5449 H.spc      1 <1>        0.000
      2 C          -3.8976    0.3649   -0.5835 C.ar       1 <1>        0.000
      3 C          -3.1855   -0.1906    0.4863 C.ar       1 <1>        0.000
      4 C          -1.7869   -0.2378    0.4469 C.ar       1 <1>        0.000
      5 C          -1.1003    0.2704   -0.6623 C.ar       1 <1>        0.000
      6 C          -1.8123    0.8259   -1.7320 C.ar       1 <1>        0.000
      7 C          -3.2110    0.8732   -1.6927 C.ar       1 <1>        0.000
      8 C           0.4068    0.2425   -0.7518 C.3        1 <1>        0.000
      9 C           1.0198    1.4625   -1.4641 C.3        1 <1>        0.000
     10 C           2.5432    1.3107   -1.6307 C.3        1 <1>        0.000
     11 C           3.2333    1.0413   -0.2806 C.3        1 <1>        0.000
     12 C           2.6203   -0.1787    0.4317 C.3        1 <1>        0.000
     13 C           3.5998   -0.4877    1.5792 C.3        1 <1>        0.000
     14 C           4.9760   -0.0602    1.0362 C.3        1 <1>        0.000
     15 C           4.7261    0.8953   -0.1061 C.2        1 <1>        0.000
     16 O           5.5751    1.4379   -0.7760 O.2        1 <1>        0.000
     17 C           1.0969   -0.0269    0.5983 C.3        1 <1>        0.000
     18 C           0.4060   -1.1924    1.3304 C.3        1 <1>        0.000
     19 C          -1.0654   -0.8468    1.6253 C.3        1 <1>        0.000
     20 H           0.4846   -2.4598    0.4842 H.spc      1 <1>        0.000
     21 H           2.8960    2.3173    0.4853 H.spc      1 <1>        0.000
     22 H          -3.7201   -0.5863    1.3499 H.spc      1 <1>        0.000
     23 H          -1.2777    1.2216   -2.5955 H.spc      1 <1>        0.000
     24 H          -3.7653    1.3057   -2.5256 H.spc      1 <1>        0.000
     25 H           0.6119   -0.6161   -1.3912 H.spc      1 <1>        0.000
     26 H           0.8247    2.3491   -0.8608 H.spc      1 <1>        0.000
     27 H           0.5705    1.5468   -2.4536 H.spc      1 <1>        0.000
     28 H           2.9401    2.2385   -2.0427 H.spc      1 <1>        0.000
     29 H           2.7362    0.4661   -2.2922 H.spc      1 <1>        0.000
     30 H           2.5587   -1.1257   -0.1045 H.spc      1 <1>        0.000
     31 H           3.5805   -1.5405    1.8607 H.spc      1 <1>        0.000
     32 H           3.3383    0.0438    2.4942 H.spc      1 <1>        0.000
     33 H           5.5412   -0.9276    0.6953 H.spc      1 <1>        0.000
     34 H           5.5653    0.4201    1.8173 H.spc      1 <1>        0.000
     35 H           0.9790    0.8405    1.2478 H.spc      1 <1>        0.000
     36 H           0.9199   -1.3624    2.2765 H.spc      1 <1>        0.000
     37 H          -1.0751   -0.1129    2.4312 H.spc      1 <1>        0.000
     38 H          -1.5764   -1.7757    1.8788 H.spc      1 <1>        0.000
@<TRIPOS>BOND
     1    1    2 1  
     2    2    3 ar 
     3    3    4 ar 
     4    4    5 ar 
     5    5    6 ar 
     6    6    7 ar 
     7    7    2 ar 
     8    5    8 1  
     9    8    9 1  
    10    9   10 1  
    11   10   11 1  
    12   11   12 1  
    13   12   13 1  
    14   13   14 1  
    15   14   15 1  
    16   15   11 1  
    17   15   16 2  
    18   12   17 1  
    19   17    8 1  
    20   17   18 1  
    21   18   19 1  
    22   19    4 1  
    23   18   20 1  
    24   11   21 1  
    25    3   22 1  
    26    6   23 1  
    27    7   24 1  
    28    8   25 1  
    29    9   26 1  
    30    9   27 1  
    31   10   28 1  
    32   10   29 1  
    33   12   30 1  
    34   13   31 1  
    35   13   32 1  
    36   14   33 1  
    37   14   34 1  
    38   17   35 1  
    39   18   36 1  
    40   19   37 1  
    41   19   38 1  
