# Name:          seed_class_4_223_69/38664
# Creation time: Fri May 21 00:57:16 2010


@<TRIPOS>MOLECULE
seed_class_4_223_69/38664
   18    18     1     1     1
SMALL
USER_CHARGES


@<TRIPOS>ATOM
      1 N           2.7968    1.9756    0.6482 N.pl3      1 <1>        0.000
      2 C           1.7174    1.6257   -0.2865 C.3        1 <1>        0.000
      3 C           0.3756    1.4360    0.4451 C.3        1 <1>        0.000
      4 N           0.0750    2.5426    1.3649 N.am       1 <1>        0.000
      5 C           1.1656    2.8851    2.2891 C.3        1 <1>        0.000
      6 C           2.5138    3.0836    1.5719 C.3        1 <1>        0.000
      7 C          -1.0908    3.1827    1.3613 C.2        1 <1>        0.000
      8 O          -1.2986    4.0867    2.1691 O.2        1 <1>        0.000
      9 H          -2.1594    2.7998    0.3654 H.spc      1 <1>        0.000
     10 H           4.0332    1.2875    0.6582 H.spc      1 <1>        0.000
     11 H           1.9775    0.6886   -0.7786 H.spc      1 <1>        0.000
     12 H           1.6067    2.4377   -1.0052 H.spc      1 <1>        0.000
     13 H           0.4386    0.5191    1.0311 H.spc      1 <1>        0.000
     14 H          -0.4142    1.3981   -0.3051 H.spc      1 <1>        0.000
     15 H           1.2794    2.0600    2.9922 H.spc      1 <1>        0.000
     16 H           0.9062    3.8237    2.7789 H.spc      1 <1>        0.000
     17 H           3.3036    3.1196    2.3223 H.spc      1 <1>        0.000
     18 H           2.4685    4.0097    0.9988 H.spc      1 <1>        0.000
@<TRIPOS>BOND
     1    1    2 1  
     2    2    3 1  
     3    3    4 1  
     4    4    5 1  
     5    5    6 1  
     6    6    1 1  
     7    4    7 am 
     8    7    8 2  
     9    7    9 1  
    10    1   10 1  
    11    2   11 1  
    12    2   12 1  
    13    3   13 1  
    14    3   14 1  
    15    5   15 1  
    16    5   16 1  
    17    6   17 1  
    18    6   18 1  
