#	Name:			pyrimidine
#	Creating user name:	becker
#	Creation time:		Thu Dec 19 02:55:02 2002

#	Modifying user name:	zmliu
#	Modification time:	Thu Mar 11 21:25:59 2004

@<TRIPOS>MOLECULE
pyrimidine
   10    10     1     1     0
SMALL
GAST_HUCK


@<TRIPOS>ATOM
      1 N1          0.9228    1.1726    0.0000 N.ar      1 PYRIMIDINE   -0.2353 
      2 C1          1.5903    0.0000    0.0000 C.ar      1 PYRIMIDINE    0.1771 
      3 N2          0.9229   -1.1724    0.0000 N.ar      1 PYRIMIDINE   -0.2353 
      4 C2         -0.4254   -1.1993    0.0000 C.ar      1 PYRIMIDINE    0.1105 
      5 C3         -1.1419    0.0000    0.0000 C.ar      1 PYRIMIDINE    0.0726 
      6 C4         -0.4255    1.1992    0.0000 C.ar      1 PYRIMIDINE    0.1105 
      7 H1          2.6741    0.0001    0.0000 H.spc     1 PYRIMIDINE   -1.0000 
      8 H2         -0.9448   -2.1515    0.0000 H.spc     1 PYRIMIDINE   -1.0000 
      9 H3         -2.2274    0.0000    0.0000 H.spc     1 PYRIMIDINE   -1.0000 
     10 H4         -0.9450    2.1514    0.0000 H.spc     1 PYRIMIDINE   -1.0000 
@<TRIPOS>BOND
     1    1    2 ar   
     2    1    6 ar   
     3    2    3 ar   
     4    3    4 ar   
     5    4    5 ar   
     6    5    6 ar   
     7    2    7 1    
     8    4    8 1    
     9    5    9 1    
    10    6   10 1    
@<TRIPOS>SUBSTRUCTURE
     1 PYRIMIDINE     1 PERM              0 ****  ****    0 ROOT 
@<TRIPOS>NORMAL
@<TRIPOS>FF_PBC
FORCE_FIELD_SETUP_FEATURE Force Field Setup information
v1.0  0 0.000000 0.000000 0.000000 0.000000 0.000000 0.000000 NONE 2 0 0 0 0 0 0 0 0 0 0 0 0
