# Name:          seed_class_5_463_39/34898
# Creation time: Fri May 21 00:57:19 2010


@<TRIPOS>MOLECULE
seed_class_5_463_39/34898
   16    17     1     1     1
SMALL
USER_CHARGES


@<TRIPOS>ATOM
      1 O           8.0264   -1.5318    3.2715 O.3        1 <1>        0.000
      2 C           9.1201   -0.6371    3.0523 C.3        1 <1>        0.000
      3 O           8.8225   -0.0232    1.7955 O.3        1 <1>        0.000
      4 C           7.4583   -0.0608    1.6751 C.ar       1 <1>        0.000
      5 C           6.9642   -0.9971    2.5912 C.ar       1 <1>        0.000
      6 C           5.5870   -1.2337    2.6763 C.ar       1 <1>        0.000
      7 C           4.7038   -0.5341    1.8453 C.ar       1 <1>        0.000
      8 C           5.1979    0.4022    0.9292 C.ar       1 <1>        0.000
      9 C           6.5751    0.6389    0.8441 C.ar       1 <1>        0.000
     10 O           3.3561   -0.7656    1.9286 O.3        1 <1>        0.000
     11 H           2.4940   -0.0351    1.0523 H.spc      1 <1>        0.000
     12 H          10.0795   -1.1543    3.0412 H.spc      1 <1>        0.000
     13 H           9.2212    0.0942    3.8543 H.spc      1 <1>        0.000
     14 H           5.2023   -1.9626    3.3896 H.spc      1 <1>        0.000
     15 H           4.5103    0.9469    0.2822 H.spc      1 <1>        0.000
     16 H           6.9598    1.3679    0.1309 H.spc      1 <1>        0.000
@<TRIPOS>BOND
     1    1    2 1  
     2    2    3 1  
     3    3    4 1  
     4    4    5 ar 
     5    5    1 1  
     6    5    6 ar 
     7    6    7 ar 
     8    7    8 ar 
     9    8    9 ar 
    10    9    4 ar 
    11    7   10 1  
    12   10   11 1  
    13    2   12 1  
    14    2   13 1  
    15    6   14 1  
    16    8   15 1  
    17    9   16 1  
