# Name:          seed_class_4_281_35/38664
# Creation time: Fri May 21 00:57:16 2010


@<TRIPOS>MOLECULE
seed_class_4_281_35/38664
   41    44     1     1     1
SMALL
USER_CHARGES


@<TRIPOS>ATOM
      1 N          -3.1211   -0.3337   -0.5608 N.pl3      1 <1>        0.000
      2 C          -4.2100   -0.9579    0.0927 C.ar       1 <1>        0.000
      3 C          -4.5877   -0.1291    1.1560 C.ar       1 <1>        0.000
      4 C          -3.6656    1.0275    1.1051 C.ar       1 <1>        0.000
      5 C          -2.8346    0.8357    0.0716 C.ar       1 <1>        0.000
      6 C          -1.6976    1.6746   -0.4610 C.3        1 <1>        0.000
      7 C          -2.1642    2.8025   -1.4001 C.3        1 <1>        0.000
      8 C          -2.1683    4.2005   -0.7544 C.3        1 <1>        0.000
      9 C          -3.5428    4.6717   -0.2440 C.3        1 <1>        0.000
     10 N          -3.7375    4.5117    1.2042 N.3        1 <1>        0.000
     11 C          -2.6100    4.5118    2.1474 C.3        1 <1>        0.000
     12 C          -1.4421    3.6558    1.6232 C.3        1 <1>        0.000
     13 C          -0.9813    4.0959    0.2212 C.3        1 <1>        0.000
     14 H          -1.8214    2.2772    1.6002 H.spc      1 <1>        0.000
     15 H          -0.2694    3.7220    2.6005 H.spc      1 <1>        0.000
     16 C          -4.5657    3.3605    1.5912 C.3        1 <1>        0.000
     17 C          -3.7617    2.1527    2.1075 C.3        1 <1>        0.000
     18 H          -0.7020    0.7926   -1.1758 H.spc      1 <1>        0.000
     19 H          -0.9103    2.2581    0.6878 H.spc      1 <1>        0.000
     20 C          -5.6518   -0.4982    1.9874 C.ar       1 <1>        0.000
     21 C          -6.3383   -1.6962    1.7556 C.ar       1 <1>        0.000
     22 C          -5.9606   -2.5250    0.6924 C.ar       1 <1>        0.000
     23 C          -4.8964   -2.1558   -0.1390 C.ar       1 <1>        0.000
     24 H          -2.6299   -0.7018   -1.3754 H.spc      1 <1>        0.000
     25 H          -3.1915    2.5778   -1.6869 H.spc      1 <1>        0.000
     26 H          -1.4642    2.8360   -2.2350 H.spc      1 <1>        0.000
     27 H          -2.0195    5.0377   -1.4364 H.spc      1 <1>        0.000
     28 H          -4.2961    4.0585   -0.7386 H.spc      1 <1>        0.000
     29 H          -3.6180    5.7370   -0.4620 H.spc      1 <1>        0.000
     30 H          -2.9498    4.0926    3.0945 H.spc      1 <1>        0.000
     31 H          -2.2608    5.5370    2.2708 H.spc      1 <1>        0.000
     32 H          -0.2828    3.3523   -0.1625 H.spc      1 <1>        0.000
     33 H          -0.5135    5.0770    0.3031 H.spc      1 <1>        0.000
     34 H          -5.1011    3.0342    0.6996 H.spc      1 <1>        0.000
     35 H          -5.2135    3.6881    2.4043 H.spc      1 <1>        0.000
     36 H          -4.2753    1.7668    2.9880 H.spc      1 <1>        0.000
     37 H          -2.7484    2.4960    2.3160 H.spc      1 <1>        0.000
     38 H          -5.9459    0.1471    2.8152 H.spc      1 <1>        0.000
     39 H          -7.1668   -1.9836    2.4029 H.spc      1 <1>        0.000
     40 H          -6.4950   -3.4577    0.5119 H.spc      1 <1>        0.000
     41 H          -4.6023   -2.8011   -0.9668 H.spc      1 <1>        0.000
@<TRIPOS>BOND
     1    1    2 ar 
     2    2    3 ar 
     3    3    4 ar 
     4    4    5 ar 
     5    5    1 ar 
     6    5    6 1  
     7    6    7 1  
     8    7    8 1  
     9    8    9 1  
    10    9   10 1  
    11   10   11 1  
    12   11   12 1  
    13   12   13 1  
    14   13    8 1  
    15   12   14 1  
    16   12   15 1  
    17   10   16 1  
    18   16   17 1  
    19   17    4 1  
    20    6   18 1  
    21    6   19 1  
    22    3   20 ar 
    23   20   21 ar 
    24   21   22 ar 
    25   22   23 ar 
    26   23    2 ar 
    27    1   24 1  
    28    7   25 1  
    29    7   26 1  
    30    8   27 1  
    31    9   28 1  
    32    9   29 1  
    33   11   30 1  
    34   11   31 1  
    35   13   32 1  
    36   13   33 1  
    37   16   34 1  
    38   16   35 1  
    39   17   36 1  
    40   17   37 1  
    41   20   38 1  
    42   21   39 1  
    43   22   40 1  
    44   23   41 1  
