#	Name:			tetrahydropyran
#	Creating user name:	becker
#	Creation time:		Thu Dec 19 02:55:04 2002

#	Modifying user name:	zmliu
#	Modification time:	Thu Mar 11 21:34:16 2004

@<TRIPOS>MOLECULE
tetrahydropyran
   16    16     1     1     0
SMALL
GAST_HUCK


@<TRIPOS>ATOM
      1 O1         -0.0006    1.5642   -0.5362 O.3       1 TETRAHYDROPYRAN   -0.3538 
      2 C1          1.1990    0.9991    0.0266 C.3       1 TETRAHYDROPYRAN    0.1422 
      3 C2          1.2615   -0.5258   -0.2412 C.3       1 TETRAHYDROPYRAN    0.0322 
      4 C3          0.0004   -1.2070    0.3455 C.3       1 TETRAHYDROPYRAN    0.0052 
      5 C4         -1.2610   -0.5265   -0.2412 C.3       1 TETRAHYDROPYRAN    0.0322 
      6 C5         -1.1998    0.9984    0.0265 C.3       1 TETRAHYDROPYRAN    0.1422 
      7 H1          1.2492    1.2045    1.1084 H.spc     1 TETRAHYDROPYRAN   -1.0000 
      8 H2          2.0586    1.4929   -0.4534 H.spc     1 TETRAHYDROPYRAN   -1.0000 
      9 H3          2.1711   -0.9547    0.2116 H.spc     1 TETRAHYDROPYRAN   -1.0000 
     10 H4          1.3009   -0.6995   -1.3293 H.spc     1 TETRAHYDROPYRAN   -1.0000 
     11 H5          0.0005   -1.1017    1.4431 H.spc     1 TETRAHYDROPYRAN   -1.0000 
     12 H6          0.0009   -2.2828    0.1024 H.spc     1 TETRAHYDROPYRAN   -1.0000 
     13 H7         -2.1703   -0.9563    0.2114 H.spc     1 TETRAHYDROPYRAN   -1.0000 
     14 H8         -1.3000   -0.7002   -1.3293 H.spc     1 TETRAHYDROPYRAN   -1.0000 
     15 H9         -2.0597    1.4914   -0.4536 H.spc     1 TETRAHYDROPYRAN   -1.0000 
     16 H10        -1.2505    1.2039    1.1084 H.spc     1 TETRAHYDROPYRAN   -1.0000 
@<TRIPOS>BOND
     1    1    2 1    
     2    1    6 1    
     3    2    3 1    
     4    3    4 1    
     5    4    5 1    
     6    5    6 1    
     7    2    7 1    
     8    2    8 1    
     9    3    9 1    
    10    3   10 1    
    11    4   11 1    
    12    4   12 1    
    13    5   13 1    
    14    5   14 1    
    15    6   15 1    
    16    6   16 1    
@<TRIPOS>SUBSTRUCTURE
     1 TETRAHYDROPYRAN     1 PERM              0 ****  ****    0 ROOT 
@<TRIPOS>NORMAL
@<TRIPOS>FF_PBC
FORCE_FIELD_SETUP_FEATURE Force Field Setup information
v1.0  0 0.000000 0.000000 0.000000 0.000000 0.000000 0.000000 NONE 2 0 0 0 0 0 0 0 0 0 0 0 0
