#	Name:			fluorene
#	Creating user name:	becker
#	Creation time:		Thu Dec 19 02:54:46 2002

#	Modifying user name:	zmliu
#	Modification time:	Thu Mar 11 20:46:14 2004

@<TRIPOS>MOLECULE
fluorene
   23    25     1     1     0
SMALL
NO_CHARGES


@<TRIPOS>ATOM
      1 C1          2.5141    1.1347    0.0021 C.ar      1 FLUORENE    0.0000 
      2 C2          3.4195    0.0675    0.0052 C.ar      1 FLUORENE    0.0000 
      3 C3          2.9622   -1.2570    0.0019 C.ar      1 FLUORENE    0.0000 
      4 C4          1.5914   -1.5391   -0.0028 C.ar      1 FLUORENE    0.0000 
      5 C5         -1.5917   -1.5391   -0.0028 C.ar      1 FLUORENE    0.0000 
      6 C6         -2.9625   -1.2566    0.0016 C.ar      1 FLUORENE    0.0000 
      7 C7         -3.4195    0.0679    0.0051 C.ar      1 FLUORENE    0.0000 
      8 C8         -2.5138    1.1350    0.0025 C.ar      1 FLUORENE    0.0000 
      9 C9          0.0002    1.8635   -0.0062 C.3       1 FLUORENE    0.0000 
     10 C10         1.1473    0.8508   -0.0024 C.ar      1 FLUORENE    0.0000 
     11 C11         0.6964   -0.4670   -0.0031 C.ar      1 FLUORENE    0.0000 
     12 C12        -0.6966   -0.4670   -0.0029 C.ar      1 FLUORENE    0.0000 
     13 C13        -1.1471    0.8509   -0.0021 C.ar      1 FLUORENE    0.0000 
     14 H1          2.8621    2.1623    0.0034 H.spc     1 FLUORENE    0.0000 
     15 H2          4.4862    0.2688    0.0103 H.spc     1 FLUORENE    0.0000 
     16 H3          3.6782   -2.0730    0.0033 H.spc     1 FLUORENE    0.0000 
     17 H4          1.2389   -2.5647   -0.0060 H.spc     1 FLUORENE    0.0000 
     18 H5         -1.2395   -2.5648   -0.0057 H.spc     1 FLUORENE    0.0000 
     19 H6         -3.6788   -2.0726    0.0026 H.spc     1 FLUORENE    0.0000 
     20 H7         -4.4862    0.2694    0.0101 H.spc     1 FLUORENE    0.0000 
     21 H8         -2.8616    2.1626    0.0044 H.spc     1 FLUORENE    0.0000 
     22 H9          0.0004    2.4794   -0.9179 H.spc     1 FLUORENE    0.0000 
     23 H10         0.0006    2.4881    0.8996 H.spc     1 FLUORENE    0.0000 
@<TRIPOS>BOND
     1    1    2 ar   
     2   10    1 ar   
     3    2    3 ar   
     4    3    4 ar   
     5    4   11 ar   
     6    6    5 ar   
     7    5   12 ar   
     8    7    6 ar   
     9    8    7 ar   
    10   13    8 ar   
    11    9   10 1    
    12    9   13 1    
    13   10   11 ar   
    14   11   12 ar   
    15   12   13 ar   
    16    1   14 1    
    17    2   15 1    
    18    3   16 1    
    19    4   17 1    
    20    5   18 1    
    21    6   19 1    
    22    7   20 1    
    23    8   21 1    
    24    9   22 1    
    25    9   23 1    
@<TRIPOS>SUBSTRUCTURE
     1 FLUORENE     1 PERM              0 ****  ****    0 ROOT 
@<TRIPOS>NORMAL
@<TRIPOS>FF_PBC
FORCE_FIELD_SETUP_FEATURE Force Field Setup information
v1.0  0 0.000000 0.000000 0.000000 0.000000 0.000000 0.000000 NONE 2 0 0 0 0 0 0 0 0 0 0 0 0
