# Name:          seed_class_4_158_590/38664
# Creation time: Fri May 21 00:57:15 2010


@<TRIPOS>MOLECULE
seed_class_4_158_590/38664
   16    16     1     1     1
SMALL
USER_CHARGES


@<TRIPOS>ATOM
      1 H          -0.5255    0.2655   -1.2225 H.spc      1 <1>        0.000
      2 N          -1.8700    0.1423   -1.0591 N.pl3      1 <1>        0.000
      3 C          -2.4626   -0.4210   -2.2807 C.3        1 <1>        0.000
      4 C          -3.9957   -0.4916   -2.1647 C.3        1 <1>        0.000
      5 N          -4.5759    0.8194   -1.8397 N.3        1 <1>        0.000
      6 C          -3.9801    1.3811   -0.6189 C.3        1 <1>        0.000
      7 C          -2.4459    1.4542   -0.7302 C.3        1 <1>        0.000
      8 H          -6.0277    0.6791   -1.6567 H.spc      1 <1>        0.000
      9 H          -2.0751   -1.4294   -2.4257 H.spc      1 <1>        0.000
     10 H          -2.2038    0.2197   -3.1237 H.spc      1 <1>        0.000
     11 H          -4.2484   -1.1874   -1.3647 H.spc      1 <1>        0.000
     12 H          -4.3985   -0.8178   -3.1236 H.spc      1 <1>        0.000
     13 H          -4.2375    0.7369    0.2219 H.spc      1 <1>        0.000
     14 H          -4.3668    2.3901   -0.4756 H.spc      1 <1>        0.000
     15 H          -2.0438    1.7784    0.2297 H.spc      1 <1>        0.000
     16 H          -2.1891    2.1545   -1.5250 H.spc      1 <1>        0.000
@<TRIPOS>BOND
     1    1    2 1  
     2    2    3 1  
     3    3    4 1  
     4    4    5 1  
     5    5    6 1  
     6    6    7 1  
     7    7    2 1  
     8    5    8 1  
     9    3    9 1  
    10    3   10 1  
    11    4   11 1  
    12    4   12 1  
    13    6   13 1  
    14    6   14 1  
    15    7   15 1  
    16    7   16 1  
