# Name:          seed_class_5_415_81/34898
# Creation time: Fri May 21 00:57:18 2010


@<TRIPOS>MOLECULE
seed_class_5_415_81/34898
   16    16     1     1     1
SMALL
USER_CHARGES


@<TRIPOS>ATOM
      1 H           0.3249    1.4871   -1.3743 H.spc      1 <1>        0.000
      2 C          -0.9127    0.9294   -2.0357 C.ar       1 <1>        0.000
      3 C          -0.9897   -0.4352   -2.3389 C.ar       1 <1>        0.000
      4 C          -2.1371   -0.9523   -2.9522 C.ar       1 <1>        0.000
      5 C          -3.2075   -0.1048   -3.2621 C.ar       1 <1>        0.000
      6 C          -3.1304    1.2597   -2.9589 C.ar       1 <1>        0.000
      7 C          -1.9830    1.7769   -2.3457 C.ar       1 <1>        0.000
      8 C          -4.4205   -0.6515   -3.9104 C.2        1 <1>        0.000
      9 O          -4.5016   -1.8462   -4.1438 O.2        1 <1>        0.000
     10 O          -5.4145    0.1536   -4.2360 O.3        1 <1>        0.000
     11 O          -2.2125   -2.2877   -3.2489 O.3        1 <1>        0.000
     12 H          -1.0961   -3.1147   -2.9105 H.spc      1 <1>        0.000
     13 H          -0.1564   -1.0950   -2.0975 H.spc      1 <1>        0.000
     14 H          -3.9638    1.9195   -3.2003 H.spc      1 <1>        0.000
     15 H          -1.9230    2.8393   -2.1097 H.spc      1 <1>        0.000
     16 H          -5.1914    1.0531   -3.9856 H.spc      1 <1>        0.000
@<TRIPOS>BOND
     1    1    2 1  
     2    2    3 ar 
     3    3    4 ar 
     4    4    5 ar 
     5    5    6 ar 
     6    6    7 ar 
     7    7    2 ar 
     8    5    8 1  
     9    8    9 2  
    10    8   10 1  
    11    4   11 1  
    12   11   12 1  
    13    3   13 1  
    14    6   14 1  
    15    7   15 1  
    16   10   16 1  
