# Name:          seed_class_2_55_68/95646
# Creation time: Fri May 21 00:57:14 2010


@<TRIPOS>MOLECULE
seed_class_2_55_68/95646
   17    18     1     1     1
SMALL
USER_CHARGES


@<TRIPOS>ATOM
      1 H           0.9664    0.4636   -0.9499 H.spc      1 <1>        0.000
      2 C           2.3114    0.7235   -0.3896 C.ar       1 <1>        0.000
      3 N           2.4846    1.7209    0.4883 N.ar       1 <1>        0.000
      4 C           3.6830    1.9939    1.0221 C.ar       1 <1>        0.000
      5 C           4.8078    1.2359    0.6755 C.ar       1 <1>        0.000
      6 C           4.6573    0.1870   -0.2395 C.ar       1 <1>        0.000
      7 C           3.3930   -0.0747   -0.7808 C.ar       1 <1>        0.000
      8 C           3.2266   -1.1202   -1.6970 C.ar       1 <1>        0.000
      9 C           4.3245   -1.9038   -2.0718 C.ar       1 <1>        0.000
     10 C           5.5888   -1.6420   -1.5305 C.ar       1 <1>        0.000
     11 C           5.7552   -0.5966   -0.6143 C.ar       1 <1>        0.000
     12 H           3.7830    2.8141    1.7330 H.spc      1 <1>        0.000
     13 H           5.7825    1.4582    1.1099 H.spc      1 <1>        0.000
     14 H           2.2423   -1.3240   -2.1185 H.spc      1 <1>        0.000
     15 H           4.1950   -2.7178   -2.7851 H.spc      1 <1>        0.000
     16 H           6.4436   -2.2521   -1.8224 H.spc      1 <1>        0.000
     17 H           6.7395   -0.3928   -0.1928 H.spc      1 <1>        0.000
@<TRIPOS>BOND
     1    1    2 1  
     2    2    3 ar 
     3    3    4 ar 
     4    4    5 ar 
     5    5    6 ar 
     6    6    7 ar 
     7    7    2 ar 
     8    7    8 ar 
     9    8    9 ar 
    10    9   10 ar 
    11   10   11 ar 
    12   11    6 ar 
    13    4   12 1  
    14    5   13 1  
    15    8   14 1  
    16    9   15 1  
    17   10   16 1  
    18   11   17 1  
