# Name:          seed_class_3_149_20/26467
# Creation time: Fri May 21 00:57:15 2010


@<TRIPOS>MOLECULE
seed_class_3_149_20/26467
    7     6     1     1     1
SMALL
USER_CHARGES


@<TRIPOS>ATOM
      1 H           2.0452    1.8675   -0.0341 H.spc      1 <1>        0.000
      2 N           0.9135    1.0208   -0.1013 N.pl3      1 <1>        0.000
      3 N          -0.3493    1.4520    0.4662 N.2        1 <1>        0.000
      4 C          -1.4335    0.6991    0.4627 C.2        1 <1>        0.000
      5 H          -2.6885    1.2063    1.0611 H.spc      1 <1>        0.000
      6 H          -1.3941   -0.6522   -0.1395 H.spc      1 <1>        0.000
      7 H           0.9860    0.1071   -0.5489 H.spc      1 <1>        0.000
@<TRIPOS>BOND
     1    1    2 1  
     2    2    3 1  
     3    3    4 2  
     4    4    5 1  
     5    4    6 1  
     6    2    7 1  
