# Name:          seed_class_4_163_362/38664
# Creation time: Fri May 21 00:57:15 2010


@<TRIPOS>MOLECULE
seed_class_4_163_362/38664
   16    16     1     1     1
SMALL
USER_CHARGES


@<TRIPOS>ATOM
      1 H           1.9184   -3.7705   -2.5087 H.spc      1 <1>        0.000
      2 N           1.0784   -3.0076   -1.5741 N.3        1 <1>        0.000
      3 C           0.5450   -3.9116   -0.5450 C.3        1 <1>        0.000
      4 C          -0.4118   -3.1631    0.4001 C.3        1 <1>        0.000
      5 N          -1.4908   -2.4929   -0.3398 N.3        1 <1>        0.000
      6 C          -0.9545   -1.5912   -1.3695 C.3        1 <1>        0.000
      7 C           0.0033   -2.3357   -2.3181 C.3        1 <1>        0.000
      8 H          -2.3229   -1.7257    0.5982 H.spc      1 <1>        0.000
      9 H           1.3759   -4.3078    0.0387 H.spc      1 <1>        0.000
     10 H          -0.0039   -4.7159   -1.0349 H.spc      1 <1>        0.000
     11 H           0.1586   -2.4056    0.9377 H.spc      1 <1>        0.000
     12 H          -0.8597   -3.8874    1.0804 H.spc      1 <1>        0.000
     13 H          -0.4034   -0.7899   -0.8773 H.spc      1 <1>        0.000
     14 H          -1.7859   -1.1969   -1.9538 H.spc      1 <1>        0.000
     15 H           0.4523   -1.6104   -2.9966 H.spc      1 <1>        0.000
     16 H          -0.5650   -3.0898   -2.8627 H.spc      1 <1>        0.000
@<TRIPOS>BOND
     1    1    2 1  
     2    2    3 1  
     3    3    4 1  
     4    4    5 1  
     5    5    6 1  
     6    6    7 1  
     7    7    2 1  
     8    5    8 1  
     9    3    9 1  
    10    3   10 1  
    11    4   11 1  
    12    4   12 1  
    13    6   13 1  
    14    6   14 1  
    15    7   15 1  
    16    7   16 1  
