# Name:          seed_class_5_448_44/34898
# Creation time: Fri May 21 00:57:19 2010


@<TRIPOS>MOLECULE
seed_class_5_448_44/34898
   18    19     1     1     1
SMALL
USER_CHARGES


@<TRIPOS>ATOM
      1 H          -3.1907   -1.6713    0.6023 H.spc      1 <1>        0.000
      2 C          -3.5319   -0.3600   -0.0642 C.ar       1 <1>        0.000
      3 C          -4.8457   -0.1047   -0.4751 C.ar       1 <1>        0.000
      4 C          -5.1620    1.1111   -1.0931 C.ar       1 <1>        0.000
      5 C          -4.1646    2.0715   -1.3000 C.ar       1 <1>        0.000
      6 C          -2.8509    1.8161   -0.8891 C.ar       1 <1>        0.000
      7 C          -2.5345    0.6004   -0.2712 C.ar       1 <1>        0.000
      8 C          -1.8157    2.8484   -1.1199 C.2        1 <1>        0.000
      9 C          -2.1367    4.0064   -1.7129 C.2        1 <1>        0.000
     10 C          -3.5321    4.2547   -2.1390 C.2        1 <1>        0.000
     11 O          -4.4976    3.2755   -1.9164 O.3        1 <1>        0.000
     12 O          -3.8337    5.3060   -2.6797 O.2        1 <1>        0.000
     13 O          -5.8217   -1.0445   -0.2726 O.3        1 <1>        0.000
     14 H          -7.1404   -0.7552   -0.7441 H.spc      1 <1>        0.000
     15 H          -6.1848    1.3099   -1.4132 H.spc      1 <1>        0.000
     16 H          -1.5116    0.4016    0.0487 H.spc      1 <1>        0.000
     17 H          -0.7879    2.6659   -0.8062 H.spc      1 <1>        0.000
     18 H          -1.3714    4.7641   -1.8811 H.spc      1 <1>        0.000
@<TRIPOS>BOND
     1    1    2 1  
     2    2    3 ar 
     3    3    4 ar 
     4    4    5 ar 
     5    5    6 ar 
     6    6    7 ar 
     7    7    2 ar 
     8    6    8 1  
     9    8    9 2  
    10    9   10 1  
    11   10   11 1  
    12   11    5 1  
    13   10   12 2  
    14    3   13 1  
    15   13   14 1  
    16    4   15 1  
    17    7   16 1  
    18    8   17 1  
    19    9   18 1  
