# Name:          seed_class_5_477_35/34898
# Creation time: Fri May 21 00:57:19 2010


@<TRIPOS>MOLECULE
seed_class_5_477_35/34898
   13    13     1     1     1
SMALL
USER_CHARGES


@<TRIPOS>ATOM
      1 N           0.4259    0.8195   -0.2215 N.pl3      1 <1>        0.000
      2 C           0.6999    0.1029    0.9014 C.2        1 <1>        0.000
      3 C           1.9108    0.1193    1.4750 C.2        1 <1>        0.000
      4 C           2.9840    0.9404    0.8713 C.2        1 <1>        0.000
      5 C           2.6222    1.6961   -0.3488 C.2        1 <1>        0.000
      6 C           1.3721    1.5915   -0.8200 C.2        1 <1>        0.000
      7 O           4.1132    0.9919    1.3562 O.2        1 <1>        0.000
      8 O           2.1524   -0.6148    2.6062 O.3        1 <1>        0.000
      9 H          -0.3926   -0.7359    1.5202 H.spc      1 <1>        0.000
     10 H          -0.9235    0.7583   -0.8014 H.spc      1 <1>        0.000
     11 H           3.3566    2.3241   -0.8531 H.spc      1 <1>        0.000
     12 H           1.1030    2.1471   -1.7184 H.spc      1 <1>        0.000
     13 H           3.0637   -0.4880    2.8800 H.spc      1 <1>        0.000
@<TRIPOS>BOND
     1    1    2 1  
     2    2    3 2  
     3    3    4 1  
     4    4    5 1  
     5    5    6 2  
     6    6    1 1  
     7    4    7 2  
     8    3    8 1  
     9    2    9 1  
    10    1   10 1  
    11    5   11 1  
    12    6   12 1  
    13    8   13 1  
