#	Name:			1H-1,2,4-triazole
#	Creating user name:	becker
#	Creation time:		Thu Dec 19 02:54:37 2002

#	Modifying user name:	zmliu
#	Modification time:	Thu Mar 11 17:14:35 2004

@<TRIPOS>MOLECULE
1H-1,2,4-triazole
    8     8     1     1     0
SMALL
GAST_HUCK


@<TRIPOS>ATOM
      1 N1          0.7443    0.6757    0.0000 N.pl3     1 TRIAZOLE   -0.0010 
      2 N2         -0.5771    1.0087    0.0000 N.2       1 TRIAZOLE   -0.1443 
      3 C1         -1.3499   -0.0138    0.0000 C.2       1 TRIAZOLE    0.1305 
      4 N3         -0.3882   -1.0821    0.0000 N.2       1 TRIAZOLE   -0.2595 
      5 C2          0.7791   -0.6206    0.0000 C.2       1 TRIAZOLE    0.2743 
      6 H1          1.5469    1.3222    0.0000 H.spc     1 TRIAZOLE   -1.0000 
      7 H2         -2.4378   -0.0605    0.0000 H.spc     1 TRIAZOLE   -1.0000 
      8 H3          1.6827   -1.2295    0.0000 H.spc     1 TRIAZOLE   -1.0000 
@<TRIPOS>BOND
     1    1    2 1    
     2    1    5 1    
     3    2    3 2    
     4    3    4 1    
     5    4    5 2    
     6    1    6 1    
     7    3    7 1    
     8    5    8 1    
@<TRIPOS>SUBSTRUCTURE
     1 TRIAZOLE     1 PERM              0 ****  ****    0 ROOT 
@<TRIPOS>NORMAL
@<TRIPOS>FF_PBC
FORCE_FIELD_SETUP_FEATURE Force Field Setup information
v1.0  0 0.000000 0.000000 0.000000 0.000000 0.000000 0.000000 NONE 2 0 0 0 0 0 0 0 0 0 0 0 0
