# Name:          seed_class_5_405_94/34898
# Creation time: Fri May 21 00:57:18 2010


@<TRIPOS>MOLECULE
seed_class_5_405_94/34898
   16    16     1     1     1
SMALL
USER_CHARGES


@<TRIPOS>ATOM
      1 H           1.1041    1.2698   -0.5295 H.spc      1 <1>        0.000
      2 C          -0.1493    0.7593    0.1402 C.2        1 <1>        0.000
      3 C          -0.8197   -0.2724   -0.3904 C.2        1 <1>        0.000
      4 C          -2.0482   -0.7728    0.2660 C.ar       1 <1>        0.000
      5 C          -3.0319    0.1284    0.6903 C.ar       1 <1>        0.000
      6 C          -4.1940   -0.3449    1.3112 C.ar       1 <1>        0.000
      7 C          -4.3723   -1.7195    1.5078 C.ar       1 <1>        0.000
      8 C          -3.3886   -2.6208    1.0836 C.ar       1 <1>        0.000
      9 C          -2.2265   -2.1474    0.4626 C.ar       1 <1>        0.000
     10 H          -0.5087    1.2301    1.0552 H.spc      1 <1>        0.000
     11 H          -0.4603   -0.7431   -1.3055 H.spc      1 <1>        0.000
     12 H          -2.8930    1.1986    0.5372 H.spc      1 <1>        0.000
     13 H          -4.9599    0.3568    1.6415 H.spc      1 <1>        0.000
     14 H          -5.2771   -2.0880    1.9912 H.spc      1 <1>        0.000
     15 H          -3.5274   -3.6910    1.2368 H.spc      1 <1>        0.000
     16 H          -1.4606   -2.8491    0.1322 H.spc      1 <1>        0.000
@<TRIPOS>BOND
     1    1    2 1  
     2    2    3 2  
     3    3    4 1  
     4    4    5 ar 
     5    5    6 ar 
     6    6    7 ar 
     7    7    8 ar 
     8    8    9 ar 
     9    9    4 ar 
    10    2   10 1  
    11    3   11 1  
    12    5   12 1  
    13    6   13 1  
    14    7   14 1  
    15    8   15 1  
    16    9   16 1  
