#	Name:			thioxanthene
#	Creating user name:	becker
#	Creation time:		Thu Dec 19 02:55:06 2002

#	Modifying user name:	zmliu
#	Modification time:	Thu Mar 11 21:40:26 2004

@<TRIPOS>MOLECULE
thioxanthene
   24    26     1     1     0
SMALL
GAST_HUCK


@<TRIPOS>ATOM
      1 C1          2.3209    1.2343    0.1637 C.ar      1 THIOXANTHENE    0.0019 
      2 C2          3.4494    0.5521    0.6281 C.ar      1 THIOXANTHENE    0.0211 
      3 C3          3.5205   -0.8392    0.5190 C.ar      1 THIOXANTHENE    0.0245 
      4 C4          2.4616   -1.5464   -0.0564 C.ar      1 THIOXANTHENE    0.0360 
      5 C5          1.3327   -0.8634   -0.5181 C.ar      1 THIOXANTHENE    0.0626 
      6 C6          1.2551    0.5291   -0.4076 C.ar      1 THIOXANTHENE   -0.0768 
      7 S1         -0.0003   -1.7666   -1.2600 S.3       1 THIOXANTHENE    0.0085 
      8 C7         -1.3331   -0.8634   -0.5179 C.ar      1 THIOXANTHENE    0.0626 
      9 C8         -1.2547    0.5292   -0.4072 C.ar      1 THIOXANTHENE   -0.0768 
     10 C9          0.0002    1.2519   -0.9137 C.3       1 THIOXANTHENE   -0.1471 
     11 C10        -2.4622   -1.5461   -0.0566 C.ar      1 THIOXANTHENE    0.0360 
     12 C11        -3.5212   -0.8386    0.5185 C.ar      1 THIOXANTHENE    0.0245 
     13 C12        -3.4493    0.5527    0.6280 C.ar      1 THIOXANTHENE    0.0211 
     14 C13        -2.3201    1.2344    0.1649 C.ar      1 THIOXANTHENE    0.0019 
     15 H1          2.2805    2.3153    0.2505 H.spc     1 THIOXANTHENE   -1.0000 
     16 H2          4.2716    1.1033    1.0741 H.spc     1 THIOXANTHENE   -1.0000 
     17 H3          4.3964   -1.3694    0.8800 H.spc     1 THIOXANTHENE   -1.0000 
     18 H4          2.5160   -2.6266   -0.1448 H.spc     1 THIOXANTHENE   -1.0000 
     19 H5          0.0003    1.2290   -2.0140 H.spc     1 THIOXANTHENE   -1.0000 
     20 H6          0.0003    2.3043   -0.5911 H.spc     1 THIOXANTHENE   -1.0000 
     21 H7         -2.5167   -2.6265   -0.1447 H.spc     1 THIOXANTHENE   -1.0000 
     22 H8         -4.3974   -1.3686    0.8789 H.spc     1 THIOXANTHENE   -1.0000 
     23 H9         -4.2717    1.1041    1.0733 H.spc     1 THIOXANTHENE   -1.0000 
     24 H10        -2.2787    2.3152    0.2530 H.spc     1 THIOXANTHENE   -1.0000 
@<TRIPOS>BOND
     1    1    2 ar   
     2    1    6 ar   
     3    2    3 ar   
     4    3    4 ar   
     5    4    5 ar   
     6    5    6 ar   
     7    5    7 1    
     8    6   10 1    
     9    7    8 1    
    10    8    9 ar   
    11    8   11 ar   
    12    9   10 1    
    13    9   14 ar   
    14   11   12 ar   
    15   12   13 ar   
    16   13   14 ar   
    17    1   15 1    
    18    2   16 1    
    19    3   17 1    
    20    4   18 1    
    21   10   19 1    
    22   10   20 1    
    23   11   21 1    
    24   12   22 1    
    25   13   23 1    
    26   14   24 1    
@<TRIPOS>SUBSTRUCTURE
     1 THIOXANTHENE     1 PERM              0 ****  ****    0 ROOT 
@<TRIPOS>NORMAL
@<TRIPOS>FF_PBC
FORCE_FIELD_SETUP_FEATURE Force Field Setup information
v1.0  0 0.000000 0.000000 0.000000 0.000000 0.000000 0.000000 NONE 2 0 0 0 0 0 0 0 0 0 0 0 0
