# Name:          seed_class_4_363_20/38664
# Creation time: Fri May 21 00:57:18 2010


@<TRIPOS>MOLECULE
seed_class_4_363_20/38664
   26    29     1     1     1
SMALL
USER_CHARGES


@<TRIPOS>ATOM
      1 H           2.7013   -0.2407   -2.1012 H.spc      1 <1>        0.000
      2 C           3.8462    0.5035   -2.6721 C.2        1 <1>        0.000
      3 O           3.7682    0.9780   -3.8042 O.2        1 <1>        0.000
      4 N           4.9592    0.6592   -1.9609 N.am       1 <1>        0.000
      5 C           5.3387   -0.1712   -0.8088 C.3        1 <1>        0.000
      6 C           6.4732    0.5966   -0.1053 C.3        1 <1>        0.000
      7 C           7.0140    1.4686   -1.1857 C.3        1 <1>        0.000
      8 C           7.7999    0.2945   -0.7125 C.3        1 <1>        0.000
      9 C           7.4651    2.7146   -0.4618 C.ar       1 <1>        0.000
     10 C           6.8921    3.8985   -0.7184 C.ar       1 <1>        0.000
     11 N           7.4735    4.8517    0.0582 N.pl3      1 <1>        0.000
     12 C           8.4378    4.2846    0.8315 C.ar       1 <1>        0.000
     13 C           8.4943    2.9715    0.5702 C.ar       1 <1>        0.000
     14 H           9.4204    1.9592    1.2008 H.spc      1 <1>        0.000
     15 C           5.8047    4.0171   -1.7153 C.2        1 <1>        0.000
     16 C           5.3499    2.8060   -2.4342 C.2        1 <1>        0.000
     17 C           5.9034    1.6085   -2.1993 C.2        1 <1>        0.000
     18 O           5.2854    5.1085   -1.9434 O.2        1 <1>        0.000
     19 H           5.6618   -1.1643   -1.1210 H.spc      1 <1>        0.000
     20 H           4.4940   -0.3373   -0.1403 H.spc      1 <1>        0.000
     21 H           6.1371    0.6721    0.9288 H.spc      1 <1>        0.000
     22 H           8.8152    0.0678   -0.3873 H.spc      1 <1>        0.000
     23 H           8.3300   -0.5587   -1.1358 H.spc      1 <1>        0.000
     24 H           7.2244    5.8408    0.0603 H.spc      1 <1>        0.000
     25 H           9.0647    4.8137    1.5493 H.spc      1 <1>        0.000
     26 H           4.5492    2.8898   -3.1690 H.spc      1 <1>        0.000
@<TRIPOS>BOND
     1    1    2 1  
     2    2    3 2  
     3    2    4 am 
     4    4    5 1  
     5    5    6 1  
     6    6    7 1  
     7    7    8 1  
     8    8    6 1  
     9    7    9 1  
    10    9   10 ar 
    11   10   11 ar 
    12   11   12 ar 
    13   12   13 ar 
    14   13    9 ar 
    15   13   14 1  
    16   10   15 1  
    17   15   16 1  
    18   16   17 2  
    19   17    4 1  
    20   17    7 1  
    21   15   18 2  
    22    5   19 1  
    23    5   20 1  
    24    6   21 1  
    25    8   22 1  
    26    8   23 1  
    27   11   24 1  
    28   12   25 1  
    29   16   26 1  
