# Name:          seed_class_4_234_60/38664
# Creation time: Fri May 21 00:57:16 2010


@<TRIPOS>MOLECULE
seed_class_4_234_60/38664
   23    25     1     1     1
SMALL
USER_CHARGES


@<TRIPOS>ATOM
      1 O           0.4262   -1.0087   -0.9622 O.3        1 <1>        0.000
      2 C          -0.9252   -0.7630   -0.7305 C.ar       1 <1>        0.000
      3 C          -1.3459    0.2043    0.1900 C.ar       1 <1>        0.000
      4 C          -2.7126    0.4251    0.3980 C.ar       1 <1>        0.000
      5 C          -3.6587   -0.3213   -0.3146 C.ar       1 <1>        0.000
      6 C          -3.2380   -1.2886   -1.2352 C.ar       1 <1>        0.000
      7 C          -1.8713   -1.5094   -1.4431 C.ar       1 <1>        0.000
      8 H          -4.9962   -0.1052   -0.1111 H.spc      1 <1>        0.000
      9 C          -0.3297    0.9825    0.9330 C.2        1 <1>        0.000
     10 C           1.0917    0.6829    0.6501 C.ar       1 <1>        0.000
     11 C           1.4202   -0.3029   -0.2882 C.ar       1 <1>        0.000
     12 C           2.7630   -0.5908   -0.5602 C.ar       1 <1>        0.000
     13 C           3.7774    0.1070    0.1063 C.ar       1 <1>        0.000
     14 C           3.4489    1.0927    1.0446 C.ar       1 <1>        0.000
     15 C           2.1061    1.3807    1.3165 C.ar       1 <1>        0.000
     16 H           4.5213    1.8304    1.7490 H.spc      1 <1>        0.000
     17 O          -0.6529    1.8422    1.7512 O.2        1 <1>        0.000
     18 H          -3.0401    1.1781    1.1148 H.spc      1 <1>        0.000
     19 H          -3.9746   -1.8697   -1.7900 H.spc      1 <1>        0.000
     20 H          -1.5438   -2.2625   -2.1598 H.spc      1 <1>        0.000
     21 H           3.0187   -1.3582   -1.2908 H.spc      1 <1>        0.000
     22 H           4.8229   -0.1172   -0.1053 H.spc      1 <1>        0.000
     23 H           1.8504    2.1482    2.0470 H.spc      1 <1>        0.000
@<TRIPOS>BOND
     1    1    2 1  
     2    2    3 ar 
     3    3    4 ar 
     4    4    5 ar 
     5    5    6 ar 
     6    6    7 ar 
     7    7    2 ar 
     8    5    8 1  
     9    3    9 1  
    10    9   10 1  
    11   10   11 ar 
    12   11    1 1  
    13   11   12 ar 
    14   12   13 ar 
    15   13   14 ar 
    16   14   15 ar 
    17   15   10 ar 
    18   14   16 1  
    19    9   17 2  
    20    4   18 1  
    21    6   19 1  
    22    7   20 1  
    23   12   21 1  
    24   13   22 1  
    25   15   23 1  
