# Name:          seed_class_5_434_55/34898
# Creation time: Fri May 21 00:57:18 2010


@<TRIPOS>MOLECULE
seed_class_5_434_55/34898
   12    12     1     1     1
SMALL
USER_CHARGES


@<TRIPOS>ATOM
      1 H           0.4461    1.2565    0.3002 H.spc      1 <1>        0.000
      2 O          -0.2726    0.0248    0.4054 O.3        1 <1>        0.000
      3 C          -1.6251    0.0488    0.1885 C.ar       1 <1>        0.000
      4 C          -2.5073    0.3353    1.2372 C.ar       1 <1>        0.000
      5 N          -3.8304    0.3591    1.0266 N.ar       1 <1>        0.000
      6 C          -4.3567    0.1129   -0.1808 C.ar       1 <1>        0.000
      7 C          -3.5315   -0.1804   -1.2731 C.ar       1 <1>        0.000
      8 C          -2.1446   -0.2128   -1.0850 C.ar       1 <1>        0.000
      9 H          -2.1147    0.5407    2.2331 H.spc      1 <1>        0.000
     10 H          -5.4382    0.1413   -0.3139 H.spc      1 <1>        0.000
     11 H          -3.9620   -0.3803   -2.2543 H.spc      1 <1>        0.000
     12 H          -1.4788   -0.4384   -1.9180 H.spc      1 <1>        0.000
@<TRIPOS>BOND
     1    1    2 1  
     2    2    3 1  
     3    3    4 ar 
     4    4    5 ar 
     5    5    6 ar 
     6    6    7 ar 
     7    7    8 ar 
     8    8    3 ar 
     9    4    9 1  
    10    6   10 1  
    11    7   11 1  
    12    8   12 1  
