# Name:          seed_class_5_404_111/34898
# Creation time: Fri May 21 00:57:18 2010


@<TRIPOS>MOLECULE
seed_class_5_404_111/34898
   18    18     1     1     1
SMALL
USER_CHARGES


@<TRIPOS>ATOM
      1 S          -6.2747   -0.7311    3.8531 S.3        1 <1>        0.000
      2 C          -6.4088    0.1352    2.3154 C.ar       1 <1>        0.000
      3 N          -5.2789   -0.1154    1.6804 N.ar       1 <1>        0.000
      4 C          -4.3385   -0.9306    2.3215 C.ar       1 <1>        0.000
      5 C          -4.6642   -1.3933    3.5361 C.ar       1 <1>        0.000
      6 C          -3.0441   -1.2657    1.6869 C.2        1 <1>        0.000
      7 N          -2.9636   -2.2824    0.8488 N.2        1 <1>        0.000
      8 O          -4.1026   -3.0435    0.5602 O.3        1 <1>        0.000
      9 C          -1.8400   -0.4611    1.9920 C.2        1 <1>        0.000
     10 O          -1.9198    0.4998    2.7557 O.2        1 <1>        0.000
     11 N          -0.6718   -0.7770    1.4404 N.am       1 <1>        0.000
     12 H           0.4766    0.1298    1.5810 H.spc      1 <1>        0.000
     13 N          -7.4504    0.8946    1.8819 N.pl3      1 <1>        0.000
     14 H          -4.0690   -2.0355    4.1853 H.spc      1 <1>        0.000
     15 H          -3.8730   -3.7379   -0.0616 H.spc      1 <1>        0.000
     16 H          -0.5727   -1.6485    0.9198 H.spc      1 <1>        0.000
     17 H          -7.4069    1.3461    0.9683 H.spc      1 <1>        0.000
     18 H          -8.2751    1.0127    2.4704 H.spc      1 <1>        0.000
@<TRIPOS>BOND
     1    1    2 ar 
     2    2    3 ar 
     3    3    4 ar 
     4    4    5 ar 
     5    5    1 ar 
     6    4    6 1  
     7    6    7 2  
     8    7    8 1  
     9    6    9 1  
    10    9   10 2  
    11    9   11 am 
    12   11   12 1  
    13    2   13 1  
    14    5   14 1  
    15    8   15 1  
    16   11   16 1  
    17   13   17 1  
    18   13   18 1  
