# Name:          seed_class_2_49_93/95646
# Creation time: Fri May 21 00:57:14 2010


@<TRIPOS>MOLECULE
seed_class_2_49_93/95646
   14    15     1     1     1
SMALL
USER_CHARGES


@<TRIPOS>ATOM
      1 H           3.0711   -2.1400   -1.0408 H.spc      1 <1>        0.000
      2 C           4.0973   -1.0324   -1.0401 C.ar       1 <1>        0.000
      3 N           4.8740   -0.8346   -2.1140 N.ar       1 <1>        0.000
      4 C           5.7872    0.1461   -2.1219 C.ar       1 <1>        0.000
      5 C           5.9320    0.9712   -1.0002 C.ar       1 <1>        0.000
      6 N           6.8481    1.9489   -1.0183 N.ar       1 <1>        0.000
      7 C           7.6243    2.1458   -2.0927 C.ar       1 <1>        0.000
      8 N           7.5100    1.3731   -3.1816 N.ar       1 <1>        0.000
      9 C           6.6136    0.3782   -3.2279 C.ar       1 <1>        0.000
     10 H           6.5042   -0.4228   -4.3733 H.spc      1 <1>        0.000
     11 H           8.5727    3.1782   -2.0774 H.spc      1 <1>        0.000
     12 N           5.1544    0.7720    0.0728 N.ar       1 <1>        0.000
     13 C           4.2407   -0.2081    0.0824 C.ar       1 <1>        0.000
     14 H           3.6124   -0.3628    0.9596 H.spc      1 <1>        0.000
@<TRIPOS>BOND
     1    1    2 1  
     2    2    3 ar 
     3    3    4 ar 
     4    4    5 ar 
     5    5    6 ar 
     6    6    7 ar 
     7    7    8 ar 
     8    8    9 ar 
     9    9    4 ar 
    10    9   10 1  
    11    7   11 1  
    12    5   12 ar 
    13   12   13 ar 
    14   13    2 ar 
    15   13   14 1  
