#	Name:			benzopyridazine
#	Creating user name:	becker
#	Creation time:		Thu Dec 19 02:54:41 2002

#	Modifying user name:	zmliu
#	Modification time:	Thu Mar 11 20:32:15 2004

@<TRIPOS>MOLECULE
benzopyridazine
   16    17     1     1     0
SMALL
GAST_HUCK


@<TRIPOS>ATOM
      1 N1          1.0862    1.8551    0.0023 N.ar      1 BENZOPYRIDAZINE   -0.2457 
      2 N2          2.3662    1.4836    0.0028 N.ar      1 BENZOPYRIDAZINE   -0.2162 
      3 C1          2.7224    0.1835    0.0000 C.ar      1 BENZOPYRIDAZINE    0.1401 
      4 C2          1.7314   -0.8015   -0.0015 C.ar      1 BENZOPYRIDAZINE    0.0912 
      5 C3         -0.6507   -1.3534    0.0009 C.ar      1 BENZOPYRIDAZINE    0.0285 
      6 C4         -1.9818   -0.9256    0.0011 C.ar      1 BENZOPYRIDAZINE    0.0220 
      7 C5         -2.2800    0.4403   -0.0012 C.ar      1 BENZOPYRIDAZINE    0.0217 
      8 C6         -1.2452    1.3799   -0.0005 C.ar      1 BENZOPYRIDAZINE    0.0285 
      9 C7          0.0849    0.9515    0.0006 C.ar      1 BENZOPYRIDAZINE    0.0718 
     10 C8          0.3873   -0.4145    0.0000 C.ar      1 BENZOPYRIDAZINE    0.0582 
     11 H1          3.7725   -0.0883   -0.0009 H.spc     1 BENZOPYRIDAZINE   -1.0000 
     12 H2          2.0103   -1.8506   -0.0038 H.spc     1 BENZOPYRIDAZINE   -1.0000 
     13 H3         -0.4310   -2.4167    0.0014 H.spc     1 BENZOPYRIDAZINE   -1.0000 
     14 H4         -2.7857   -1.6553    0.0031 H.spc     1 BENZOPYRIDAZINE   -1.0000 
     15 H5         -3.3140    0.7708   -0.0034 H.spc     1 BENZOPYRIDAZINE   -1.0000 
     16 H6         -1.4727    2.4411   -0.0011 H.spc     1 BENZOPYRIDAZINE   -1.0000 
@<TRIPOS>BOND
     1    2    1 ar   
     2    1    9 ar   
     3    3    2 ar   
     4    4    3 ar   
     5   10    4 ar   
     6    5    6 ar   
     7    5   10 ar   
     8    6    7 ar   
     9    7    8 ar   
    10    8    9 ar   
    11    9   10 ar   
    12    3   11 1    
    13    4   12 1    
    14    5   13 1    
    15    6   14 1    
    16    7   15 1    
    17    8   16 1    
@<TRIPOS>SUBSTRUCTURE
     1 BENZOPYRIDAZINE     5 PERM              0 ****  ****    0 ROOT 
@<TRIPOS>NORMAL
@<TRIPOS>FF_PBC
FORCE_FIELD_SETUP_FEATURE Force Field Setup information
v1.0  0 0.000000 0.000000 0.000000 0.000000 0.000000 0.000000 NONE 2 0 0 0 0 0 0 0 0 0 0 0 0
