# Name:          seed_class_5_578_20/34898
# Creation time: Fri May 21 00:57:20 2010


@<TRIPOS>MOLECULE
seed_class_5_578_20/34898
   23    23     1     1     1
SMALL
USER_CHARGES


@<TRIPOS>ATOM
      1 I          -4.7429    0.9182    1.9846 I          1 <1>        0.000
      2 C          -5.6303   -0.5066    0.7226 C.ar       1 <1>        0.000
      3 C          -4.8888   -1.6088    0.2808 C.ar       1 <1>        0.000
      4 C          -5.4804   -2.5587   -0.5605 C.ar       1 <1>        0.000
      5 C          -6.8136   -2.4063   -0.9599 C.ar       1 <1>        0.000
      6 C          -7.5551   -1.3041   -0.5180 C.ar       1 <1>        0.000
      7 C          -6.9635   -0.3542    0.3233 C.ar       1 <1>        0.000
      8 C          -7.7474    0.8110    0.7904 C.2        1 <1>        0.000
      9 O          -7.3016    1.9486    0.6491 O.2        1 <1>        0.000
     10 N          -8.9338    0.6279    1.3629 N.am       1 <1>        0.000
     11 H          -9.7667    1.7869    1.7150 H.spc      1 <1>        0.000
     12 I          -9.5548   -1.0756   -1.1171 I          1 <1>        0.000
     13 C          -7.4390   -3.4105   -1.8493 C.2        1 <1>        0.000
     14 O          -6.8148   -4.4049   -2.1805 O.2        1 <1>        0.000
     15 O          -8.6722   -3.2301   -2.2840 O.3        1 <1>        0.000
     16 I          -4.3681   -4.2120   -1.2234 I          1 <1>        0.000
     17 N          -3.5414   -1.7628    0.6844 N.am       1 <1>        0.000
     18 C          -2.5666   -1.1984   -0.0229 C.2        1 <1>        0.000
     19 O          -2.8365   -0.5425   -1.0278 O.2        1 <1>        0.000
     20 H          -1.1287   -1.3629    0.4078 H.spc      1 <1>        0.000
     21 H          -9.2658   -0.3167    1.5577 H.spc      1 <1>        0.000
     22 H          -9.0166   -2.4057   -1.9329 H.spc      1 <1>        0.000
     23 H          -3.3176   -2.3067    1.5178 H.spc      1 <1>        0.000
@<TRIPOS>BOND
     1    1    2 1  
     2    2    3 ar 
     3    3    4 ar 
     4    4    5 ar 
     5    5    6 ar 
     6    6    7 ar 
     7    7    2 ar 
     8    7    8 1  
     9    8    9 2  
    10    8   10 am 
    11   10   11 1  
    12    6   12 1  
    13    5   13 1  
    14   13   14 2  
    15   13   15 1  
    16    4   16 1  
    17    3   17 1  
    18   17   18 am 
    19   18   19 2  
    20   18   20 1  
    21   10   21 1  
    22   15   22 1  
    23   17   23 1  
