# Name:          seed_class_2_44_113/95646
# Creation time: Fri May 21 00:57:13 2010


@<TRIPOS>MOLECULE
seed_class_2_44_113/95646
    4     3     1     1     1
SMALL
USER_CHARGES


@<TRIPOS>ATOM
      1 N           2.0533    2.3742   -1.8226 N.2        1 <1>        0.000
      2 N           1.1209    3.0793   -2.2653 N.2        1 <1>        0.000
      3 H          -0.2094    2.9289   -1.8561 H.spc      1 <1>        0.000
      4 H           1.8603    1.3635   -0.8733 H.spc      1 <1>        0.000
@<TRIPOS>BOND
     1    1    2 2  
     2    2    3 1  
     3    1    4 1  
