#	Name:			1,2,4-trioxolane
#	Creating user name:	zmliu
#	Creation time:		Thu Mar 11 16:58:17 2004

#	Modifying user name:	zmliu
#	Modification time:	Thu Mar 11 16:58:22 2004

@<TRIPOS>MOLECULE
1,2,4-trioxolane
    9     9     1     1     1
SMALL
GAST_HUCK


@<TRIPOS>ATOM
      1 O1         -0.6556    1.1708   -0.3407 O.3       1 TRIOXOLANE   -0.1840 
      2 O2          0.6538    1.1688    0.3453 O.3       1 TRIOXOLANE   -0.1840 
      3 C1          1.1577   -0.1252    0.0054 C.3       1 TRIOXOLANE    0.3309 
      4 O3         -0.0007   -0.9721   -0.0169 O.3       1 TRIOXOLANE   -0.2938 
      5 C2         -1.1586   -0.1249   -0.0072 C.3       1 TRIOXOLANE    0.3309 
      6 H1          1.5698   -0.0818   -1.0147 H.spc     1 TRIOXOLANE   -1.0000 
      7 H2          1.9310   -0.4765    0.7042 H.spc     1 TRIOXOLANE   -1.0000 
      8 H3         -1.5524   -0.0920    1.0206 H.spc     1 TRIOXOLANE   -1.0000 
      9 H4         -1.9450   -0.4671   -0.6960 H.spc     1 TRIOXOLANE   -1.0000 
@<TRIPOS>BOND
     1    1    2 1    
     2    1    5 1    
     3    2    3 1    
     4    3    4 1    
     5    3    6 1    
     6    3    7 1    
     7    4    5 1    
     8    5    8 1    
     9    5    9 1    
@<TRIPOS>SUBSTRUCTURE
     1 TRIOXOLANE     1 PERM              0 ****  ****    0 ROOT 
@<TRIPOS>SET
LAB$A_TYPE      STATIC     ATOMS    LABELGROUP SYSTEM 
9 1 2 3 4 5 6 7 8 9
@<TRIPOS>NORMAL
@<TRIPOS>FF_PBC
FORCE_FIELD_SETUP_FEATURE Force Field Setup information
v1.0  0 0.000000 0.000000 0.000000 0.000000 0.000000 0.000000 NONE 2 0 0 0 0 0 0 0 0 0 0 0 0
