# Name:          seed_class_4_373_20/38664
# Creation time: Fri May 21 00:57:18 2010


@<TRIPOS>MOLECULE
seed_class_4_373_20/38664
   18    19     1     1     1
SMALL
USER_CHARGES


@<TRIPOS>ATOM
      1 H           5.1237    4.0146   -7.7089 H.spc      1 <1>        0.000
      2 C           5.3575    4.9438   -8.8237 C.3        1 <1>        0.000
      3 C           6.0408    4.3305  -10.0600 C.3        1 <1>        0.000
      4 N           4.7984    4.6254  -10.7883 N.am       1 <1>        0.000
      5 C           4.2435    3.7011  -11.6173 C.2        1 <1>        0.000
      6 C           4.7235    2.4750  -11.8664 C.2        1 <1>        0.000
      7 C           5.9988    2.0601  -11.1725 C.3        1 <1>        0.000
      8 C           6.2248    2.8160   -9.8499 C.3        1 <1>        0.000
      9 H           3.9121    1.4071  -12.9433 H.spc      1 <1>        0.000
     10 H           2.9927    4.0851  -12.3089 H.spc      1 <1>        0.000
     11 C           4.1780    5.1615   -9.7411 C.2        1 <1>        0.000
     12 O           3.0613    5.6513   -9.5801 O.2        1 <1>        0.000
     13 H           5.8058    5.7441   -8.2349 H.spc      1 <1>        0.000
     14 H           7.0149    4.6508  -10.4297 H.spc      1 <1>        0.000
     15 H           6.8323    2.2888  -11.8367 H.spc      1 <1>        0.000
     16 H           5.9260    0.9969  -10.9435 H.spc      1 <1>        0.000
     17 H           7.2400    2.6264   -9.5012 H.spc      1 <1>        0.000
     18 H           5.4998    2.4687   -9.1138 H.spc      1 <1>        0.000
@<TRIPOS>BOND
     1    1    2 1  
     2    2    3 1  
     3    3    4 1  
     4    4    5 1  
     5    5    6 2  
     6    6    7 1  
     7    7    8 1  
     8    8    3 1  
     9    6    9 1  
    10    5   10 1  
    11    4   11 am 
    12   11    2 1  
    13   11   12 2  
    14    2   13 1  
    15    3   14 1  
    16    7   15 1  
    17    7   16 1  
    18    8   17 1  
    19    8   18 1  
