# Name:          seed_class_3_132_30/26467
# Creation time: Fri May 21 00:57:15 2010


@<TRIPOS>MOLECULE
seed_class_3_132_30/26467
   18    17     1     1     1
SMALL
USER_CHARGES


@<TRIPOS>ATOM
      1 N          -5.9467   -3.9417   -0.7115 N.am       1 <1>        0.000
      2 H          -7.0210   -4.6314   -1.1802 H.spc      1 <1>        0.000
      3 C          -5.0964   -3.3760   -1.5635 C.2        1 <1>        0.000
      4 O          -4.9193   -3.8710   -2.6754 O.2        1 <1>        0.000
      5 C          -4.3632   -2.1509   -1.1735 C.2        1 <1>        0.000
      6 C          -3.4671   -1.6112   -2.0110 C.2        1 <1>        0.000
      7 C          -2.7340   -0.3861   -1.6211 C.2        1 <1>        0.000
      8 C          -1.7878    0.1138   -2.4276 C.2        1 <1>        0.000
      9 C          -1.0546    1.3389   -2.0376 C.2        1 <1>        0.000
     10 C          -0.0606    1.7991   -2.8095 C.2        1 <1>        0.000
     11 H           0.6874    3.0490   -2.4116 H.spc      1 <1>        0.000
     12 H          -5.7931   -3.8583    0.2934 H.spc      1 <1>        0.000
     13 H          -4.5521   -1.6877   -0.2051 H.spc      1 <1>        0.000
     14 H          -3.2781   -2.0745   -2.9794 H.spc      1 <1>        0.000
     15 H          -2.9637    0.1096   -0.6779 H.spc      1 <1>        0.000
     16 H          -1.5581   -0.3818   -3.3708 H.spc      1 <1>        0.000
     17 H          -1.3232    1.8668   -1.1225 H.spc      1 <1>        0.000
     18 H           0.2080    1.2712   -3.7245 H.spc      1 <1>        0.000
@<TRIPOS>BOND
     1    1    2 1  
     2    1    3 am 
     3    3    4 2  
     4    3    5 1  
     5    5    6 2  
     6    6    7 1  
     7    7    8 2  
     8    8    9 1  
     9    9   10 2  
    10   10   11 1  
    11    1   12 1  
    12    5   13 1  
    13    6   14 1  
    14    7   15 1  
    15    8   16 1  
    16    9   17 1  
    17   10   18 1  
