# Name:          seed_class_5_475_35/34898
# Creation time: Fri May 21 00:57:19 2010


@<TRIPOS>MOLECULE
seed_class_5_475_35/34898
   17    17     1     1     1
SMALL
USER_CHARGES


@<TRIPOS>ATOM
      1 S           5.4239    0.3095   -4.2944 S.o2       1 <1>        0.000
      2 O           5.8284   -1.0593   -4.3822 O.2        1 <1>        0.000
      3 O           4.2633    0.5164   -5.1038 O.2        1 <1>        0.000
      4 N           6.7210    1.3386   -4.8608 N.am       1 <1>        0.000
      5 C           5.0329    0.7224   -2.5445 C.ar       1 <1>        0.000
      6 C           5.9548    0.4278   -1.5329 C.ar       1 <1>        0.000
      7 C           5.6572    0.7420   -0.2015 C.ar       1 <1>        0.000
      8 C           4.4378    1.3508    0.1184 C.ar       1 <1>        0.000
      9 C           3.5159    1.6455   -0.8932 C.ar       1 <1>        0.000
     10 C           3.8134    1.3313   -2.2246 C.ar       1 <1>        0.000
     11 H           2.2007    2.3022   -0.5481 H.spc      1 <1>        0.000
     12 H           7.2700   -0.2289   -1.8779 H.spc      1 <1>        0.000
     13 H           7.5956    0.9254   -5.1845 H.spc      1 <1>        0.000
     14 H           6.6025    2.3517   -4.8672 H.spc      1 <1>        0.000
     15 H           6.3750    0.5126    0.5861 H.spc      1 <1>        0.000
     16 H           4.2061    1.5954    1.1550 H.spc      1 <1>        0.000
     17 H           3.0956    1.5607   -3.0122 H.spc      1 <1>        0.000
@<TRIPOS>BOND
     1    1    2 2  
     2    1    3 2  
     3    1    4 1  
     4    1    5 1  
     5    5    6 ar 
     6    6    7 ar 
     7    7    8 ar 
     8    8    9 ar 
     9    9   10 ar 
    10   10    5 ar 
    11    9   11 1  
    12    6   12 1  
    13    4   13 1  
    14    4   14 1  
    15    7   15 1  
    16    8   16 1  
    17   10   17 1  
