# Name:          seed_class_4_265_41/38664
# Creation time: Fri May 21 00:57:16 2010


@<TRIPOS>MOLECULE
seed_class_4_265_41/38664
   24    26     1     1     1
SMALL
USER_CHARGES


@<TRIPOS>ATOM
      1 H           7.8892    2.0442   -1.6775 H.spc      1 <1>        0.000
      2 C           6.1672    2.1409   -1.4475 C.ar       1 <1>        0.000
      3 C           5.3092    1.3892   -2.2592 C.ar       1 <1>        0.000
      4 C           3.9237    1.4670   -2.0741 C.ar       1 <1>        0.000
      5 C           3.3961    2.2965   -1.0773 C.ar       1 <1>        0.000
      6 C           4.2541    3.0482   -0.2656 C.ar       1 <1>        0.000
      7 C           5.6396    2.9704   -0.4507 C.ar       1 <1>        0.000
      8 N           1.9953    2.3728   -0.8928 N.pl3      1 <1>        0.000
      9 C           1.1634    1.6419   -1.6823 C.2        1 <1>        0.000
     10 C          -0.1637    1.7116   -1.5106 C.2        1 <1>        0.000
     11 C          -1.0752    0.9192   -2.3658 C.2        1 <1>        0.000
     12 C          -0.4922    0.0501   -3.4123 C.2        1 <1>        0.000
     13 C           0.8350   -0.0193   -3.5837 C.2        1 <1>        0.000
     14 C           1.7470    0.7730   -2.7287 C.2        1 <1>        0.000
     15 N           3.0572    0.7194   -2.8805 N.2        1 <1>        0.000
     16 H          -1.3124   -0.6863   -4.2089 H.spc      1 <1>        0.000
     17 N          -2.3829    0.9862   -2.1986 N.2        1 <1>        0.000
     18 H          -3.3350    0.2225   -3.0178 H.spc      1 <1>        0.000
     19 H           1.4588    3.2102    0.1138 H.spc      1 <1>        0.000
     20 H           5.7199    0.7434   -3.0353 H.spc      1 <1>        0.000
     21 H           3.8434    3.6940    0.5105 H.spc      1 <1>        0.000
     22 H           6.3076    3.5557    0.1813 H.spc      1 <1>        0.000
     23 H          -0.5752    2.3572   -0.7347 H.spc      1 <1>        0.000
     24 H           1.2465   -0.6649   -4.3596 H.spc      1 <1>        0.000
@<TRIPOS>BOND
     1    1    2 1  
     2    2    3 ar 
     3    3    4 ar 
     4    4    5 ar 
     5    5    6 ar 
     6    6    7 ar 
     7    7    2 ar 
     8    5    8 1  
     9    8    9 1  
    10    9   10 2  
    11   10   11 1  
    12   11   12 1  
    13   12   13 2  
    14   13   14 1  
    15   14    9 1  
    16   14   15 2  
    17   15    4 1  
    18   12   16 1  
    19   11   17 2  
    20   17   18 1  
    21    8   19 1  
    22    3   20 1  
    23    6   21 1  
    24    7   22 1  
    25   10   23 1  
    26   13   24 1  
