# Name:          seed_class_5_381_260/34898
# Creation time: Fri May 21 00:57:18 2010


@<TRIPOS>MOLECULE
seed_class_5_381_260/34898
   18    18     1     1     1
SMALL
USER_CHARGES


@<TRIPOS>ATOM
      1 H          -1.0703    0.3855   -0.4215 H.spc      1 <1>        0.000
      2 O           0.2899   -0.0114   -0.2285 O.3        1 <1>        0.000
      3 C           1.1757    0.2642   -1.2092 C.2        1 <1>        0.000
      4 O           0.7885    0.7323   -2.2672 O.2        1 <1>        0.000
      5 C           2.6167   -0.0014   -1.0009 C.ar       1 <1>        0.000
      6 C           3.5401    0.3221   -2.0022 C.ar       1 <1>        0.000
      7 C           4.9032    0.0708   -1.8051 C.ar       1 <1>        0.000
      8 C           5.3429   -0.5039   -0.6066 C.ar       1 <1>        0.000
      9 C           4.4195   -0.8273    0.3947 C.ar       1 <1>        0.000
     10 C           3.0564   -0.5761    0.1976 C.ar       1 <1>        0.000
     11 O           4.8498   -1.3897    1.5675 O.3        1 <1>        0.000
     12 H           3.8678   -1.7244    2.5516 H.spc      1 <1>        0.000
     13 O           6.6768   -0.7497   -0.4138 O.3        1 <1>        0.000
     14 H           7.0824   -1.3067    0.8392 H.spc      1 <1>        0.000
     15 O           5.8067    0.3874   -2.7850 O.3        1 <1>        0.000
     16 H           5.3136    0.9940   -3.9824 H.spc      1 <1>        0.000
     17 H           3.1978    0.7696   -2.9353 H.spc      1 <1>        0.000
     18 H           2.3375   -0.8280    0.9772 H.spc      1 <1>        0.000
@<TRIPOS>BOND
     1    1    2 1  
     2    2    3 1  
     3    3    4 2  
     4    3    5 1  
     5    5    6 ar 
     6    6    7 ar 
     7    7    8 ar 
     8    8    9 ar 
     9    9   10 ar 
    10   10    5 ar 
    11    9   11 1  
    12   11   12 1  
    13    8   13 1  
    14   13   14 1  
    15    7   15 1  
    16   15   16 1  
    17    6   17 1  
    18   10   18 1  
