# Name:          seed_class_5_521_25/34898
# Creation time: Fri May 21 00:57:20 2010


@<TRIPOS>MOLECULE
seed_class_5_521_25/34898
   17    17     1     1     1
SMALL
USER_CHARGES


@<TRIPOS>ATOM
      1 N           4.7454    0.5239   -0.0143 N.pl3      1 <1>        0.000
      2 C           3.5742   -0.1075   -0.2957 C.2        1 <1>        0.000
      3 N           3.5864   -1.3324   -0.7877 N.2        1 <1>        0.000
      4 C           2.2860    0.5786   -0.0502 C.ar       1 <1>        0.000
      5 C           1.1795    0.3015   -0.8619 C.ar       1 <1>        0.000
      6 C          -0.0390    0.9505   -0.6297 C.ar       1 <1>        0.000
      7 C          -0.1511    1.8766    0.4142 C.ar       1 <1>        0.000
      8 C           0.9554    2.1537    1.2259 C.ar       1 <1>        0.000
      9 C           2.1740    1.5047    0.9937 C.ar       1 <1>        0.000
     10 H          -1.2325    0.6516   -1.5052 H.spc      1 <1>        0.000
     11 H           5.6332    0.0510   -0.1834 H.spc      1 <1>        0.000
     12 H           4.7360    1.4704    0.3659 H.spc      1 <1>        0.000
     13 H           2.7080   -1.8060   -0.9987 H.spc      1 <1>        0.000
     14 H           1.2667   -0.4196   -1.6747 H.spc      1 <1>        0.000
     15 H          -1.0998    2.3819    0.5950 H.spc      1 <1>        0.000
     16 H           0.8681    2.8747    2.0387 H.spc      1 <1>        0.000
     17 H           3.0355    1.7205    1.6257 H.spc      1 <1>        0.000
@<TRIPOS>BOND
     1    1    2 1  
     2    2    3 2  
     3    2    4 1  
     4    4    5 ar 
     5    5    6 ar 
     6    6    7 ar 
     7    7    8 ar 
     8    8    9 ar 
     9    9    4 ar 
    10    6   10 1  
    11    1   11 1  
    12    1   12 1  
    13    3   13 1  
    14    5   14 1  
    15    7   15 1  
    16    8   16 1  
    17    9   17 1  
