# Name:          seed_class_5_426_66/34898
# Creation time: Fri May 21 00:57:18 2010


@<TRIPOS>MOLECULE
seed_class_5_426_66/34898
   11    11     1     1     1
SMALL
USER_CHARGES


@<TRIPOS>ATOM
      1 N           1.4613    0.9996   -0.9523 N.2        1 <1>        0.000
      2 O           2.6147    0.7165   -0.6866 O.2        1 <1>        0.000
      3 O           1.2208    1.8661   -1.7723 O.2        1 <1>        0.000
      4 C           0.3586    0.2949   -0.2827 C.ar       1 <1>        0.000
      5 N          -0.9666    0.5157   -0.4938 N.pl3      1 <1>        0.000
      6 C          -1.6672   -0.3290    0.3094 C.ar       1 <1>        0.000
      7 C          -0.7912   -1.0633    1.0087 C.ar       1 <1>        0.000
      8 N           0.4915   -0.6565    0.6227 N.ar       1 <1>        0.000
      9 H          -1.3652    1.1957   -1.1411 H.spc      1 <1>        0.000
     10 H          -2.7532   -0.3969    0.3733 H.spc      1 <1>        0.000
     11 H          -1.0323   -1.8335    1.7413 H.spc      1 <1>        0.000
@<TRIPOS>BOND
     1    1    2 2  
     2    1    3 2  
     3    1    4 1  
     4    4    5 ar 
     5    5    6 ar 
     6    6    7 ar 
     7    7    8 ar 
     8    8    4 ar 
     9    5    9 1  
    10    6   10 1  
    11    7   11 1  
