#	Name:			1,3-cyclohexadiene
#	Creating user name:	zmliu
#	Creation time:		Thu Mar 11 17:08:01 2004

#	Modifying user name:	zmliu
#	Modification time:	Thu Mar 11 17:08:19 2004

@<TRIPOS>MOLECULE
1,3-cyclohexadiene
   14    14     1     1     1
SMALL
GAST_HUCK


@<TRIPOS>ATOM
      1 C1          0.2376    1.4256    0.0373 C.2       1 CYCLOHEXADIENE   -0.0076 
      2 C2          1.3783    0.7294    0.0968 C.2       1 CYCLOHEXADIENE    0.1544 
      3 C3          1.3775   -0.7309   -0.0968 C.2       1 CYCLOHEXADIENE    0.1544 
      4 C4          0.2361   -1.4258   -0.0372 C.2       1 CYCLOHEXADIENE   -0.0076 
      5 C5         -1.0714   -0.7333    0.2521 C.3       1 CYCLOHEXADIENE   -0.1469 
      6 C6         -1.0706    0.7345   -0.2521 C.3       1 CYCLOHEXADIENE   -0.1469 
      7 H1          0.2518    2.5073    0.1796 H.spc     1 CYCLOHEXADIENE   -1.0000 
      8 H2          2.3247    1.2387    0.2830 H.spc     1 CYCLOHEXADIENE   -1.0000 
      9 H3          2.3233   -1.2411   -0.2830 H.spc     1 CYCLOHEXADIENE   -1.0000 
     10 H4          0.2492   -2.5076   -0.1794 H.spc     1 CYCLOHEXADIENE   -1.0000 
     11 H5         -1.2115   -0.7524    1.3449 H.spc     1 CYCLOHEXADIENE   -1.0000 
     12 H6         -1.9078   -1.2803   -0.2131 H.spc     1 CYCLOHEXADIENE   -1.0000 
     13 H7         -1.9065    1.2823    0.2129 H.spc     1 CYCLOHEXADIENE   -1.0000 
     14 H8         -1.2105    0.7537   -1.3449 H.spc     1 CYCLOHEXADIENE   -1.0000 
@<TRIPOS>BOND
     1    2    3 1    
     2    2    1 2    
     3    3    4 2    
     4    4    5 1    
     5    5    6 1    
     6    6    1 1    
     7    1    7 1    
     8    2    8 1    
     9    3    9 1    
    10    4   10 1    
    11    5   11 1    
    12    5   12 1    
    13    6   13 1    
    14    6   14 1    
@<TRIPOS>SUBSTRUCTURE
     1 CYCLOHEXADIENE     2 PERM              0 ****  ****    0 ROOT 
@<TRIPOS>SET
LAB$A_TYPE      STATIC     ATOMS    LABELGROUP SYSTEM 
14 1 2 3 4 5 6 7 8 9 10 11 12 13 14
@<TRIPOS>NORMAL
@<TRIPOS>FF_PBC
FORCE_FIELD_SETUP_FEATURE Force Field Setup information
v1.0  0 0.000000 0.000000 0.000000 0.000000 0.000000 0.000000 NONE 2 0 0 0 0 0 0 0 0 0 0 0 0
