# Name:          seed_class_4_239_54/38664
# Creation time: Fri May 21 00:57:16 2010


@<TRIPOS>MOLECULE
seed_class_4_239_54/38664
   15    15     1     1     1
SMALL
USER_CHARGES


@<TRIPOS>ATOM
      1 N           3.4697    0.0665    1.3001 N.am       1 <1>        0.000
      2 C           4.2799   -0.6027    0.4848 C.2        1 <1>        0.000
      3 C           3.8757   -0.7598   -0.9616 C.3        1 <1>        0.000
      4 C           2.3517   -0.6674   -1.1628 C.3        1 <1>        0.000
      5 C           1.7772    0.5563   -0.4252 C.3        1 <1>        0.000
      6 C           2.3082    0.6332    0.9863 C.2        1 <1>        0.000
      7 O           1.6625    1.2235    1.8510 O.2        1 <1>        0.000
      8 H           0.3090    0.4874   -0.4062 H.spc      1 <1>        0.000
      9 O           5.3338   -1.0825    0.8994 O.2        1 <1>        0.000
     10 H           3.7717    0.1545    2.2704 H.spc      1 <1>        0.000
     11 H           4.1994   -1.7456   -1.2956 H.spc      1 <1>        0.000
     12 H           4.3389    0.0472   -1.5293 H.spc      1 <1>        0.000
     13 H           1.8885   -1.5691   -0.7623 H.spc      1 <1>        0.000
     14 H           2.1428   -0.5664   -2.2278 H.spc      1 <1>        0.000
     15 H           2.0887    1.4548   -0.9579 H.spc      1 <1>        0.000
@<TRIPOS>BOND
     1    1    2 am 
     2    2    3 1  
     3    3    4 1  
     4    4    5 1  
     5    5    6 1  
     6    6    1 am 
     7    6    7 2  
     8    5    8 1  
     9    2    9 2  
    10    1   10 1  
    11    3   11 1  
    12    3   12 1  
    13    4   13 1  
    14    4   14 1  
    15    5   15 1  
