# Name:          seed_class_2_71_30/95646
# Creation time: Fri May 21 00:57:14 2010


@<TRIPOS>MOLECULE
seed_class_2_71_30/95646
   24    26     1     1     1
SMALL
USER_CHARGES


@<TRIPOS>ATOM
      1 H          -1.6367    0.4311    1.4087 H.spc      1 <1>        0.000
      2 C          -0.1549    0.1882    1.2491 C.ar       1 <1>        0.000
      3 C           0.5709    0.8979    0.2849 C.ar       1 <1>        0.000
      4 C           1.9447    0.6726    0.1368 C.ar       1 <1>        0.000
      5 C           2.6705    1.3823   -0.8274 C.ar       1 <1>        0.000
      6 C           2.0224    2.3171   -1.6435 C.ar       1 <1>        0.000
      7 C           2.7482    3.0267   -2.6077 C.ar       1 <1>        0.000
      8 C           4.1220    2.8015   -2.7558 C.ar       1 <1>        0.000
      9 C           4.7700    1.8667   -1.9396 C.ar       1 <1>        0.000
     10 C           4.0443    1.1570   -0.9754 C.ar       1 <1>        0.000
     11 H           6.1144    1.6463   -2.0845 H.spc      1 <1>        0.000
     12 H           4.8322    3.4959   -3.6993 H.spc      1 <1>        0.000
     13 C           0.6486    2.5423   -1.4955 C.ar       1 <1>        0.000
     14 C          -0.0772    1.8327   -0.5313 C.ar       1 <1>        0.000
     15 C           2.5927   -0.2622    0.9530 C.ar       1 <1>        0.000
     16 C           1.8669   -0.9719    1.9172 C.ar       1 <1>        0.000
     17 C           0.4931   -0.7466    2.0652 C.ar       1 <1>        0.000
     18 H           2.5011   -1.8867    2.7158 H.spc      1 <1>        0.000
     19 H           3.9371   -0.4826    0.8081 H.spc      1 <1>        0.000
     20 H           2.2437    3.7545   -3.2431 H.spc      1 <1>        0.000
     21 H           4.5488    0.4291   -0.3400 H.spc      1 <1>        0.000
     22 H           0.1441    3.2701   -2.1310 H.spc      1 <1>        0.000
     23 H          -1.1468    2.0080   -0.4161 H.spc      1 <1>        0.000
     24 H          -0.0720   -1.2991    2.8159 H.spc      1 <1>        0.000
@<TRIPOS>BOND
     1    1    2 1  
     2    2    3 ar 
     3    3    4 ar 
     4    4    5 ar 
     5    5    6 ar 
     6    6    7 ar 
     7    7    8 ar 
     8    8    9 ar 
     9    9   10 ar 
    10   10    5 ar 
    11    9   11 1  
    12    8   12 1  
    13    6   13 ar 
    14   13   14 ar 
    15   14    3 ar 
    16    4   15 ar 
    17   15   16 ar 
    18   16   17 ar 
    19   17    2 ar 
    20   16   18 1  
    21   15   19 1  
    22    7   20 1  
    23   10   21 1  
    24   13   22 1  
    25   14   23 1  
    26   17   24 1  
