# Name:          seed_class_5_504_28/34898
# Creation time: Fri May 21 00:57:19 2010


@<TRIPOS>MOLECULE
seed_class_5_504_28/34898
   14    14     1     1     1
SMALL
USER_CHARGES


@<TRIPOS>ATOM
      1 O         -12.3055   -3.7936    1.6163 O.3        1 <1>        0.000
      2 H         -13.4561   -4.5495    2.0033 H.spc      1 <1>        0.000
      3 C         -11.1292   -4.0285    2.2781 C.2        1 <1>        0.000
      4 C         -11.0856   -4.9501    3.2498 C.2        1 <1>        0.000
      5 C          -9.8269   -5.2221    3.9793 C.2        1 <1>        0.000
      6 C          -8.6154   -4.4547    3.6135 C.2        1 <1>        0.000
      7 C          -8.6564   -3.5325    2.6421 C.2        1 <1>        0.000
      8 C          -9.9163   -3.2624    1.9141 C.2        1 <1>        0.000
      9 O          -9.9547   -2.4161    1.0223 O.2        1 <1>        0.000
     10 H          -7.4067   -2.7627    2.2873 H.spc      1 <1>        0.000
     11 O          -7.4392   -4.6897    4.2753 O.3        1 <1>        0.000
     12 O          -9.7885   -6.0683    4.8710 O.2        1 <1>        0.000
     13 H         -11.9876   -5.5059    3.5060 H.spc      1 <1>        0.000
     14 H          -7.5759   -5.3730    4.9357 H.spc      1 <1>        0.000
@<TRIPOS>BOND
     1    1    2 1  
     2    1    3 1  
     3    3    4 2  
     4    4    5 1  
     5    5    6 1  
     6    6    7 2  
     7    7    8 1  
     8    8    3 1  
     9    8    9 2  
    10    7   10 1  
    11    6   11 1  
    12    5   12 2  
    13    4   13 1  
    14   11   14 1  
