# Name:          seed_class_4_184_162/38664
# Creation time: Fri May 21 00:57:15 2010


@<TRIPOS>MOLECULE
seed_class_4_184_162/38664
   19    20     1     1     1
SMALL
USER_CHARGES


@<TRIPOS>ATOM
      1 O          -1.8164   -1.1543   -1.0429 O.3        1 <1>        0.000
      2 C          -1.2558   -0.0769   -1.7977 C.3        1 <1>        0.000
      3 C          -1.3504    1.2440   -1.0117 C.3        1 <1>        0.000
      4 C          -2.7831    1.5013   -0.6113 C.2        1 <1>        0.000
      5 C          -3.6339    0.2996   -0.4617 C.ar       1 <1>        0.000
      6 C          -3.1271   -0.9869   -0.6810 C.ar       1 <1>        0.000
      7 C          -3.9596   -2.1023   -0.5306 C.ar       1 <1>        0.000
      8 C          -5.2990   -1.9313   -0.1608 C.ar       1 <1>        0.000
      9 C          -5.8059   -0.6448    0.0586 C.ar       1 <1>        0.000
     10 C          -4.9733    0.4706   -0.0919 C.ar       1 <1>        0.000
     11 H          -6.1138   -3.0228   -0.0136 H.spc      1 <1>        0.000
     12 O          -3.2156    2.6370   -0.4217 O.2        1 <1>        0.000
     13 H           0.1859   -0.3763   -2.1320 H.spc      1 <1>        0.000
     14 H          -1.8232    0.0295   -2.7222 H.spc      1 <1>        0.000
     15 H          -1.0000    2.0626   -1.6403 H.spc      1 <1>        0.000
     16 H          -0.7334    1.1746   -0.1158 H.spc      1 <1>        0.000
     17 H          -3.5650   -3.1039   -0.7014 H.spc      1 <1>        0.000
     18 H          -6.8487   -0.5116    0.3466 H.spc      1 <1>        0.000
     19 H          -5.3679    1.4722    0.0789 H.spc      1 <1>        0.000
@<TRIPOS>BOND
     1    1    2 1  
     2    2    3 1  
     3    3    4 1  
     4    4    5 1  
     5    5    6 ar 
     6    6    1 1  
     7    6    7 ar 
     8    7    8 ar 
     9    8    9 ar 
    10    9   10 ar 
    11   10    5 ar 
    12    8   11 1  
    13    4   12 2  
    14    2   13 1  
    15    2   14 1  
    16    3   15 1  
    17    3   16 1  
    18    7   17 1  
    19    9   18 1  
    20   10   19 1  
