# Name:          seed_class_4_271_38/38664
# Creation time: Fri May 21 00:57:16 2010


@<TRIPOS>MOLECULE
seed_class_4_271_38/38664
   18    19     1     1     1
SMALL
USER_CHARGES


@<TRIPOS>ATOM
      1 N           4.0554    0.5811    0.4391 N.am       1 <1>        0.000
      2 C           2.7439    0.1547    0.1223 C.ar       1 <1>        0.000
      3 C           1.6427    0.7537    0.7456 C.ar       1 <1>        0.000
      4 C           0.3453    0.3313    0.4317 C.ar       1 <1>        0.000
      5 C           0.1493   -0.6902   -0.5055 C.ar       1 <1>        0.000
      6 C           1.2505   -1.2892   -1.1287 C.ar       1 <1>        0.000
      7 C           2.5478   -0.8668   -0.8148 C.ar       1 <1>        0.000
      8 H          -1.1620   -1.1171   -0.8227 H.spc      1 <1>        0.000
      9 C           1.8812    1.8309    1.7320 C.2        1 <1>        0.000
     10 C           3.1369    2.2092    2.0074 C.2        1 <1>        0.000
     11 C           4.2722    1.5489    1.3252 C.2        1 <1>        0.000
     12 O           5.4241    1.8976    1.5794 O.2        1 <1>        0.000
     13 H           4.8502    0.1375   -0.0212 H.spc      1 <1>        0.000
     14 H          -0.5121    0.7977    0.9169 H.spc      1 <1>        0.000
     15 H           1.0978   -2.0845   -1.8583 H.spc      1 <1>        0.000
     16 H           3.4052   -1.3332   -1.3000 H.spc      1 <1>        0.000
     17 H           1.0409    2.3134    2.2312 H.spc      1 <1>        0.000
     18 H           3.3218    3.0018    2.7325 H.spc      1 <1>        0.000
@<TRIPOS>BOND
     1    1    2 1  
     2    2    3 ar 
     3    3    4 ar 
     4    4    5 ar 
     5    5    6 ar 
     6    6    7 ar 
     7    7    2 ar 
     8    5    8 1  
     9    3    9 1  
    10    9   10 2  
    11   10   11 1  
    12   11    1 am 
    13   11   12 2  
    14    1   13 1  
    15    4   14 1  
    16    6   15 1  
    17    7   16 1  
    18    9   17 1  
    19   10   18 1  
