# Name:          seed_class_5_546_22/34898
# Creation time: Fri May 21 00:57:20 2010


@<TRIPOS>MOLECULE
seed_class_5_546_22/34898
   27    29     1     1     1
SMALL
USER_CHARGES


@<TRIPOS>ATOM
      1 N           1.1334    4.4841   -2.8335 N.am       1 <1>        0.000
      2 C           0.5781    3.8538   -1.6949 C.ar       1 <1>        0.000
      3 C           1.0749    2.7520   -0.9883 C.ar       1 <1>        0.000
      4 N           0.4193    2.2755    0.0788 N.ar       1 <1>        0.000
      5 C          -0.7242    2.8270    0.5079 C.ar       1 <1>        0.000
      6 C          -1.2763    3.9310   -0.1527 C.ar       1 <1>        0.000
      7 C          -0.6147    4.4519   -1.2711 C.ar       1 <1>        0.000
      8 N           2.2426    1.9859   -1.2162 N.am       1 <1>        0.000
      9 C           3.1978    2.1711   -2.2436 C.ar       1 <1>        0.000
     10 C           3.2291    3.1294   -3.2636 C.ar       1 <1>        0.000
     11 C           4.2806    3.1338   -4.1880 C.ar       1 <1>        0.000
     12 C           5.3007    2.1798   -4.0922 C.ar       1 <1>        0.000
     13 C           5.2694    1.2215   -3.0722 C.ar       1 <1>        0.000
     14 C           4.2179    1.2171   -2.1478 C.ar       1 <1>        0.000
     15 C           2.2420    4.2036   -3.5128 C.2        1 <1>        0.000
     16 O           2.4778    4.9331   -4.4747 O.2        1 <1>        0.000
     17 C           2.4667    0.9823   -0.3727 C.2        1 <1>        0.000
     18 O           3.0984    1.1797    0.6640 O.2        1 <1>        0.000
     19 H           1.9456   -0.3994   -0.6878 H.spc      1 <1>        0.000
     20 H           0.6002    5.2777   -3.1889 H.spc      1 <1>        0.000
     21 H          -1.2295    2.4119    1.3799 H.spc      1 <1>        0.000
     22 H          -2.2065    4.3779    0.1982 H.spc      1 <1>        0.000
     23 H          -1.0224    5.3108   -1.8043 H.spc      1 <1>        0.000
     24 H           4.3050    3.8799   -4.9822 H.spc      1 <1>        0.000
     25 H           6.1194    2.1832   -4.8118 H.spc      1 <1>        0.000
     26 H           6.0637    0.4788   -2.9977 H.spc      1 <1>        0.000
     27 H           4.1935    0.4710   -1.3536 H.spc      1 <1>        0.000
@<TRIPOS>BOND
     1    1    2 1  
     2    2    3 ar 
     3    3    4 ar 
     4    4    5 ar 
     5    5    6 ar 
     6    6    7 ar 
     7    7    2 ar 
     8    3    8 1  
     9    8    9 1  
    10    9   10 ar 
    11   10   11 ar 
    12   11   12 ar 
    13   12   13 ar 
    14   13   14 ar 
    15   14    9 ar 
    16   10   15 1  
    17   15    1 am 
    18   15   16 2  
    19    8   17 am 
    20   17   18 2  
    21   17   19 1  
    22    1   20 1  
    23    5   21 1  
    24    6   22 1  
    25    7   23 1  
    26   11   24 1  
    27   12   25 1  
    28   13   26 1  
    29   14   27 1  
