# Name:          seed_class_4_343_23/38664
# Creation time: Fri May 21 00:57:17 2010


@<TRIPOS>MOLECULE
seed_class_4_343_23/38664
   29    31     1     1     1
SMALL
USER_CHARGES


@<TRIPOS>ATOM
      1 H          -3.6883   -2.1848   -0.2525 H.spc      1 <1>        0.000
      2 C          -4.6641   -2.9449    0.4651 C.3        1 <1>        0.000
      3 O          -5.5936   -3.5459   -0.4403 O.3        1 <1>        0.000
      4 C          -6.3007   -2.5552   -1.1910 C.3        1 <1>        0.000
      5 C          -7.1440   -1.6408   -0.2832 C.3        1 <1>        0.000
      6 O          -8.1499   -2.4772    0.2943 O.3        1 <1>        0.000
      7 C          -8.9531   -1.7842    1.2532 C.3        1 <1>        0.000
      8 O          -9.7220   -0.7864    0.5763 O.3        1 <1>        0.000
      9 C         -10.6321   -0.1307    1.4634 C.3        1 <1>        0.000
     10 C          -9.9194    0.5399    2.6134 C.2        1 <1>        0.000
     11 C          -8.8988   -0.3087    3.3334 C.3        1 <1>        0.000
     12 C          -8.0707   -1.1497    2.3442 C.3        1 <1>        0.000
     13 O          -7.0640   -0.3046    1.7807 O.3        1 <1>        0.000
     14 C          -6.2737   -1.0071    0.8180 C.3        1 <1>        0.000
     15 C          -5.3803   -2.0590    1.5013 C.3        1 <1>        0.000
     16 O         -10.1510    1.6826    2.9369 O.2        1 <1>        0.000
     17 H         -11.6506   -1.1337    1.9973 H.spc      1 <1>        0.000
     18 H          -7.1966   -3.2290   -2.2264 H.spc      1 <1>        0.000
     19 H          -4.1591   -3.7462    1.0045 H.spc      1 <1>        0.000
     20 H          -5.5618   -1.9314   -1.6941 H.spc      1 <1>        0.000
     21 H          -7.5823   -0.8194   -0.8500 H.spc      1 <1>        0.000
     22 H          -9.6254   -2.4882    1.7436 H.spc      1 <1>        0.000
     23 H         -11.1424    0.6468    0.8949 H.spc      1 <1>        0.000
     24 H          -9.4241   -0.9848    4.0080 H.spc      1 <1>        0.000
     25 H          -8.2229    0.3501    3.8787 H.spc      1 <1>        0.000
     26 H          -7.6041   -1.9814    2.8720 H.spc      1 <1>        0.000
     27 H          -5.6244   -0.2785    0.3326 H.spc      1 <1>        0.000
     28 H          -6.0086   -2.6945    2.1254 H.spc      1 <1>        0.000
     29 H          -4.6266   -1.5410    2.0943 H.spc      1 <1>        0.000
@<TRIPOS>BOND
     1    2    1 1  
     2    2    3 1  
     3    3    4 1  
     4    4    5 1  
     5    5    6 1  
     6    6    7 1  
     7    7    8 1  
     8    8    9 1  
     9    9   10 1  
    10   10   11 1  
    11   11   12 1  
    12   12    7 1  
    13   12   13 1  
    14   13   14 1  
    15   14    5 1  
    16   14   15 1  
    17   15    2 1  
    18   10   16 2  
    19    9   17 1  
    20    4   18 1  
    21    2   19 1  
    22    4   20 1  
    23    5   21 1  
    24    7   22 1  
    25    9   23 1  
    26   11   24 1  
    27   11   25 1  
    28   12   26 1  
    29   14   27 1  
    30   15   28 1  
    31   15   29 1  
