# Name:          seed_class_4_211_86/38664
# Creation time: Fri May 21 00:57:16 2010


@<TRIPOS>MOLECULE
seed_class_4_211_86/38664
   12    12     1     1     1
SMALL
USER_CHARGES


@<TRIPOS>ATOM
      1 N           3.4575   -0.9818    1.1229 N.am       1 <1>        0.000
      2 C           2.3254   -1.2687    0.4260 C.2        1 <1>        0.000
      3 C           1.7007   -0.3429   -0.3145 C.2        1 <1>        0.000
      4 C           2.2544    1.0282   -0.3777 C.2        1 <1>        0.000
      5 C           3.3701    1.3027    0.3118 C.2        1 <1>        0.000
      6 C           4.0062    0.2296    1.1086 C.2        1 <1>        0.000
      7 O           5.0309    0.4557    1.7504 O.2        1 <1>        0.000
      8 H           3.9464    2.6329    0.2779 H.spc      1 <1>        0.000
      9 H           0.4703   -0.6878   -1.0611 H.spc      1 <1>        0.000
     10 H           1.7577   -2.6666    0.4882 H.spc      1 <1>        0.000
     11 H           3.8992   -1.7182    1.6733 H.spc      1 <1>        0.000
     12 H           1.7647    1.7989   -0.9729 H.spc      1 <1>        0.000
@<TRIPOS>BOND
     1    1    2 1  
     2    2    3 2  
     3    3    4 1  
     4    4    5 2  
     5    5    6 1  
     6    6    1 am 
     7    6    7 2  
     8    5    8 1  
     9    3    9 1  
    10    2   10 1  
    11    1   11 1  
    12    4   12 1  
