# Name:          seed_class_4_208_96/38664
# Creation time: Fri May 21 00:57:16 2010


@<TRIPOS>MOLECULE
seed_class_4_208_96/38664
   12    12     1     1     1
SMALL
USER_CHARGES


@<TRIPOS>ATOM
      1 H           2.7570    0.8834    0.0405 H.spc      1 <1>        0.000
      2 C           3.6858    1.8507   -0.1863 C.2        1 <1>        0.000
      3 C           3.5102    2.8818   -1.0239 C.2        1 <1>        0.000
      4 C           4.7330    3.7675   -1.0413 C.3        1 <1>        0.000
      5 C           5.7288    3.1188   -0.0620 C.3        1 <1>        0.000
      6 C           5.0158    1.8949    0.4613 C.2        1 <1>        0.000
      7 O           5.4583    1.0852    1.2746 O.2        1 <1>        0.000
      8 H           2.3775    3.1020   -1.7624 H.spc      1 <1>        0.000
      9 H           4.4900    4.7878   -0.7446 H.spc      1 <1>        0.000
     10 H           5.1539    3.8457   -2.0437 H.spc      1 <1>        0.000
     11 H           6.0083    3.7997    0.7420 H.spc      1 <1>        0.000
     12 H           6.6688    2.8622   -0.5506 H.spc      1 <1>        0.000
@<TRIPOS>BOND
     1    1    2 1  
     2    2    3 2  
     3    3    4 1  
     4    4    5 1  
     5    5    6 1  
     6    6    2 1  
     7    6    7 2  
     8    3    8 1  
     9    4    9 1  
    10    4   10 1  
    11    5   11 1  
    12    5   12 1  
