# Name:          seed_class_4_315_27/38664
# Creation time: Fri May 21 00:57:17 2010


@<TRIPOS>MOLECULE
seed_class_4_315_27/38664
   14    14     1     1     1
SMALL
USER_CHARGES


@<TRIPOS>ATOM
      1 H          -4.4149   -1.0228    3.7650 H.spc      1 <1>        0.000
      2 C          -5.4557   -1.9889    3.2515 C.3        1 <1>        0.000
      3 O          -6.7611   -1.5523    3.6391 O.3        1 <1>        0.000
      4 C          -7.7672   -2.3779    3.0465 C.3        1 <1>        0.000
      5 C          -7.5627   -3.8518    3.3027 C.2        1 <1>        0.000
      6 C          -6.3589   -4.3276    3.6492 C.2        1 <1>        0.000
      7 C          -5.1739   -3.4028    3.7928 C.3        1 <1>        0.000
      8 H          -8.7290   -4.8013    3.1670 H.spc      1 <1>        0.000
      9 H          -9.1466   -1.9523    3.5475 H.spc      1 <1>        0.000
     10 H          -5.4098   -2.0194    2.1629 H.spc      1 <1>        0.000
     11 H          -7.6918   -2.2357    1.9684 H.spc      1 <1>        0.000
     12 H          -6.2336   -5.3952    3.8296 H.spc      1 <1>        0.000
     13 H          -4.3490   -3.8235    3.2177 H.spc      1 <1>        0.000
     14 H          -4.9439   -3.3153    4.8547 H.spc      1 <1>        0.000
@<TRIPOS>BOND
     1    1    2 1  
     2    2    3 1  
     3    3    4 1  
     4    4    5 1  
     5    5    6 2  
     6    6    7 1  
     7    7    2 1  
     8    5    8 1  
     9    4    9 1  
    10    2   10 1  
    11    4   11 1  
    12    6   12 1  
    13    7   13 1  
    14    7   14 1  
