# Name:          seed_class_5_492_32/34898
# Creation time: Fri May 21 00:57:19 2010


@<TRIPOS>MOLECULE
seed_class_5_492_32/34898
   20    21     1     1     1
SMALL
USER_CHARGES


@<TRIPOS>ATOM
      1 N           0.9706   -1.1227   -1.8578 N.pl3      1 <1>        0.000
      2 H          -0.0695   -2.0913   -1.4825 H.spc      1 <1>        0.000
      3 C           1.4643   -0.2074   -0.8982 C.ar       1 <1>        0.000
      4 C           2.8425   -0.1015   -0.6761 C.ar       1 <1>        0.000
      5 N           3.6844   -0.8721   -1.3783 N.ar       1 <1>        0.000
      6 C           5.0113   -0.8084   -1.2028 C.ar       1 <1>        0.000
      7 C           5.5665    0.0754   -0.2697 C.ar       1 <1>        0.000
      8 C           4.7128    0.8939    0.4795 C.ar       1 <1>        0.000
      9 C           3.3310    0.8041    0.2733 C.ar       1 <1>        0.000
     10 C           2.4413    1.6037    1.0005 C.ar       1 <1>        0.000
     11 C           1.0631    1.4978    0.7784 C.ar       1 <1>        0.000
     12 C           0.5746    0.5923   -0.1709 C.ar       1 <1>        0.000
     13 O           0.1925    2.2804    1.4901 O.3        1 <1>        0.000
     14 H           0.7378    3.1908    2.4485 H.spc      1 <1>        0.000
     15 H           1.3364   -1.1104   -2.8099 H.spc      1 <1>        0.000
     16 H           5.6650   -1.4511   -1.7924 H.spc      1 <1>        0.000
     17 H           6.6462    0.1254   -0.1288 H.spc      1 <1>        0.000
     18 H           5.1182    1.5911    1.2128 H.spc      1 <1>        0.000
     19 H           2.8216    2.3088    1.7397 H.spc      1 <1>        0.000
     20 H          -0.4984    0.5099   -0.3438 H.spc      1 <1>        0.000
@<TRIPOS>BOND
     1    1    2 1  
     2    1    3 1  
     3    3    4 ar 
     4    4    5 ar 
     5    5    6 ar 
     6    6    7 ar 
     7    7    8 ar 
     8    8    9 ar 
     9    9    4 ar 
    10    9   10 ar 
    11   10   11 ar 
    12   11   12 ar 
    13   12    3 ar 
    14   11   13 1  
    15   13   14 1  
    16    1   15 1  
    17    6   16 1  
    18    7   17 1  
    19    8   18 1  
    20   10   19 1  
    21   12   20 1  
