# Name:          seed_class_2_43_113/95646
# Creation time: Fri May 21 00:57:13 2010


@<TRIPOS>MOLECULE
seed_class_2_43_113/95646
    8     8     1     1     1
SMALL
USER_CHARGES


@<TRIPOS>ATOM
      1 H           2.1582   -2.6685    0.1305 H.spc      1 <1>        0.000
      2 C           3.3072   -1.7644    0.5079 C.ar       1 <1>        0.000
      3 N           3.9639   -0.8692   -0.3450 N.ar       1 <1>        0.000
      4 C           4.9124   -0.2536    0.3360 C.ar       1 <1>        0.000
      5 O           4.8960   -0.7316    1.6444 O.3        1 <1>        0.000
      6 C           3.8767   -1.6783    1.7178 C.ar       1 <1>        0.000
      7 H           5.8366    0.7708   -0.1996 H.spc      1 <1>        0.000
      8 H           3.5927   -2.2480    2.6026 H.spc      1 <1>        0.000
@<TRIPOS>BOND
     1    1    2 1  
     2    2    3 ar 
     3    3    4 ar 
     4    4    5 ar 
     5    5    6 ar 
     6    6    2 ar 
     7    4    7 1  
     8    6    8 1  
