# Name:          seed_class_4_314_27/38664
# Creation time: Fri May 21 00:57:17 2010


@<TRIPOS>MOLECULE
seed_class_4_314_27/38664
   22    24     1     1     1
SMALL
USER_CHARGES


@<TRIPOS>ATOM
      1 H          -0.9472    2.9279   -1.3764 H.spc      1 <1>        0.000
      2 C          -0.1426    3.8386   -2.2212 C.ar       1 <1>        0.000
      3 C           1.2532    3.8436   -2.1127 C.ar       1 <1>        0.000
      4 C           2.0144    4.7051   -2.9117 C.ar       1 <1>        0.000
      5 C           1.3797    5.5615   -3.8193 C.ar       1 <1>        0.000
      6 C          -0.0160    5.5565   -3.9278 C.ar       1 <1>        0.000
      7 C          -0.7772    4.6950   -3.1288 C.ar       1 <1>        0.000
      8 H           2.2007    6.4907   -4.6812 H.spc      1 <1>        0.000
      9 O           3.4032    4.7101   -2.8038 O.3        1 <1>        0.000
     10 C           4.0324    3.8577   -1.9008 C.2        1 <1>        0.000
     11 C           5.3684    3.8632   -1.7976 C.2        1 <1>        0.000
     12 C           6.0606    2.9665   -0.8451 C.2        1 <1>        0.000
     13 C           5.2349    2.0648   -0.0111 C.2        1 <1>        0.000
     14 C           3.8997    2.0693   -0.1242 C.2        1 <1>        0.000
     15 C           3.1955    2.9610   -1.0726 C.2        1 <1>        0.000
     16 N           1.8822    2.9848   -1.2033 N.2        1 <1>        0.000
     17 H           3.1047    1.1546    0.7253 H.spc      1 <1>        0.000
     18 H           5.8351    1.2263    0.8757 H.spc      1 <1>        0.000
     19 O           7.2868    2.9705   -0.7494 O.2        1 <1>        0.000
     20 H           6.1786    4.7968   -2.6648 H.spc      1 <1>        0.000
     21 H          -0.5101    6.2234   -4.6344 H.spc      1 <1>        0.000
     22 H          -1.8639    4.6911   -3.2134 H.spc      1 <1>        0.000
@<TRIPOS>BOND
     1    1    2 1  
     2    2    3 ar 
     3    3    4 ar 
     4    4    5 ar 
     5    5    6 ar 
     6    6    7 ar 
     7    7    2 ar 
     8    5    8 1  
     9    4    9 1  
    10    9   10 1  
    11   10   11 2  
    12   11   12 1  
    13   12   13 1  
    14   13   14 2  
    15   14   15 1  
    16   15   10 1  
    17   15   16 2  
    18   16    3 1  
    19   14   17 1  
    20   13   18 1  
    21   12   19 2  
    22   11   20 1  
    23    6   21 1  
    24    7   22 1  
