# Name:          seed_class_5_443_46/34898
# Creation time: Fri May 21 00:57:19 2010


@<TRIPOS>MOLECULE
seed_class_5_443_46/34898
    8     8     1     1     1
SMALL
USER_CHARGES


@<TRIPOS>ATOM
      1 H           3.7937    2.5680    0.7311 H.spc      1 <1>        0.000
      2 S           4.2625    0.8363    1.0374 S.3        1 <1>        0.000
      3 C           5.9269    0.7727    1.6363 C.ar       1 <1>        0.000
      4 N           6.6159   -0.3581    1.9464 N.pl3      1 <1>        0.000
      5 N           7.9279    0.0697    2.3916 N.ar       1 <1>        0.000
      6 N           7.9798    1.3176    2.3398 N.ar       1 <1>        0.000
      7 N           6.7065    1.8149    1.8564 N.ar       1 <1>        0.000
      8 H           6.1270   -1.7410    1.8495 H.spc      1 <1>        0.000
@<TRIPOS>BOND
     1    1    2 1  
     2    2    3 1  
     3    3    4 ar 
     4    4    5 ar 
     5    5    6 ar 
     6    6    7 ar 
     7    7    3 ar 
     8    4    8 1  
