# Name:          seed_class_4_205_98/38664
# Creation time: Fri May 21 00:57:15 2010


@<TRIPOS>MOLECULE
seed_class_4_205_98/38664
   21    22     1     1     1
SMALL
USER_CHARGES


@<TRIPOS>ATOM
      1 N           1.9684   -0.0346    0.7352 N.3        1 <1>        0.000
      2 C           0.9121   -0.9097    0.2067 C.3        1 <1>        0.000
      3 C           1.2256   -1.3503   -1.2353 C.3        1 <1>        0.000
      4 C           2.5157   -0.7773   -1.8509 C.3        1 <1>        0.000
      5 C           2.4775    0.7394   -1.5866 C.3        1 <1>        0.000
      6 C           2.1199    1.1353   -0.1419 C.3        1 <1>        0.000
      7 C           3.5363   -1.2379   -0.7936 C.3        1 <1>        0.000
      8 C           3.2356   -0.7741    0.6438 C.3        1 <1>        0.000
      9 H          -0.4180   -0.1961    0.2498 H.spc      1 <1>        0.000
     10 H           0.8650   -1.8013    0.8320 H.spc      1 <1>        0.000
     11 H           0.4041   -0.9860   -1.8521 H.spc      1 <1>        0.000
     12 H           1.3559   -2.4320   -1.2034 H.spc      1 <1>        0.000
     13 H           2.6817   -1.0380   -2.8962 H.spc      1 <1>        0.000
     14 H           1.7002    1.1528   -2.2293 H.spc      1 <1>        0.000
     15 H           3.4808    1.1193   -1.7794 H.spc      1 <1>        0.000
     16 H           1.1693    1.6682   -0.1625 H.spc      1 <1>        0.000
     17 H           2.9298    1.7501    0.2508 H.spc      1 <1>        0.000
     18 H           4.4962   -0.8025   -1.0712 H.spc      1 <1>        0.000
     19 H           3.5116   -2.3276   -0.7851 H.spc      1 <1>        0.000
     20 H           4.0395   -0.1098    0.9609 H.spc      1 <1>        0.000
     21 H           3.1585   -1.6585    1.2763 H.spc      1 <1>        0.000
@<TRIPOS>BOND
     1    1    2 1  
     2    2    3 1  
     3    3    4 1  
     4    4    5 1  
     5    5    6 1  
     6    6    1 1  
     7    4    7 1  
     8    7    8 1  
     9    8    1 1  
    10    2    9 1  
    11    2   10 1  
    12    3   11 1  
    13    3   12 1  
    14    4   13 1  
    15    5   14 1  
    16    5   15 1  
    17    6   16 1  
    18    6   17 1  
    19    7   18 1  
    20    7   19 1  
    21    8   20 1  
    22    8   21 1  
