# Name:          seed_class_5_385_231/34898
# Creation time: Fri May 21 00:57:18 2010


@<TRIPOS>MOLECULE
seed_class_5_385_231/34898
   15    15     1     1     1
SMALL
USER_CHARGES


@<TRIPOS>ATOM
      1 H           9.0000    5.0535   -3.8323 H.spc      1 <1>        0.000
      2 C           9.2893    5.5359   -2.4309 C.ar       1 <1>        0.000
      3 C          10.3647    6.4011   -2.1965 C.ar       1 <1>        0.000
      4 C          10.6328    6.8484   -0.8972 C.ar       1 <1>        0.000
      5 C           9.8256    6.4305    0.1676 C.ar       1 <1>        0.000
      6 C           8.7502    5.5653   -0.0669 C.ar       1 <1>        0.000
      7 C           8.4820    5.1180   -1.3662 C.ar       1 <1>        0.000
      8 O           7.9603    5.1564    0.9750 O.3        1 <1>        0.000
      9 H           6.8947    4.2456    0.6924 H.spc      1 <1>        0.000
     10 O          10.0880    6.8682    1.4390 O.3        1 <1>        0.000
     11 H          11.1910    7.7584    1.6282 H.spc      1 <1>        0.000
     12 O          11.6852    7.6950   -0.6678 O.3        1 <1>        0.000
     13 H          12.4609    8.1216   -1.7908 H.spc      1 <1>        0.000
     14 H          10.9932    6.7265   -3.0255 H.spc      1 <1>        0.000
     15 H           7.6447    4.4444   -1.5488 H.spc      1 <1>        0.000
@<TRIPOS>BOND
     1    1    2 1  
     2    2    3 ar 
     3    3    4 ar 
     4    4    5 ar 
     5    5    6 ar 
     6    6    7 ar 
     7    7    2 ar 
     8    6    8 1  
     9    8    9 1  
    10    5   10 1  
    11   10   11 1  
    12    4   12 1  
    13   12   13 1  
    14    3   14 1  
    15    7   15 1  
