# Name:          seed_class_4_294_33/38664
# Creation time: Fri May 21 00:57:17 2010


@<TRIPOS>MOLECULE
seed_class_4_294_33/38664
   13    14     1     1     1
SMALL
USER_CHARGES


@<TRIPOS>ATOM
      1 S          -0.7701   -2.0860    0.9104 S.3        1 <1>        0.000
      2 C          -2.0385   -0.8290    0.5591 C.3        1 <1>        0.000
      3 N          -1.2344    0.2891    0.0451 N.am       1 <1>        0.000
      4 C           0.1077    0.0770   -0.0132 C.2        1 <1>        0.000
      5 C           0.6047   -1.1010    0.3882 C.2        1 <1>        0.000
      6 H           2.0295   -1.5014    0.3937 H.spc      1 <1>        0.000
      7 H           1.0106    1.1368   -0.5150 H.spc      1 <1>        0.000
      8 C          -1.8503    0.3395   -1.1326 C.2        1 <1>        0.000
      9 C          -2.7766   -0.8034   -0.7923 C.3        1 <1>        0.000
     10 H          -4.2598   -0.4430   -0.7200 H.spc      1 <1>        0.000
     11 O          -1.7157    1.0508   -2.1270 O.2        1 <1>        0.000
     12 H          -2.6851   -0.9022    1.4336 H.spc      1 <1>        0.000
     13 H          -2.8868   -1.6849   -1.4239 H.spc      1 <1>        0.000
@<TRIPOS>BOND
     1    1    2 1  
     2    2    3 1  
     3    3    4 1  
     4    4    5 2  
     5    5    1 1  
     6    5    6 1  
     7    4    7 1  
     8    3    8 am 
     9    8    9 1  
    10    9    2 1  
    11    9   10 1  
    12    8   11 2  
    13    2   12 1  
    14    9   13 1  
