# Name:          seed_class_5_431_62/34898
# Creation time: Fri May 21 00:57:18 2010


@<TRIPOS>MOLECULE
seed_class_5_431_62/34898
   16    16     1     1     1
SMALL
USER_CHARGES


@<TRIPOS>ATOM
      1 H           2.5769   -0.2102   -0.9134 H.spc      1 <1>        0.000
      2 O           3.9769   -0.0654   -0.6605 O.3        1 <1>        0.000
      3 C           4.8458   -0.8256   -1.3981 C.ar       1 <1>        0.000
      4 C           6.2248   -0.7233   -1.1793 C.ar       1 <1>        0.000
      5 C           7.1126   -1.5002   -1.9331 C.ar       1 <1>        0.000
      6 C           6.6215   -2.3793   -2.9057 C.ar       1 <1>        0.000
      7 C           5.2425   -2.4816   -3.1245 C.ar       1 <1>        0.000
      8 C           4.3546   -1.7047   -2.3707 C.ar       1 <1>        0.000
      9 C           7.5601   -3.2006   -3.7025 C.2        1 <1>        0.000
     10 O           8.7696   -3.1331   -3.4897 O.2        1 <1>        0.000
     11 H           7.0328   -4.1214   -4.7768 H.spc      1 <1>        0.000
     12 O           8.4621   -1.4002   -1.7190 O.3        1 <1>        0.000
     13 H           6.7545    0.2249   -0.1303 H.spc      1 <1>        0.000
     14 H           4.8601   -3.1661   -3.8817 H.spc      1 <1>        0.000
     15 H           3.2809   -1.7843   -2.5411 H.spc      1 <1>        0.000
     16 H           8.6281   -0.7586   -1.0245 H.spc      1 <1>        0.000
@<TRIPOS>BOND
     1    1    2 1  
     2    2    3 1  
     3    3    4 ar 
     4    4    5 ar 
     5    5    6 ar 
     6    6    7 ar 
     7    7    8 ar 
     8    8    3 ar 
     9    6    9 1  
    10    9   10 2  
    11    9   11 1  
    12    5   12 1  
    13    4   13 1  
    14    7   14 1  
    15    8   15 1  
    16   12   16 1  
