#	Name:			1,3,4-thiodiazole
#	Creating user name:	zmliu
#	Creation time:		Thu Mar 11 17:07:23 2004

#	Modifying user name:	zmliu
#	Modification time:	Thu Mar 11 17:07:35 2004

@<TRIPOS>MOLECULE
1,3,4-thiodiazole
    7     7     1     1     1
SMALL
GAST_HUCK


@<TRIPOS>ATOM
      1 S1          0.0000    1.4379    0.0000 S.3       1 THIODIAZOLE    0.0688 
      2 C1          1.1519    0.0940    0.0000 C.2       1 THIODIAZOLE    0.1887 
      3 N1          0.7110   -1.0987    0.0000 N.2       1 THIODIAZOLE   -0.2232 
      4 N2         -0.7110   -1.0986    0.0000 N.2       1 THIODIAZOLE   -0.2232 
      5 C2         -1.1518    0.0938    0.0000 C.2       1 THIODIAZOLE    0.1887 
      6 H1          2.2236    0.2858    0.0000 H.spc     1 THIODIAZOLE   -1.0000 
      7 H2         -2.2236    0.2858    0.0000 H.spc     1 THIODIAZOLE   -1.0000 
@<TRIPOS>BOND
     1    2    1 1    
     2    3    4 1    
     3    2    3 2    
     4    4    5 2    
     5    5    1 1    
     6    2    6 1    
     7    5    7 1    
@<TRIPOS>SUBSTRUCTURE
     1 THIODIAZOLE     1 PERM              0 ****  ****    0 ROOT 
@<TRIPOS>SET
LAB$A_TYPE      STATIC     ATOMS    LABELGROUP SYSTEM 
7 1 2 3 4 5 6 7
@<TRIPOS>NORMAL
@<TRIPOS>FF_PBC
FORCE_FIELD_SETUP_FEATURE Force Field Setup information
v1.0  0 0.000000 0.000000 0.000000 0.000000 0.000000 0.000000 NONE 2 0 0 0 0 0 0 0 0 0 0 0 0
