# Name:          seed_class_2_34_267/95646
# Creation time: Fri May 21 00:57:13 2010


@<TRIPOS>MOLECULE
seed_class_2_34_267/95646
   15    16     1     1     1
SMALL
USER_CHARGES


@<TRIPOS>ATOM
      1 N           2.1707    1.6012   -0.8981 N.pl3      1 <1>        0.000
      2 C           1.7468    0.6787    0.0068 C.ar       1 <1>        0.000
      3 N           2.7776    0.0206    0.5037 N.ar       1 <1>        0.000
      4 C           3.9554    0.5050   -0.0777 C.ar       1 <1>        0.000
      5 C           3.5810    1.5135   -0.9736 C.ar       1 <1>        0.000
      6 C           4.5578    2.1915   -1.7126 C.ar       1 <1>        0.000
      7 C           5.9092    1.8609   -1.5557 C.ar       1 <1>        0.000
      8 C           6.2836    0.8523   -0.6598 C.ar       1 <1>        0.000
      9 C           5.3068    0.1744    0.0792 C.ar       1 <1>        0.000
     10 H           7.6060    0.5288   -0.5063 H.spc      1 <1>        0.000
     11 H           0.3051    0.4413    0.3880 H.spc      1 <1>        0.000
     12 H           1.5785    2.2413   -1.4273 H.spc      1 <1>        0.000
     13 H           4.2662    2.9767   -2.4101 H.spc      1 <1>        0.000
     14 H           6.6698    2.3887   -2.1310 H.spc      1 <1>        0.000
     15 H           5.5984   -0.6108    0.7767 H.spc      1 <1>        0.000
@<TRIPOS>BOND
     1    1    2 ar 
     2    2    3 ar 
     3    3    4 ar 
     4    4    5 ar 
     5    5    1 ar 
     6    5    6 ar 
     7    6    7 ar 
     8    7    8 ar 
     9    8    9 ar 
    10    9    4 ar 
    11    8   10 1  
    12    2   11 1  
    13    1   12 1  
    14    6   13 1  
    15    7   14 1  
    16    9   15 1  
