# Name:          seed_class_4_183_166/38664
# Creation time: Fri May 21 00:57:15 2010


@<TRIPOS>MOLECULE
seed_class_4_183_166/38664
   20    21     1     1     1
SMALL
USER_CHARGES


@<TRIPOS>ATOM
      1 H           1.9789   -0.0355   -1.1250 H.spc      1 <1>        0.000
      2 C           2.0162    1.4140   -0.8287 C.2        1 <1>        0.000
      3 N           3.1012    2.0829   -1.1717 N.2        1 <1>        0.000
      4 C           3.3067    3.5220   -0.9533 C.3        1 <1>        0.000
      5 C           3.3402    3.6178    0.5533 C.2        1 <1>        0.000
      6 N           2.2879    3.3441    1.3192 N.am       1 <1>        0.000
      7 C           1.0101    2.9333    0.8710 C.ar       1 <1>        0.000
      8 C           0.8343    2.0121   -0.1685 C.ar       1 <1>        0.000
      9 C          -0.4564    1.6449   -0.5674 C.ar       1 <1>        0.000
     10 C          -1.5713    2.1988    0.0731 C.ar       1 <1>        0.000
     11 C          -1.3954    3.1200    1.1125 C.ar       1 <1>        0.000
     12 C          -0.1047    3.4873    1.5115 C.ar       1 <1>        0.000
     13 H          -2.8758    1.8276   -0.3301 H.spc      1 <1>        0.000
     14 O           4.3878    3.9645    1.0967 O.2        1 <1>        0.000
     15 H           2.5301    4.1393   -1.4049 H.spc      1 <1>        0.000
     16 H           4.2115    3.9026   -1.4273 H.spc      1 <1>        0.000
     17 H           2.4141    3.4395    2.3269 H.spc      1 <1>        0.000
     18 H          -0.5933    0.9277   -1.3767 H.spc      1 <1>        0.000
     19 H          -2.2634    3.5513    1.6112 H.spc      1 <1>        0.000
     20 H           0.0322    4.2045    2.3208 H.spc      1 <1>        0.000
@<TRIPOS>BOND
     1    1    2 1  
     2    2    3 2  
     3    3    4 1  
     4    4    5 1  
     5    5    6 am 
     6    6    7 1  
     7    7    8 ar 
     8    8    2 1  
     9    8    9 ar 
    10    9   10 ar 
    11   10   11 ar 
    12   11   12 ar 
    13   12    7 ar 
    14   10   13 1  
    15    5   14 2  
    16    4   15 1  
    17    4   16 1  
    18    6   17 1  
    19    9   18 1  
    20   11   19 1  
    21   12   20 1  
