# Name:          seed_class_3_115_43/26467
# Creation time: Fri May 21 00:57:14 2010


@<TRIPOS>MOLECULE
seed_class_3_115_43/26467
    6     5     1     1     1
SMALL
USER_CHARGES


@<TRIPOS>ATOM
      1 P           0.1741   -1.3298   -1.2949 P.3        1 <1>        0.000
      2 O           0.5940   -2.3039   -2.2980 O.2        1 <1>        0.000
      3 H           1.1510   -1.4623    0.0530 H.spc      1 <1>        0.000
      4 H           0.3032    0.2107   -1.9267 H.spc      1 <1>        0.000
      5 O          -1.3173   -1.6058   -0.8894 O.3        1 <1>        0.000
      6 H          -1.4839   -2.9030   -0.3110 H.spc      1 <1>        0.000
@<TRIPOS>BOND
     1    1    2 2  
     2    1    3 1  
     3    1    4 1  
     4    1    5 1  
     5    5    6 1  
