# Name:          seed_class_5_555_21/34898
# Creation time: Fri May 21 00:57:20 2010


@<TRIPOS>MOLECULE
seed_class_5_555_21/34898
   23    24     1     1     1
SMALL
USER_CHARGES


@<TRIPOS>ATOM
      1 H           3.7671    1.3242   -2.5623 H.spc      1 <1>        0.000
      2 C           5.0348    0.6392   -3.0139 C.ar       1 <1>        0.000
      3 C           6.2572    0.9620   -2.4127 C.ar       1 <1>        0.000
      4 C           7.4325    0.3269   -2.8314 C.ar       1 <1>        0.000
      5 C           7.3854   -0.6310   -3.8513 C.ar       1 <1>        0.000
      6 C           6.1629   -0.9538   -4.4525 C.ar       1 <1>        0.000
      7 C           4.9876   -0.3187   -4.0338 C.ar       1 <1>        0.000
      8 O           8.5355   -1.2525   -4.2610 O.3        1 <1>        0.000
      9 C           8.8771   -2.4349   -3.6591 C.ar       1 <1>        0.000
     10 C           9.6440   -2.4281   -2.4879 C.ar       1 <1>        0.000
     11 C           9.9932   -3.6363   -1.8728 C.ar       1 <1>        0.000
     12 C           9.5754   -4.8513   -2.4289 C.ar       1 <1>        0.000
     13 C           8.8085   -4.8580   -3.6002 C.ar       1 <1>        0.000
     14 C           8.4594   -3.6498   -4.2153 C.ar       1 <1>        0.000
     15 H           6.2939    1.7078   -1.6186 H.spc      1 <1>        0.000
     16 H           8.3842    0.5782   -2.3633 H.spc      1 <1>        0.000
     17 H           6.1262   -1.6996   -5.2466 H.spc      1 <1>        0.000
     18 H           4.0358   -0.5700   -4.5019 H.spc      1 <1>        0.000
     19 H           9.9692   -1.4821   -2.0549 H.spc      1 <1>        0.000
     20 H          10.5904   -3.6310   -0.9609 H.spc      1 <1>        0.000
     21 H           9.8472   -5.7920   -1.9500 H.spc      1 <1>        0.000
     22 H           8.4832   -5.8039   -4.0332 H.spc      1 <1>        0.000
     23 H           7.8624   -3.6551   -5.1272 H.spc      1 <1>        0.000
@<TRIPOS>BOND
     1    1    2 1  
     2    2    3 ar 
     3    3    4 ar 
     4    4    5 ar 
     5    5    6 ar 
     6    6    7 ar 
     7    7    2 ar 
     8    5    8 1  
     9    8    9 1  
    10    9   10 ar 
    11   10   11 ar 
    12   11   12 ar 
    13   12   13 ar 
    14   13   14 ar 
    15   14    9 ar 
    16    3   15 1  
    17    4   16 1  
    18    6   17 1  
    19    7   18 1  
    20   10   19 1  
    21   11   20 1  
    22   12   21 1  
    23   13   22 1  
    24   14   23 1  
