# Name:          seed_class_5_482_34/34898
# Creation time: Fri May 21 00:57:19 2010


@<TRIPOS>MOLECULE
seed_class_5_482_34/34898
   17    17     1     1     1
SMALL
USER_CHARGES


@<TRIPOS>ATOM
      1 Cl         15.9758   -2.8011   -1.7473 Cl         1 <1>        0.000
      2 C          16.0967   -1.7049   -0.4015 C.ar       1 <1>        0.000
      3 C          17.3469   -1.4247    0.1630 C.ar       1 <1>        0.000
      4 C          17.4442   -0.5428    1.2459 C.ar       1 <1>        0.000
      5 C          16.2914    0.0591    1.7643 C.ar       1 <1>        0.000
      6 C          15.0412   -0.2211    1.1999 C.ar       1 <1>        0.000
      7 C          14.9439   -1.1031    0.1170 C.ar       1 <1>        0.000
      8 O          13.7205   -1.3772   -0.4354 O.3        1 <1>        0.000
      9 H          13.6706   -2.2841   -1.5399 H.spc      1 <1>        0.000
     10 C          13.8225    0.4151    1.7479 C.2        1 <1>        0.000
     11 O          13.7681    0.7117    2.9300 O.2        1 <1>        0.000
     12 O          12.7710    0.6674    0.9397 O.3        1 <1>        0.000
     13 H          11.6154    1.2834    1.5140 H.spc      1 <1>        0.000
     14 H          16.3963    1.0103    2.9323 H.spc      1 <1>        0.000
     15 Cl         18.9980   -0.1946    1.9475 Cl         1 <1>        0.000
     16 O          18.4750   -2.0137   -0.3443 O.3        1 <1>        0.000
     17 H          19.2408   -1.7168    0.1527 H.spc      1 <1>        0.000
@<TRIPOS>BOND
     1    1    2 1  
     2    2    3 ar 
     3    3    4 ar 
     4    4    5 ar 
     5    5    6 ar 
     6    6    7 ar 
     7    7    2 ar 
     8    7    8 1  
     9    8    9 1  
    10    6   10 1  
    11   10   11 2  
    12   10   12 1  
    13   12   13 1  
    14    5   14 1  
    15    4   15 1  
    16    3   16 1  
    17   16   17 1  
