# Name:          seed_class_4_329_25/38664
# Creation time: Fri May 21 00:57:17 2010


@<TRIPOS>MOLECULE
seed_class_4_329_25/38664
   18    19     1     1     1
SMALL
USER_CHARGES


@<TRIPOS>ATOM
      1 N           0.9329   -1.8930   -0.5004 N.pl3      1 <1>        0.000
      2 C           0.1427   -1.2423   -1.5554 C.3        1 <1>        0.000
      3 C           1.0710   -0.1834   -2.1787 C.3        1 <1>        0.000
      4 C           2.3674   -0.3060   -1.4133 C.ar       1 <1>        0.000
      5 C           2.2236   -1.3151   -0.4535 C.ar       1 <1>        0.000
      6 C           3.2909   -1.6306    0.3958 C.ar       1 <1>        0.000
      7 C           4.5020   -0.9370    0.2854 C.ar       1 <1>        0.000
      8 C           4.6458    0.0720   -0.6744 C.ar       1 <1>        0.000
      9 C           3.5786    0.3875   -1.5237 C.ar       1 <1>        0.000
     10 H           5.9262    0.8052   -0.7911 H.spc      1 <1>        0.000
     11 H          -1.0822   -0.5640   -0.9435 H.spc      1 <1>        0.000
     12 H           0.6020   -2.6448    0.1043 H.spc      1 <1>        0.000
     13 H          -0.2096   -1.9588   -2.2974 H.spc      1 <1>        0.000
     14 H           0.6497    0.8191   -2.1042 H.spc      1 <1>        0.000
     15 H           1.2138   -0.3480   -3.2467 H.spc      1 <1>        0.000
     16 H           3.1790   -2.4163    1.1430 H.spc      1 <1>        0.000
     17 H           5.3329   -1.1826    0.9467 H.spc      1 <1>        0.000
     18 H           3.6906    1.1731   -2.2710 H.spc      1 <1>        0.000
@<TRIPOS>BOND
     1    1    2 1  
     2    2    3 1  
     3    3    4 1  
     4    4    5 ar 
     5    5    1 1  
     6    5    6 ar 
     7    6    7 ar 
     8    7    8 ar 
     9    8    9 ar 
    10    9    4 ar 
    11    8   10 1  
    12    2   11 1  
    13    1   12 1  
    14    2   13 1  
    15    3   14 1  
    16    3   15 1  
    17    6   16 1  
    18    7   17 1  
    19    9   18 1  
