# Name:          seed_class_2_70_32/95646
# Creation time: Fri May 21 00:57:14 2010


@<TRIPOS>MOLECULE
seed_class_2_70_32/95646
   14    13     1     1     1
SMALL
USER_CHARGES


@<TRIPOS>ATOM
      1 N          -7.5908   -2.7037   -2.4255 N.pl3      1 <1>        0.000
      2 H          -9.0417   -2.6368   -2.1988 H.spc      1 <1>        0.000
      3 C          -6.7410   -2.0503   -1.5886 C.cat      1 <1>        0.000
      4 N          -7.2198   -1.3418   -0.5831 N.pl3      1 <1>        0.000
      5 N          -5.3978   -2.1270   -1.7876 N.pl3      1 <1>        0.000
      6 C          -4.5475   -1.4819   -0.9447 C.cat      1 <1>        0.000
      7 N          -5.0255   -0.7894    0.0723 N.pl3      1 <1>        0.000
      8 N          -3.2048   -1.5503   -1.1497 N.pl3      1 <1>        0.000
      9 H          -2.2867   -0.8369   -0.2502 H.spc      1 <1>        0.000
     10 H          -7.2214   -3.2402   -3.2105 H.spc      1 <1>        0.000
     11 H          -6.5824   -0.8518    0.0447 H.spc      1 <1>        0.000
     12 H          -5.0281   -2.6684   -2.5690 H.spc      1 <1>        0.000
     13 H          -6.0326   -0.7381    0.2260 H.spc      1 <1>        0.000
     14 H          -2.8348   -2.0966   -1.9276 H.spc      1 <1>        0.000
@<TRIPOS>BOND
     1    1    2 1  
     2    1    3 ar 
     3    3    4 ar 
     4    3    5 ar 
     5    5    6 ar 
     6    6    7 ar 
     7    6    8 ar 
     8    8    9 1  
     9    1   10 1  
    10    4   11 1  
    11    5   12 1  
    12    7   13 1  
    13    8   14 1  
