# Name:          seed_class_4_309_28/38664
# Creation time: Fri May 21 00:57:17 2010


@<TRIPOS>MOLECULE
seed_class_4_309_28/38664
   11    11     1     1     1
SMALL
USER_CHARGES


@<TRIPOS>ATOM
      1 N           2.7327    1.4001   -0.2015 N.3        1 <1>        0.000
      2 C           2.4691   -0.0433   -0.1122 C.3        1 <1>        0.000
      3 C           3.6662   -0.1752    0.8476 C.3        1 <1>        0.000
      4 C           4.0544    1.2540    0.4253 C.3        1 <1>        0.000
      5 H           1.1174   -0.4085    0.4996 H.spc      1 <1>        0.000
      6 H           2.0622    2.0479    0.2123 H.spc      1 <1>        0.000
      7 H           2.4019   -0.6566   -1.0107 H.spc      1 <1>        0.000
      8 H           4.3690   -1.0056    0.7790 H.spc      1 <1>        0.000
      9 H           3.5360   -0.4497    1.8944 H.spc      1 <1>        0.000
     10 H           4.9633    1.4351   -0.1485 H.spc      1 <1>        0.000
     11 H           4.4003    1.9761    1.1649 H.spc      1 <1>        0.000
@<TRIPOS>BOND
     1    1    2 1  
     2    2    3 1  
     3    3    4 1  
     4    4    1 1  
     5    2    5 1  
     6    1    6 1  
     7    2    7 1  
     8    3    8 1  
     9    3    9 1  
    10    4   10 1  
    11    4   11 1  
