# Name:          seed_class_3_118_39/26467
# Creation time: Fri May 21 00:57:15 2010


@<TRIPOS>MOLECULE
seed_class_3_118_39/26467
    6     5     1     1     1
SMALL
USER_CHARGES


@<TRIPOS>ATOM
      1 H          -3.2848   -0.3769    1.8025 H.spc      1 <1>        0.000
      2 N          -4.0157    0.8040    2.2843 N.3        1 <1>        0.000
      3 N          -5.4396    0.6199    2.0544 N.3        1 <1>        0.000
      4 H          -3.6943    1.6313    1.7815 H.spc      1 <1>        0.000
      5 H          -5.9456    1.4399    2.3891 H.spc      1 <1>        0.000
      6 H          -5.6087    0.4987    1.0558 H.spc      1 <1>        0.000
@<TRIPOS>BOND
     1    1    2 1  
     2    2    3 1  
     3    2    4 1  
     4    3    5 1  
     5    3    6 1  
