# Name:          seed_class_4_200_109/38664
# Creation time: Fri May 21 00:57:15 2010


@<TRIPOS>MOLECULE
seed_class_4_200_109/38664
   19    19     1     1     1
SMALL
USER_CHARGES


@<TRIPOS>ATOM
      1 N           0.8610   -3.4008    0.0483 N.am       1 <1>        0.000
      2 C           0.2652   -2.6315    1.1501 C.3        1 <1>        0.000
      3 C          -1.0470   -1.9282    0.7562 C.3        1 <1>        0.000
      4 C          -2.0289   -2.9310    0.1232 C.3        1 <1>        0.000
      5 C          -1.3720   -3.7053   -1.0345 C.3        1 <1>        0.000
      6 C          -0.0501   -4.3601   -0.5925 C.3        1 <1>        0.000
      7 H          -3.2569   -2.2061   -0.3733 H.spc      1 <1>        0.000
      8 C           2.1237   -3.2416   -0.3380 C.2        1 <1>        0.000
      9 O           2.4351   -3.4262   -1.5135 O.2        1 <1>        0.000
     10 H           3.1749   -2.8344    0.6666 H.spc      1 <1>        0.000
     11 H           0.9796   -1.8610    1.4400 H.spc      1 <1>        0.000
     12 H           0.0378   -3.3293    1.9560 H.spc      1 <1>        0.000
     13 H          -0.8247   -1.1452    0.0312 H.spc      1 <1>        0.000
     14 H          -1.5029   -1.5034    1.6506 H.spc      1 <1>        0.000
     15 H          -2.3164   -3.6507    0.8897 H.spc      1 <1>        0.000
     16 H          -1.1588   -3.0055   -1.8425 H.spc      1 <1>        0.000
     17 H          -2.0558   -4.4897   -1.3588 H.spc      1 <1>        0.000
     18 H           0.4446   -4.7554   -1.4797 H.spc      1 <1>        0.000
     19 H          -0.2847   -5.1396    0.1324 H.spc      1 <1>        0.000
@<TRIPOS>BOND
     1    1    2 1  
     2    2    3 1  
     3    3    4 1  
     4    4    5 1  
     5    5    6 1  
     6    6    1 1  
     7    4    7 1  
     8    1    8 am 
     9    8    9 2  
    10    8   10 1  
    11    2   11 1  
    12    2   12 1  
    13    3   13 1  
    14    3   14 1  
    15    4   15 1  
    16    5   16 1  
    17    5   17 1  
    18    6   18 1  
    19    6   19 1  
