# Name:          seed_class_4_340_24/38664
# Creation time: Fri May 21 00:57:17 2010


@<TRIPOS>MOLECULE
seed_class_4_340_24/38664
   16    16     1     1     1
SMALL
USER_CHARGES


@<TRIPOS>ATOM
      1 N          -1.3672   -0.0971    0.4589 N.pl3      1 <1>        0.000
      2 C          -0.2819   -0.6948    1.2499 C.3        1 <1>        0.000
      3 C           0.9497   -1.0420    0.3929 C.3        1 <1>        0.000
      4 N           1.3452    0.0844   -0.4647 N.pl3      1 <1>        0.000
      5 C           0.2721    0.6904   -1.2660 C.3        1 <1>        0.000
      6 C          -0.9556    1.0239   -0.3983 C.3        1 <1>        0.000
      7 H           2.7111    0.5685   -0.5170 H.spc      1 <1>        0.000
      8 H          -2.7348   -0.5752    0.5195 H.spc      1 <1>        0.000
      9 H          -0.6563   -1.6187    1.6907 H.spc      1 <1>        0.000
     10 H           0.0256    0.0316    2.0021 H.spc      1 <1>        0.000
     11 H           0.6984   -1.8895   -0.2449 H.spc      1 <1>        0.000
     12 H           1.7794   -1.2755    1.0601 H.spc      1 <1>        0.000
     13 H          -0.0299   -0.0206   -2.0350 H.spc      1 <1>        0.000
     14 H           0.6474    1.6147   -1.7053 H.spc      1 <1>        0.000
     15 H          -1.7847    1.2553   -1.0670 H.spc      1 <1>        0.000
     16 H          -0.6903    1.8598    0.2490 H.spc      1 <1>        0.000
@<TRIPOS>BOND
     1    1    2 1  
     2    2    3 1  
     3    3    4 1  
     4    4    5 1  
     5    5    6 1  
     6    6    1 1  
     7    4    7 1  
     8    1    8 1  
     9    2    9 1  
    10    2   10 1  
    11    3   11 1  
    12    3   12 1  
    13    5   13 1  
    14    5   14 1  
    15    6   15 1  
    16    6   16 1  
