# Name:          seed_class_4_352_22/38664
# Creation time: Fri May 21 00:57:18 2010


@<TRIPOS>MOLECULE
seed_class_4_352_22/38664
   25    26     1     1     1
SMALL
USER_CHARGES


@<TRIPOS>ATOM
      1 H           6.2920    2.2447   -0.3996 H.spc      1 <1>        0.000
      2 C           6.9369    3.5199   -0.3442 C.3        1 <1>        0.000
      3 C           8.0943    3.5321   -1.3140 C.2        1 <1>        0.000
      4 C           8.9365    4.5695   -1.4133 C.2        1 <1>        0.000
      5 C          10.3802    4.4940   -1.0965 C.2        1 <1>        0.000
      6 C          10.8852    3.1464   -0.6385 C.3        1 <1>        0.000
      7 C          10.0386    1.9297   -1.0596 C.3        1 <1>        0.000
      8 C           8.7158    2.2498   -1.7138 C.2        1 <1>        0.000
      9 C           8.1409    1.4252   -2.5999 C.2        1 <1>        0.000
     10 H           8.8174    0.1279   -2.9732 H.spc      1 <1>        0.000
     11 C          10.0059    0.7806   -0.1594 C.1        1 <1>        0.000
     12 C           9.3377    0.3011    0.7144 C.1        1 <1>        0.000
     13 C           8.1181    0.5369    1.4624 C.2        1 <1>        0.000
     14 C           7.3685    1.5424    1.9343 C.2        1 <1>        0.000
     15 C           7.7477    2.9401    1.8617 C.1        1 <1>        0.000
     16 C           7.4756    3.7263    0.9970 C.1        1 <1>        0.000
     17 H          10.8935    1.4050   -2.0788 H.spc      1 <1>        0.000
     18 O          11.1231    5.4688   -1.1998 O.2        1 <1>        0.000
     19 H           8.4349    5.7629   -1.8302 H.spc      1 <1>        0.000
     20 H           6.2176    4.2999   -0.5939 H.spc      1 <1>        0.000
     21 H          10.8700    3.1678    0.4512 H.spc      1 <1>        0.000
     22 H          11.8638    3.0131   -1.0998 H.spc      1 <1>        0.000
     23 H           7.1850    1.6909   -3.0512 H.spc      1 <1>        0.000
     24 H           7.6612   -0.4164    1.7279 H.spc      1 <1>        0.000
     25 H           6.4153    1.2945    2.4013 H.spc      1 <1>        0.000
@<TRIPOS>BOND
     1    1    2 1  
     2    2    3 1  
     3    3    4 2  
     4    4    5 1  
     5    5    6 1  
     6    6    7 1  
     7    7    8 1  
     8    8    3 1  
     9    8    9 2  
    10    9   10 1  
    11    7   11 1  
    12   11   12 3  
    13   12   13 1  
    14   13   14 2  
    15   14   15 1  
    16   15   16 3  
    17   16    2 1  
    18    7   17 1  
    19    5   18 2  
    20    4   19 1  
    21    2   20 1  
    22    6   21 1  
    23    6   22 1  
    24    9   23 1  
    25   13   24 1  
    26   14   25 1  
