# Name:          seed_class_2_25_676/95646
# Creation time: Fri May 21 00:57:13 2010


@<TRIPOS>MOLECULE
seed_class_2_25_676/95646
   18    19     1     1     1
SMALL
USER_CHARGES


@<TRIPOS>ATOM
      1 H          -1.9543   -1.2630    1.8306 H.spc      1 <1>        0.000
      2 C          -1.0886   -0.4274    1.1754 C.ar       1 <1>        0.000
      3 C           0.2681   -0.4147    1.5204 C.ar       1 <1>        0.000
      4 C           1.1527    0.4392    0.8509 C.ar       1 <1>        0.000
      5 C           0.6806    1.2803   -0.1638 C.ar       1 <1>        0.000
      6 C          -0.6761    1.2676   -0.5089 C.ar       1 <1>        0.000
      7 C          -1.5608    0.4137    0.1607 C.ar       1 <1>        0.000
      8 C           1.5652    2.1342   -0.8334 C.ar       1 <1>        0.000
      9 C           2.9220    2.1469   -0.4883 C.ar       1 <1>        0.000
     10 C           3.3941    1.3058    0.5264 C.ar       1 <1>        0.000
     11 C           2.5095    0.4519    1.1959 C.ar       1 <1>        0.000
     12 H           4.8574    1.3195    0.8986 H.spc      1 <1>        0.000
     13 H           0.6357   -1.0697    2.3103 H.spc      1 <1>        0.000
     14 H          -1.0437    1.9225   -1.2989 H.spc      1 <1>        0.000
     15 H          -2.6171    0.4038   -0.1080 H.spc      1 <1>        0.000
     16 H           1.1976    2.7891   -1.6234 H.spc      1 <1>        0.000
     17 H           3.6108    2.8117   -1.0097 H.spc      1 <1>        0.000
     18 H           2.8771   -0.2031    1.9858 H.spc      1 <1>        0.000
@<TRIPOS>BOND
     1    1    2 1  
     2    2    3 ar 
     3    3    4 ar 
     4    4    5 ar 
     5    5    6 ar 
     6    6    7 ar 
     7    7    2 ar 
     8    5    8 ar 
     9    8    9 ar 
    10    9   10 ar 
    11   10   11 ar 
    12   11    4 ar 
    13   10   12 1  
    14    3   13 1  
    15    6   14 1  
    16    7   15 1  
    17    8   16 1  
    18    9   17 1  
    19   11   18 1  
