# Name:          seed_class_4_303_30/38664
# Creation time: Fri May 21 00:57:17 2010


@<TRIPOS>MOLECULE
seed_class_4_303_30/38664
    8     8     1     1     1
SMALL
USER_CHARGES


@<TRIPOS>ATOM
      1 N          -2.3634   -0.4015    1.4388 N.3        1 <1>        0.000
      2 C          -3.7330   -0.6645    1.1601 C.3        1 <1>        0.000
      3 C          -2.9440   -1.5295    2.0816 C.3        1 <1>        0.000
      4 H          -1.3959   -0.6644    0.3638 H.spc      1 <1>        0.000
      5 H          -4.4040   -0.7560    0.3060 H.spc      1 <1>        0.000
      6 H          -4.6889   -0.1418    1.1265 H.spc      1 <1>        0.000
      7 H          -2.7354   -2.5853    2.2548 H.spc      1 <1>        0.000
      8 H          -3.0203   -1.9711    3.0752 H.spc      1 <1>        0.000
@<TRIPOS>BOND
     1    1    2 1  
     2    2    3 1  
     3    3    1 1  
     4    1    4 1  
     5    2    5 1  
     6    2    6 1  
     7    3    7 1  
     8    3    8 1  
