# Name:          seed_class_5_539_23/34898
# Creation time: Fri May 21 00:57:20 2010


@<TRIPOS>MOLECULE
seed_class_5_539_23/34898
   19    19     1     1     1
SMALL
USER_CHARGES


@<TRIPOS>ATOM
      1 H           2.0246    2.5582   -1.0513 H.spc      1 <1>        0.000
      2 N           3.4341    2.3172   -1.3920 N.am       1 <1>        0.000
      3 C           4.3802    2.4969   -0.4747 C.2        1 <1>        0.000
      4 O           4.0639    2.7188    0.7141 O.2        1 <1>        0.000
      5 N           5.6627    2.4405   -0.8222 N.am       1 <1>        0.000
      6 C           6.1182    2.6370   -2.2059 C.3        1 <1>        0.000
      7 C           7.3517    3.5536   -2.3054 C.3        1 <1>        0.000
      8 O           8.3800    3.1101   -1.4160 O.3        1 <1>        0.000
      9 C           7.9415    3.1129   -0.0549 C.3        1 <1>        0.000
     10 C           6.7356    2.1767    0.1475 C.3        1 <1>        0.000
     11 H           3.6866    2.0121   -2.3320 H.spc      1 <1>        0.000
     12 H           5.3068    3.1089   -2.7600 H.spc      1 <1>        0.000
     13 H           6.3943    1.6620   -2.6075 H.spc      1 <1>        0.000
     14 H           7.0613    4.5681   -2.0324 H.spc      1 <1>        0.000
     15 H           7.7314    3.5259   -3.3268 H.spc      1 <1>        0.000
     16 H           7.6417    4.1267    0.2106 H.spc      1 <1>        0.000
     17 H           8.7606    2.7639    0.5739 H.spc      1 <1>        0.000
     18 H           6.3384    2.3450    1.1485 H.spc      1 <1>        0.000
     19 H           7.0748    1.1501    0.0088 H.spc      1 <1>        0.000
@<TRIPOS>BOND
     1    1    2 1  
     2    2    3 am 
     3    3    4 2  
     4    3    5 am 
     5    5    6 1  
     6    6    7 1  
     7    7    8 1  
     8    8    9 1  
     9    9   10 1  
    10   10    5 1  
    11    2   11 1  
    12    6   12 1  
    13    6   13 1  
    14    7   14 1  
    15    7   15 1  
    16    9   16 1  
    17    9   17 1  
    18   10   18 1  
    19   10   19 1  
