# Name:          seed_class_3_126_34/26467
# Creation time: Fri May 21 00:57:15 2010


@<TRIPOS>MOLECULE
seed_class_3_126_34/26467
   18    17     1     1     1
SMALL
USER_CHARGES


@<TRIPOS>ATOM
      1 H           3.8624   -1.1765   -0.1854 H.spc      1 <1>        0.000
      2 C           2.5464   -1.1876    0.4916 C.2        1 <1>        0.000
      3 C           1.5836   -0.3424    0.0986 C.2        1 <1>        0.000
      4 C           0.2676   -0.3535    0.7756 C.2        1 <1>        0.000
      5 C          -0.4367    0.7808    0.8896 C.2        1 <1>        0.000
      6 C          -1.7528    0.7697    1.5666 C.2        1 <1>        0.000
      7 C          -2.8487    1.1698    0.9074 C.2        1 <1>        0.000
      8 C          -4.1647    1.1588    1.5844 C.2        1 <1>        0.000
      9 C          -5.2596    1.5652    0.9274 C.2        1 <1>        0.000
     10 H          -6.6023    1.5539    1.6181 H.spc      1 <1>        0.000
     11 H          -4.2737    0.6895    3.0155 H.spc      1 <1>        0.000
     12 H          -0.2814   -1.6429    1.3377 H.spc      1 <1>        0.000
     13 H           2.3603   -1.8832    1.3099 H.spc      1 <1>        0.000
     14 H           1.7697    0.3532   -0.7197 H.spc      1 <1>        0.000
     15 H          -0.0404    1.7116    0.4838 H.spc      1 <1>        0.000
     16 H          -1.8306    0.4361    2.6014 H.spc      1 <1>        0.000
     17 H          -2.7709    1.5033   -0.1274 H.spc      1 <1>        0.000
     18 H          -5.1810    1.9039   -0.1056 H.spc      1 <1>        0.000
@<TRIPOS>BOND
     1    1    2 1  
     2    2    3 2  
     3    3    4 1  
     4    4    5 2  
     5    5    6 1  
     6    6    7 2  
     7    7    8 1  
     8    8    9 2  
     9    9   10 1  
    10    8   11 1  
    11    4   12 1  
    12    2   13 1  
    13    3   14 1  
    14    5   15 1  
    15    6   16 1  
    16    7   17 1  
    17    9   18 1  
