# Name:          seed_class_4_366_20/38664
# Creation time: Fri May 21 00:57:18 2010


@<TRIPOS>MOLECULE
seed_class_4_366_20/38664
   21    22     1     1     1
SMALL
USER_CHARGES


@<TRIPOS>ATOM
      1 H           4.4117    0.2407   -2.6343 H.spc      1 <1>        0.000
      2 C           3.3705    0.8607   -1.8751 C.3        1 <1>        0.000
      3 O           3.2311    0.1511   -0.6414 O.3        1 <1>        0.000
      4 C           2.1135    0.5723    0.0298 C.2        1 <1>        0.000
      5 C           0.9284    0.7560   -0.5680 C.2        1 <1>        0.000
      6 C           0.8310    0.4835   -2.0500 C.3        1 <1>        0.000
      7 C           2.1143    0.9511   -2.7614 C.3        1 <1>        0.000
      8 C           1.7619    2.2414   -3.5245 C.3        1 <1>        0.000
      9 C           0.2306    2.1860   -3.6792 C.3        1 <1>        0.000
     10 C          -0.2733    1.4996   -2.3960 C.3        1 <1>        0.000
     11 H          -1.5203    0.8389   -2.6269 H.spc      1 <1>        0.000
     12 H          -0.1351    1.4292   -4.8361 H.spc      1 <1>        0.000
     13 H           2.4648    2.3082   -4.8774 H.spc      1 <1>        0.000
     14 H          -0.2504    1.2126    0.2016 H.spc      1 <1>        0.000
     15 H           3.5890    1.8891   -1.5874 H.spc      1 <1>        0.000
     16 H           2.1919    0.7670    1.0994 H.spc      1 <1>        0.000
     17 H           0.6661   -0.5599   -2.3189 H.spc      1 <1>        0.000
     18 H           2.4669    0.2708   -3.5366 H.spc      1 <1>        0.000
     19 H           2.0904    3.1358   -2.9950 H.spc      1 <1>        0.000
     20 H          -0.2036    3.1771   -3.8108 H.spc      1 <1>        0.000
     21 H          -0.4540    2.2088   -1.5883 H.spc      1 <1>        0.000
@<TRIPOS>BOND
     1    2    1 1  
     2    2    3 1  
     3    3    4 1  
     4    4    5 2  
     5    5    6 1  
     6    6    7 1  
     7    7    2 1  
     8    7    8 1  
     9    8    9 1  
    10    9   10 1  
    11   10    6 1  
    12   10   11 1  
    13    9   12 1  
    14    8   13 1  
    15    5   14 1  
    16    2   15 1  
    17    4   16 1  
    18    6   17 1  
    19    7   18 1  
    20    8   19 1  
    21    9   20 1  
    22   10   21 1  
