# Name:          seed_class_5_425_66/34898
# Creation time: Fri May 21 00:57:18 2010


@<TRIPOS>MOLECULE
seed_class_5_425_66/34898
   26    27     1     1     1
SMALL
USER_CHARGES


@<TRIPOS>ATOM
      1 H           0.6620   -0.1771    2.7242 H.spc      1 <1>        0.000
      2 C          -0.8213    0.0175    2.9294 C.ar       1 <1>        0.000
      3 C          -1.3874    1.2894    2.7816 C.ar       1 <1>        0.000
      4 C          -2.7626    1.4699    2.9719 C.ar       1 <1>        0.000
      5 C          -3.5717    0.3785    3.3100 C.ar       1 <1>        0.000
      6 C          -3.0056   -0.8933    3.4578 C.ar       1 <1>        0.000
      7 C          -1.6303   -1.0738    3.2675 C.ar       1 <1>        0.000
      8 N          -4.9617    0.5609    3.5023 N.pl3      1 <1>        0.000
      9 C          -5.9458    0.3310    2.4348 C.3        1 <1>        0.000
     10 C          -7.1430   -0.5204    2.8965 C.3        1 <1>        0.000
     11 N          -7.7303    0.0374    4.1234 N.3        1 <1>        0.000
     12 C          -6.7383    0.1323    5.2041 C.3        1 <1>        0.000
     13 C          -5.5334    0.9951    4.7850 C.3        1 <1>        0.000
     14 H          -0.7575    2.1391    2.5184 H.spc      1 <1>        0.000
     15 H          -3.2034    2.4601    2.8568 H.spc      1 <1>        0.000
     16 H          -3.6355   -1.7430    3.7210 H.spc      1 <1>        0.000
     17 H          -1.1895   -2.0640    3.3826 H.spc      1 <1>        0.000
     18 H          -5.4447   -0.2076    1.6305 H.spc      1 <1>        0.000
     19 H          -6.3292    1.3018    2.1207 H.spc      1 <1>        0.000
     20 H          -6.7987   -1.5347    3.0986 H.spc      1 <1>        0.000
     21 H          -7.8993   -0.5224    2.1115 H.spc      1 <1>        0.000
     22 H          -8.4824   -0.5797    4.4299 H.spc      1 <1>        0.000
     23 H          -6.3819   -0.8712    5.4365 H.spc      1 <1>        0.000
     24 H          -7.2120    0.5955    6.0696 H.spc      1 <1>        0.000
     25 H          -4.7634    0.8984    5.5504 H.spc      1 <1>        0.000
     26 H          -5.8745    2.0244    4.6741 H.spc      1 <1>        0.000
@<TRIPOS>BOND
     1    1    2 1  
     2    2    3 ar 
     3    3    4 ar 
     4    4    5 ar 
     5    5    6 ar 
     6    6    7 ar 
     7    7    2 ar 
     8    5    8 1  
     9    8    9 1  
    10    9   10 1  
    11   10   11 1  
    12   11   12 1  
    13   12   13 1  
    14   13    8 1  
    15    3   14 1  
    16    4   15 1  
    17    6   16 1  
    18    7   17 1  
    19    9   18 1  
    20    9   19 1  
    21   10   20 1  
    22   10   21 1  
    23   11   22 1  
    24   12   23 1  
    25   12   24 1  
    26   13   25 1  
    27   13   26 1  
