# Name:          seed_class_4_245_50/38664
# Creation time: Fri May 21 00:57:16 2010


@<TRIPOS>MOLECULE
seed_class_4_245_50/38664
   10    10     1     1     1
SMALL
USER_CHARGES


@<TRIPOS>ATOM
      1 N           3.2264    0.1594    1.1889 N.pl3      1 <1>        0.000
      2 N           3.2761    1.5153    1.4908 N.am       1 <1>        0.000
      3 C           2.1161    1.8771    2.0316 C.2        1 <1>        0.000
      4 C           1.2737    0.6609    2.0737 C.2        1 <1>        0.000
      5 C           2.0097   -0.3290    1.5504 C.2        1 <1>        0.000
      6 H           1.5592   -1.7610    1.3877 H.spc      1 <1>        0.000
      7 H           0.0032    0.5667    2.5497 H.spc      1 <1>        0.000
      8 O           1.8045    3.0017    2.4203 O.2        1 <1>        0.000
      9 H           4.3798    2.3704    1.2606 H.spc      1 <1>        0.000
     10 H           4.3127   -0.6201    0.5781 H.spc      1 <1>        0.000
@<TRIPOS>BOND
     1    1    2 1  
     2    2    3 am 
     3    3    4 1  
     4    4    5 2  
     5    5    1 1  
     6    5    6 1  
     7    4    7 1  
     8    3    8 2  
     9    2    9 1  
    10    1   10 1  
