# Name:          seed_class_4_358_21/38664
# Creation time: Fri May 21 00:57:18 2010


@<TRIPOS>MOLECULE
seed_class_4_358_21/38664
   23    24     1     1     1
SMALL
USER_CHARGES


@<TRIPOS>ATOM
      1 H           4.6545    2.9941   -0.0239 H.spc      1 <1>        0.000
      2 C           3.7979    2.2802   -0.9191 C.3        1 <1>        0.000
      3 C           2.7804    3.2312   -1.5763 C.3        1 <1>        0.000
      4 C           1.6207    3.3059   -0.5658 C.3        1 <1>        0.000
      5 C           0.4823    2.9680   -1.5562 C.3        1 <1>        0.000
      6 C          -0.4660    2.0905   -0.7746 C.2        1 <1>        0.000
      7 C           0.2845    1.5149    0.4024 C.3        1 <1>        0.000
      8 C           1.7237    2.0582    0.3310 C.3        1 <1>        0.000
      9 C           2.9432    1.2526   -0.1541 C.3        1 <1>        0.000
     10 H           3.7030    0.6394    0.9977 H.spc      1 <1>        0.000
     11 C          -1.7520    1.8619   -1.0740 C.2        1 <1>        0.000
     12 H          -2.5822    0.9565   -0.1959 H.spc      1 <1>        0.000
     13 H           4.4487    1.8058   -1.6536 H.spc      1 <1>        0.000
     14 H           2.4523    2.8706   -2.5512 H.spc      1 <1>        0.000
     15 H           3.2091    4.2120   -1.7818 H.spc      1 <1>        0.000
     16 H           1.5502    4.2124    0.0353 H.spc      1 <1>        0.000
     17 H           0.8575    2.4648   -2.4473 H.spc      1 <1>        0.000
     18 H          -0.0109    3.8664   -1.9274 H.spc      1 <1>        0.000
     19 H           0.2821    0.4255    0.3649 H.spc      1 <1>        0.000
     20 H          -0.1900    1.8042    1.3401 H.spc      1 <1>        0.000
     21 H           1.9836    2.1397    1.3864 H.spc      1 <1>        0.000
     22 H           2.6563    0.4077   -0.7801 H.spc      1 <1>        0.000
     23 H          -2.1988    2.3295   -1.9514 H.spc      1 <1>        0.000
@<TRIPOS>BOND
     1    2    1 1  
     2    2    3 1  
     3    3    4 1  
     4    4    5 1  
     5    5    6 1  
     6    6    7 1  
     7    7    8 1  
     8    8    4 1  
     9    8    9 1  
    10    9    2 1  
    11    9   10 1  
    12    6   11 2  
    13   11   12 1  
    14    2   13 1  
    15    3   14 1  
    16    3   15 1  
    17    4   16 1  
    18    5   17 1  
    19    5   18 1  
    20    7   19 1  
    21    7   20 1  
    22    8   21 1  
    23    9   22 1  
    24   11   23 1  
