# Name:          seed_class_5_424_68/34898
# Creation time: Fri May 21 00:57:18 2010


@<TRIPOS>MOLECULE
seed_class_5_424_68/34898
   27    28     1     1     1
SMALL
USER_CHARGES


@<TRIPOS>ATOM
      1 H          -0.1935   -0.5531   -3.0398 H.spc      1 <1>        0.000
      2 N          -1.2690   -1.3541   -2.4377 N.3        1 <1>        0.000
      3 C          -2.4310   -1.3700   -3.3381 C.3        1 <1>        0.000
      4 C          -3.5855   -2.1775   -2.7180 C.3        1 <1>        0.000
      5 N          -3.9125   -1.7487   -1.3505 N.pl3      1 <1>        0.000
      6 C          -2.7540   -1.5961   -0.4585 C.3        1 <1>        0.000
      7 C          -1.6138   -0.8003   -1.1204 C.3        1 <1>        0.000
      8 C          -5.2394   -1.5019   -0.9257 C.ar       1 <1>        0.000
      9 C          -5.8033   -0.2315   -1.0935 C.ar       1 <1>        0.000
     10 C          -7.1163    0.0126   -0.6732 C.ar       1 <1>        0.000
     11 C          -7.8653   -1.0136   -0.0852 C.ar       1 <1>        0.000
     12 C          -7.3014   -2.2840    0.0826 C.ar       1 <1>        0.000
     13 C          -5.9885   -2.5282   -0.3377 C.ar       1 <1>        0.000
     14 O          -5.0704    0.7727   -1.6690 O.3        1 <1>        0.000
     15 H          -5.6808    2.0592   -1.7996 H.spc      1 <1>        0.000
     16 H          -2.1413   -1.8346   -4.2806 H.spc      1 <1>        0.000
     17 H          -2.7648   -0.3454   -3.5023 H.spc      1 <1>        0.000
     18 H          -3.2762   -3.2218   -2.6748 H.spc      1 <1>        0.000
     19 H          -4.4699   -2.0230   -3.3361 H.spc      1 <1>        0.000
     20 H          -2.3785   -2.5902   -0.2160 H.spc      1 <1>        0.000
     21 H          -3.0776   -1.0521    0.4289 H.spc      1 <1>        0.000
     22 H          -0.7340   -0.8572   -0.4795 H.spc      1 <1>        0.000
     23 H          -1.9422    0.2305   -1.2530 H.spc      1 <1>        0.000
     24 H          -7.5554    1.0017   -0.8038 H.spc      1 <1>        0.000
     25 H          -8.8875   -0.8235    0.2420 H.spc      1 <1>        0.000
     26 H          -7.8846   -3.0830    0.5405 H.spc      1 <1>        0.000
     27 H          -5.5495   -3.5173   -0.2072 H.spc      1 <1>        0.000
@<TRIPOS>BOND
     1    1    2 1  
     2    2    3 1  
     3    3    4 1  
     4    4    5 1  
     5    5    6 1  
     6    6    7 1  
     7    7    2 1  
     8    5    8 1  
     9    8    9 ar 
    10    9   10 ar 
    11   10   11 ar 
    12   11   12 ar 
    13   12   13 ar 
    14   13    8 ar 
    15    9   14 1  
    16   14   15 1  
    17    3   16 1  
    18    3   17 1  
    19    4   18 1  
    20    4   19 1  
    21    6   20 1  
    22    6   21 1  
    23    7   22 1  
    24    7   23 1  
    25   10   24 1  
    26   11   25 1  
    27   12   26 1  
    28   13   27 1  
