#	Name:			isochromene
#	Creating user name:	becker
#	Creation time:		Thu Dec 19 02:54:55 2002

#	Modifying user name:	zmliu
#	Modification time:	Thu Mar 11 20:56:17 2004

@<TRIPOS>MOLECULE
isochromene
   18    19     1     1     0
SMALL
GAST_HUCK


@<TRIPOS>ATOM
      1 C1          1.3288    1.4546   -0.1372 C.3       1 ISOCHROMENE    0.0556 
      2 O1          2.4605    0.7913    0.4643 O.3       1 ISOCHROMENE   -0.3399 
      3 C2          2.5549   -0.5327    0.2416 C.2       1 ISOCHROMENE    0.1912 
      4 C3          1.4863   -1.2993   -0.0180 C.2       1 ISOCHROMENE    0.0524 
      5 C4         -1.0603   -1.4794   -0.0504 C.ar      1 ISOCHROMENE    0.0210 
      6 C5         -2.3102   -0.8556    0.0118 C.ar      1 ISOCHROMENE    0.0288 
      7 C6         -2.3959    0.5385    0.0870 C.ar      1 ISOCHROMENE    0.0270 
      8 C7         -1.2335    1.3157    0.0672 C.ar      1 ISOCHROMENE    0.0117 
      9 C8          0.0131    0.6893   -0.0244 C.ar      1 ISOCHROMENE   -0.0426 
     10 C9          0.1004   -0.7007   -0.0345 C.ar      1 ISOCHROMENE   -0.0051 
     11 H1          1.5351    1.5779   -1.2118 H.spc     1 ISOCHROMENE   -1.0000 
     12 H2          1.2435    2.4532    0.3170 H.spc     1 ISOCHROMENE   -1.0000 
     13 H3          3.5447   -0.9848    0.3074 H.spc     1 ISOCHROMENE   -1.0000 
     14 H4          1.6096   -2.3684   -0.1940 H.spc     1 ISOCHROMENE   -1.0000 
     15 H5         -0.9931   -2.5611   -0.1057 H.spc     1 ISOCHROMENE   -1.0000 
     16 H6         -3.2156   -1.4546    0.0037 H.spc     1 ISOCHROMENE   -1.0000 
     17 H7         -3.3671    1.0185    0.1585 H.spc     1 ISOCHROMENE   -1.0000 
     18 H8         -1.3012    2.3976    0.1175 H.spc     1 ISOCHROMENE   -1.0000 
@<TRIPOS>BOND
     1    2    1 1    
     2    1    9 1    
     3    3    2 1    
     4    4    3 2    
     5   10    4 1    
     6    5    6 ar   
     7    5   10 ar   
     8    6    7 ar   
     9    7    8 ar   
    10    8    9 ar   
    11    9   10 ar   
    12    1   11 1    
    13    1   12 1    
    14    3   13 1    
    15    4   14 1    
    16    5   15 1    
    17    6   16 1    
    18    7   17 1    
    19    8   18 1    
@<TRIPOS>SUBSTRUCTURE
     1 ISOCHROMENE     5 PERM              0 ****  ****    0 ROOT 
@<TRIPOS>NORMAL
@<TRIPOS>FF_PBC
FORCE_FIELD_SETUP_FEATURE Force Field Setup information
v1.0  0 0.000000 0.000000 0.000000 0.000000 0.000000 0.000000 NONE 2 0 0 0 0 0 0 0 0 0 0 0 0
