# Name:          seed_class_4_369_20/38664
# Creation time: Fri May 21 00:57:18 2010


@<TRIPOS>MOLECULE
seed_class_4_369_20/38664
   35    38     1     1     1
SMALL
USER_CHARGES


@<TRIPOS>ATOM
      1 N           0.4506    0.9447   -0.5347 N.3        1 <1>        0.000
      2 C           0.0080    2.2293   -1.0959 C.3        1 <1>        0.000
      3 C          -1.3843    2.0752   -1.7357 C.3        1 <1>        0.000
      4 C          -2.3442    1.2798   -0.8836 C.ar       1 <1>        0.000
      5 C          -1.8858    0.5403    0.2132 C.ar       1 <1>        0.000
      6 C          -2.7907   -0.1911    0.9918 C.ar       1 <1>        0.000
      7 C          -4.1540   -0.1829    0.6736 C.ar       1 <1>        0.000
      8 C          -4.6124    0.5566   -0.4232 C.ar       1 <1>        0.000
      9 C          -3.7075    1.2880   -1.2018 C.ar       1 <1>        0.000
     10 C          -0.4190    0.5195    0.5716 C.3        1 <1>        0.000
     11 C          -0.0471   -0.9007    1.0364 C.3        1 <1>        0.000
     12 C           1.4434   -1.1044    1.1664 C.ar       1 <1>        0.000
     13 C           2.3431   -0.1738    0.6329 C.ar       1 <1>        0.000
     14 C           3.7219   -0.3791    0.7629 C.ar       1 <1>        0.000
     15 C           4.2010   -1.5150    1.4264 C.ar       1 <1>        0.000
     16 C           3.3013   -2.4456    1.9599 C.ar       1 <1>        0.000
     17 C           1.9225   -2.2403    1.8299 C.ar       1 <1>        0.000
     18 C           1.8459    1.0574   -0.0860 C.3        1 <1>        0.000
     19 H           0.7183    2.5508   -1.8576 H.spc      1 <1>        0.000
     20 H          -0.0450    2.9694   -0.2974 H.spc      1 <1>        0.000
     21 H          -1.2582    1.5418   -2.6779 H.spc      1 <1>        0.000
     22 H          -1.8029    3.0737   -1.8615 H.spc      1 <1>        0.000
     23 H          -2.4338   -0.7669    1.8457 H.spc      1 <1>        0.000
     24 H          -4.8586   -0.7523    1.2798 H.spc      1 <1>        0.000
     25 H          -5.6739    0.5629   -0.6710 H.spc      1 <1>        0.000
     26 H          -4.0644    1.8638   -2.0557 H.spc      1 <1>        0.000
     27 H          -0.2580    1.2406    1.3729 H.spc      1 <1>        0.000
     28 H          -0.4153   -1.6030    0.2886 H.spc      1 <1>        0.000
     29 H          -0.4916   -1.0566    2.0194 H.spc      1 <1>        0.000
     30 H           4.4223    0.3454    0.3475 H.spc      1 <1>        0.000
     31 H           5.2745   -1.6748    1.5276 H.spc      1 <1>        0.000
     32 H           3.6743   -3.3300    2.4765 H.spc      1 <1>        0.000
     33 H           1.2221   -2.9648    2.2453 H.spc      1 <1>        0.000
     34 H           2.4666    1.1953   -0.9713 H.spc      1 <1>        0.000
     35 H           1.9009    1.8919    0.6131 H.spc      1 <1>        0.000
@<TRIPOS>BOND
     1    1    2 1  
     2    2    3 1  
     3    3    4 1  
     4    4    5 ar 
     5    5    6 ar 
     6    6    7 ar 
     7    7    8 ar 
     8    8    9 ar 
     9    9    4 ar 
    10    5   10 1  
    11   10    1 1  
    12   10   11 1  
    13   11   12 1  
    14   12   13 ar 
    15   13   14 ar 
    16   14   15 ar 
    17   15   16 ar 
    18   16   17 ar 
    19   17   12 ar 
    20   13   18 1  
    21   18    1 1  
    22    2   19 1  
    23    2   20 1  
    24    3   21 1  
    25    3   22 1  
    26    6   23 1  
    27    7   24 1  
    28    8   25 1  
    29    9   26 1  
    30   10   27 1  
    31   11   28 1  
    32   11   29 1  
    33   14   30 1  
    34   15   31 1  
    35   16   32 1  
    36   17   33 1  
    37   18   34 1  
    38   18   35 1  
