# Name:          seed_class_5_470_36/34898
# Creation time: Fri May 21 00:57:19 2010


@<TRIPOS>MOLECULE
seed_class_5_470_36/34898
   12    12     1     1     1
SMALL
USER_CHARGES


@<TRIPOS>ATOM
      1 H           5.2135   -0.2406    1.5121 H.spc      1 <1>        0.000
      2 O           4.0049   -0.9425    1.2093 O.3        1 <1>        0.000
      3 C           2.9582   -0.2268    0.6907 C.ar       1 <1>        0.000
      4 C           1.7538   -0.8629    0.3667 C.ar       1 <1>        0.000
      5 C           0.7071   -0.0976   -0.1611 C.ar       1 <1>        0.000
      6 N           0.8550    1.2203   -0.3529 N.ar       1 <1>        0.000
      7 C           1.9931    1.8614   -0.0542 C.ar       1 <1>        0.000
      8 C           3.0768    1.1517    0.4768 C.ar       1 <1>        0.000
      9 H          -0.6005   -0.7633   -0.5175 H.spc      1 <1>        0.000
     10 H           1.5869   -2.3481    0.5828 H.spc      1 <1>        0.000
     11 H           2.0751    2.9349   -0.2245 H.spc      1 <1>        0.000
     12 H           4.0050    1.6680    0.7216 H.spc      1 <1>        0.000
@<TRIPOS>BOND
     1    1    2 1  
     2    2    3 1  
     3    3    4 ar 
     4    4    5 ar 
     5    5    6 ar 
     6    6    7 ar 
     7    7    8 ar 
     8    8    3 ar 
     9    5    9 1  
    10    4   10 1  
    11    7   11 1  
    12    8   12 1  
