#	Name:			ammonia
#	Creating user name:	yxyuan
#	Creation time:		Sat Jun  5 19:02:56 2010

#	Modifying user name:	yxyuan
#	Modification time:	Sat Jun  5 19:06:30 2010

@<TRIPOS>MOLECULE
ammonia
    4     3     1     1     1
SMALL
GAST_HUCK
INVALID_CHARGES

@<TRIPOS>ATOM
      1 N1          0.0000    0.0000   -0.2696 N.3       1 <1>        -0.3437 
      2 H1          1.0800    0.0000   -0.2696 H.spc     1 <1>         0.0000 
      3 H2         -0.3600   -0.5091   -1.1514 H.spc     1 <1>         0.0000 
      4 H3         -0.3600    1.0182   -0.2696 H.spc     1 <1>         0.0000 
@<TRIPOS>BOND
     1    1    2 1    
     2    1    3 1    
     3    1    4 1    
@<TRIPOS>SUBSTRUCTURE
     1 ****        1 TEMP              0 ****  ****    0 ROOT 
@<TRIPOS>SET
ATOM$BY_TYPE    STATIC     ATOMS    COLORGROUP SYSTEM 
4 1 0 0 0
@<TRIPOS>NORMAL
@<TRIPOS>FF_PBC
FORCE_FIELD_SETUP_FEATURE Force Field Setup information
v1.0  0 0.000000 0.000000 0.000000 0.000000 0.000000 0.000000 NONE 2 0 0 0 0 0 0 0 0 0 0 0 0
