#	Name:			oxazolidine
#	Creating user name:	becker
#	Creation time:		Thu Dec 19 02:54:58 2002

#	Modifying user name:	zmliu
#	Modification time:	Thu Mar 11 21:04:40 2004

@<TRIPOS>MOLECULE
oxazolidine
   12    12     1     1     0
SMALL
GAST_HUCK


@<TRIPOS>ATOM
      1 O1          0.2595    1.0902    0.7358 O.3       1 OXAZOLIDINE   -0.3349 
      2 C1          1.2872    0.4015    0.0106 C.3       1 OXAZOLIDINE    0.2346 
      3 N1          0.6671   -0.8766   -0.4036 N.3       1 OXAZOLIDINE   -0.1859 
      4 C2         -0.7731   -0.7596   -0.0867 C.3       1 OXAZOLIDINE    0.1234 
      5 C3         -0.9753    0.7584    0.0982 C.3       1 OXAZOLIDINE    0.1628 
      6 H1          2.1902    0.2942    0.6332 H.spc     1 OXAZOLIDINE   -1.0000 
      7 H2          1.5441    0.9673   -0.8987 H.spc     1 OXAZOLIDINE   -1.0000 
      8 H3          1.1158   -1.7203    0.1086 H.spc     1 OXAZOLIDINE   -1.0000 
      9 H4         -1.0191   -1.2764    0.8575 H.spc     1 OXAZOLIDINE   -1.0000 
     10 H5         -1.3991   -1.1672   -0.8961 H.spc     1 OXAZOLIDINE   -1.0000 
     11 H6         -1.0492    1.2700   -0.8760 H.spc     1 OXAZOLIDINE   -1.0000 
     12 H7         -1.8480    1.0185    0.7174 H.spc     1 OXAZOLIDINE   -1.0000 
@<TRIPOS>BOND
     1    1    2 1    
     2    1    5 1    
     3    2    3 1    
     4    3    4 1    
     5    4    5 1    
     6    2    6 1    
     7    2    7 1    
     8    3    8 1    
     9    4    9 1    
    10    4   10 1    
    11    5   11 1    
    12    5   12 1    
@<TRIPOS>SUBSTRUCTURE
     1 OXAZOLIDINE     1 PERM              0 ****  ****    0 ROOT 
@<TRIPOS>NORMAL
@<TRIPOS>FF_PBC
FORCE_FIELD_SETUP_FEATURE Force Field Setup information
v1.0  0 0.000000 0.000000 0.000000 0.000000 0.000000 0.000000 NONE 2 0 0 0 0 0 0 0 0 0 0 0 0
