# Name:          seed_class_3_81_919/26467
# Creation time: Fri May 21 00:57:14 2010


@<TRIPOS>MOLECULE
seed_class_3_81_919/26467
    7     6     1     1     1
SMALL
USER_CHARGES


@<TRIPOS>ATOM
      1 H          -2.5840    0.7943    0.2972 H.spc      1 <1>        0.000
      2 O          -3.6016   -0.1972    0.4600 O.3        1 <1>        0.000
      3 C          -4.4562   -0.4025   -0.5647 C.2        1 <1>        0.000
      4 O          -4.3234    0.2220   -1.6042 O.2        1 <1>        0.000
      5 N          -5.4429   -1.2857   -0.4409 N.am       1 <1>        0.000
      6 H          -5.6218   -2.0156    0.8225 H.spc      1 <1>        0.000
      7 H          -6.3545   -1.5320   -1.5675 H.spc      1 <1>        0.000
@<TRIPOS>BOND
     1    1    2 1  
     2    2    3 1  
     3    3    4 2  
     4    3    5 am 
     5    5    6 1  
     6    5    7 1  
