# Name:          seed_class_4_275_37/38664
# Creation time: Fri May 21 00:57:16 2010


@<TRIPOS>MOLECULE
seed_class_4_275_37/38664
   20    22     1     1     1
SMALL
USER_CHARGES


@<TRIPOS>ATOM
      1 O           2.6967   -2.6311    2.1249 O.3        1 <1>        0.000
      2 C           2.3765   -1.5233    1.3435 C.ar       1 <1>        0.000
      3 C           1.0317   -1.2101    1.5748 C.ar       1 <1>        0.000
      4 C           0.4409   -0.1279    0.9117 C.ar       1 <1>        0.000
      5 C           1.1949    0.6412    0.0172 C.ar       1 <1>        0.000
      6 C           2.5396    0.3280   -0.2141 C.ar       1 <1>        0.000
      7 C           3.1304   -0.7542    0.4490 C.ar       1 <1>        0.000
      8 H           4.4464   -1.0607    0.2227 H.spc      1 <1>        0.000
      9 O           3.3051    1.0821   -1.1006 O.3        1 <1>        0.000
     10 C           2.7517    2.1659   -1.7785 C.2        1 <1>        0.000
     11 C           1.3319    2.5153   -1.5494 C.2        1 <1>        0.000
     12 C           0.5949    1.7903   -0.6968 C.2        1 <1>        0.000
     13 O           3.4303    2.8202   -2.5529 O.2        1 <1>        0.000
     14 H          -1.0095    0.2099    1.1612 H.spc      1 <1>        0.000
     15 C           0.5439   -2.2049    2.5561 C.ar       1 <1>        0.000
     16 C           1.5689   -3.0183    2.8450 C.ar       1 <1>        0.000
     17 H           0.8864    3.3610   -2.0733 H.spc      1 <1>        0.000
     18 H          -0.4507    2.0480   -0.5285 H.spc      1 <1>        0.000
     19 H          -0.4635   -2.2649    2.9679 H.spc      1 <1>        0.000
     20 H           1.5265   -3.8573    3.5395 H.spc      1 <1>        0.000
@<TRIPOS>BOND
     1    1    2 ar 
     2    2    3 ar 
     3    3    4 ar 
     4    4    5 ar 
     5    5    6 ar 
     6    6    7 ar 
     7    7    2 ar 
     8    7    8 1  
     9    6    9 1  
    10    9   10 1  
    11   10   11 1  
    12   11   12 2  
    13   12    5 1  
    14   10   13 2  
    15    4   14 1  
    16    3   15 ar 
    17   15   16 ar 
    18   16    1 ar 
    19   11   17 1  
    20   12   18 1  
    21   15   19 1  
    22   16   20 1  
