# Name:          seed_class_3_144_22/26467
# Creation time: Fri May 21 00:57:15 2010


@<TRIPOS>MOLECULE
seed_class_3_144_22/26467
    8     7     1     1     1
SMALL
USER_CHARGES


@<TRIPOS>ATOM
      1 H          -0.8681   -1.4920   -1.9300 H.spc      1 <1>        0.000
      2 C           0.5230   -1.6869   -1.5703 C.1        1 <1>        0.000
      3 C           1.6743   -1.8481   -1.2726 C.1        1 <1>        0.000
      4 C           3.0653   -2.0430   -0.9129 C.2        1 <1>        0.000
      5 C           3.6199   -1.2933    0.0495 C.2        1 <1>        0.000
      6 H           5.0398   -1.4922    0.4166 H.spc      1 <1>        0.000
      7 H           3.6599   -2.7993   -1.4253 H.spc      1 <1>        0.000
      8 H           3.0253   -0.5370    0.5619 H.spc      1 <1>        0.000
@<TRIPOS>BOND
     1    1    2 1  
     2    2    3 3  
     3    3    4 1  
     4    4    5 2  
     5    5    6 1  
     6    4    7 1  
     7    5    8 1  
