# Name:          seed_class_2_68_36/95646
# Creation time: Fri May 21 00:57:14 2010


@<TRIPOS>MOLECULE
seed_class_2_68_36/95646
    5     4     1     1     1
SMALL
USER_CHARGES


@<TRIPOS>ATOM
      1 N          -3.7890   -2.6131    2.0664 N.2        1 <1>        0.000
      2 O          -4.3547   -3.4608    1.1810 O.2        1 <1>        0.000
      3 H          -3.3962   -1.3514    1.3673 H.spc      1 <1>        0.000
      4 H          -2.5753   -3.2514    2.6619 H.spc      1 <1>        0.000
      5 H          -4.7690   -2.2978    3.1505 H.spc      1 <1>        0.000
@<TRIPOS>BOND
     1    1    2 2  
     2    1    3 1  
     3    1    4 1  
     4    1    5 1  
