#	Name:			<unnamed>
#	Creating user name:	zmliu
#	Creation time:		Thu Mar 11 22:11:02 2004

#	Modifying user name:	zmliu
#	Modification time:	Thu Mar 11 22:12:24 2004

@<TRIPOS>MOLECULE
****
    5     4     1     1     0
SMALL
GAST_HUCK


@<TRIPOS>ATOM
      1 C1         -1.9897   -1.3022   -0.0781 S.o2      1 <1>         0.2519 
      2 C2         -0.5546   -1.1616    0.0735 O.2       1 <1>        -0.1259 
      3 C3         -2.6493   -2.5216    0.3470 O.2       1 <1>        -0.1259 
      4 H1         -2.4410   -0.5179    0.3660 H.spc     1 <1>        -1.0000 
      5 H2         -2.2336   -1.1199   -1.0390 H.spc     1 <1>        -1.0000 
@<TRIPOS>BOND
     1    2    1 2    
     2    1    3 2    
     3    1    4 1    
     4    1    5 1    
@<TRIPOS>SUBSTRUCTURE
     1 ****        2 TEMP              0 ****  ****    0 ROOT 
@<TRIPOS>NORMAL
@<TRIPOS>FF_PBC
FORCE_FIELD_SETUP_FEATURE Force Field Setup information
v1.0  0 0.000000 0.000000 0.000000 0.000000 0.000000 0.000000 NONE 0 0 0 0 0 0 0 0 0 0 0 0 0
