# Name:          seed_class_4_331_25/38664
# Creation time: Fri May 21 00:57:17 2010


@<TRIPOS>MOLECULE
seed_class_4_331_25/38664
   24    25     1     1     1
SMALL
USER_CHARGES


@<TRIPOS>ATOM
      1 N          -0.3782    0.8866   -0.9368 N.3        1 <1>        0.000
      2 C          -0.1559    1.7831   -2.0804 C.3        1 <1>        0.000
      3 C           1.2855    2.2935   -1.8979 C.3        1 <1>        0.000
      4 C           1.9869    1.2377   -1.0232 C.3        1 <1>        0.000
      5 C           0.8987    0.1846   -0.7430 C.3        1 <1>        0.000
      6 C           0.9072   -0.5893    0.5880 C.3        1 <1>        0.000
      7 C          -0.2911   -1.5511    0.6919 C.3        1 <1>        0.000
      8 C          -1.6132   -0.8293    0.3716 C.3        1 <1>        0.000
      9 C          -1.5156   -0.0446   -0.9499 C.3        1 <1>        0.000
     10 H          -2.6624   -1.7953    0.2678 H.spc      1 <1>        0.000
     11 H          -0.3546   -2.0808    2.0186 H.spc      1 <1>        0.000
     12 H           2.1208   -1.3391    0.6877 H.spc      1 <1>        0.000
     13 H           3.0928    0.6547   -1.7173 H.spc      1 <1>        0.000
     14 H          -0.8777    2.5995   -2.1051 H.spc      1 <1>        0.000
     15 H          -0.2895    1.2702   -3.0328 H.spc      1 <1>        0.000
     16 H           1.3049    3.2776   -1.4296 H.spc      1 <1>        0.000
     17 H           1.7899    2.4179   -2.8561 H.spc      1 <1>        0.000
     18 H           2.3954    1.6644   -0.1072 H.spc      1 <1>        0.000
     19 H           1.0942   -0.6381   -1.4308 H.spc      1 <1>        0.000
     20 H           0.8345    0.1331    1.4010 H.spc      1 <1>        0.000
     21 H          -0.1525   -2.3537   -0.0325 H.spc      1 <1>        0.000
     22 H          -1.8225   -0.1234    1.1754 H.spc      1 <1>        0.000
     23 H          -2.4325    0.5302   -1.0802 H.spc      1 <1>        0.000
     24 H          -1.3729   -0.7544   -1.7647 H.spc      1 <1>        0.000
@<TRIPOS>BOND
     1    1    2 1  
     2    2    3 1  
     3    3    4 1  
     4    4    5 1  
     5    5    1 1  
     6    5    6 1  
     7    6    7 1  
     8    7    8 1  
     9    8    9 1  
    10    9    1 1  
    11    8   10 1  
    12    7   11 1  
    13    6   12 1  
    14    4   13 1  
    15    2   14 1  
    16    2   15 1  
    17    3   16 1  
    18    3   17 1  
    19    4   18 1  
    20    5   19 1  
    21    6   20 1  
    22    7   21 1  
    23    8   22 1  
    24    9   23 1  
    25    9   24 1  
