# Name:          seed_class_5_501_28/34898
# Creation time: Fri May 21 00:57:19 2010


@<TRIPOS>MOLECULE
seed_class_5_501_28/34898
   13    13     1     1     1
SMALL
USER_CHARGES


@<TRIPOS>ATOM
      1 Cl          4.1309    1.6333   -0.8579 Cl         1 <1>        0.000
      2 C           4.0068    0.3827    0.3455 C.ar       1 <1>        0.000
      3 C           2.7513   -0.1247    0.7008 C.ar       1 <1>        0.000
      4 C           2.6514   -1.1310    1.6690 C.ar       1 <1>        0.000
      5 C           3.8070   -1.6299    2.2819 C.ar       1 <1>        0.000
      6 C           5.0625   -1.1225    1.9266 C.ar       1 <1>        0.000
      7 C           5.1624   -0.1162    0.9584 C.ar       1 <1>        0.000
      8 O           1.6204    0.3634    0.1010 O.3        1 <1>        0.000
      9 H           0.3595   -0.1764    0.5055 H.spc      1 <1>        0.000
     10 H           1.6739   -1.5260    1.9456 H.spc      1 <1>        0.000
     11 H           3.7292   -2.4134    3.0357 H.spc      1 <1>        0.000
     12 H           5.9622   -1.5109    2.4038 H.spc      1 <1>        0.000
     13 H           6.1399    0.2788    0.6818 H.spc      1 <1>        0.000
@<TRIPOS>BOND
     1    1    2 1  
     2    2    3 ar 
     3    3    4 ar 
     4    4    5 ar 
     5    5    6 ar 
     6    6    7 ar 
     7    7    2 ar 
     8    3    8 1  
     9    8    9 1  
    10    4   10 1  
    11    5   11 1  
    12    6   12 1  
    13    7   13 1  
