# Name:          seed_class_3_139_25/26467
# Creation time: Fri May 21 00:57:15 2010


@<TRIPOS>MOLECULE
seed_class_3_139_25/26467
   12    11     1     1     1
SMALL
USER_CHARGES


@<TRIPOS>ATOM
      1 H          -0.1035    0.4825   -0.1847 H.spc      1 <1>        0.000
      2 C           0.1537   -0.8981    0.2824 C.2        1 <1>        0.000
      3 N          -0.8100   -1.7991    0.2411 N.2        1 <1>        0.000
      4 N          -2.1433   -1.5076   -0.2487 N.pl3      1 <1>        0.000
      5 C          -3.1010   -2.4729   -0.2295 C.cat      1 <1>        0.000
      6 N          -2.8072   -3.6856    0.2012 N.pl3      1 <1>        0.000
      7 N          -4.3615   -2.1889   -0.6540 N.pl3      1 <1>        0.000
      8 H           1.4915   -1.2685    0.7957 H.spc      1 <1>        0.000
      9 H          -2.3629   -0.5785   -0.6077 H.spc      1 <1>        0.000
     10 H          -1.8619   -3.8986    0.5196 H.spc      1 <1>        0.000
     11 H          -5.0798   -2.9130   -0.6395 H.spc      1 <1>        0.000
     12 H          -4.5886   -1.2518   -0.9868 H.spc      1 <1>        0.000
@<TRIPOS>BOND
     1    1    2 1  
     2    2    3 2  
     3    3    4 1  
     4    4    5 ar 
     5    5    6 ar 
     6    5    7 ar 
     7    2    8 1  
     8    4    9 1  
     9    6   10 1  
    10    7   11 1  
    11    7   12 1  
