# Name:          seed_class_4_360_21/38664
# Creation time: Fri May 21 00:57:18 2010


@<TRIPOS>MOLECULE
seed_class_4_360_21/38664
   26    28     1     1     1
SMALL
USER_CHARGES


@<TRIPOS>ATOM
      1 H          -0.2306    1.2588    0.1178 H.spc      1 <1>        0.000
      2 C           0.1751    2.2470    1.1421 C.ar       1 <1>        0.000
      3 C           0.1560    1.8980    2.4978 C.ar       1 <1>        0.000
      4 C           0.5398    2.8328    3.4667 C.ar       1 <1>        0.000
      5 C           0.5207    2.4837    4.8224 C.ar       1 <1>        0.000
      6 C           0.1180    1.1999    5.2091 C.ar       1 <1>        0.000
      7 C          -0.2657    0.2651    4.2401 C.ar       1 <1>        0.000
      8 C          -0.2467    0.6141    2.8845 C.ar       1 <1>        0.000
      9 C          -0.6997   -1.1189    4.6601 C.3        1 <1>        0.000
     10 C          -0.9263   -1.2420    6.1784 C.3        1 <1>        0.000
     11 O           0.1268   -0.5917    6.8946 O.3        1 <1>        0.000
     12 C           0.0962    0.8199    6.6703 C.3        1 <1>        0.000
     13 H          -1.1340    1.4229    7.3423 H.spc      1 <1>        0.000
     14 H          -0.9978   -2.7131    6.5776 H.spc      1 <1>        0.000
     15 H          -1.9101   -1.4567    3.9777 H.spc      1 <1>        0.000
     16 H           0.8962    3.3985    5.7706 H.spc      1 <1>        0.000
     17 C           0.9425    4.1166    3.0801 C.ar       1 <1>        0.000
     18 C           0.9615    4.4657    1.7244 C.ar       1 <1>        0.000
     19 C           0.5778    3.5309    0.7554 C.ar       1 <1>        0.000
     20 H           0.5964    3.8724   -0.5712 H.spc      1 <1>        0.000
     21 H           1.3557    5.7220    1.3460 H.spc      1 <1>        0.000
     22 H           1.3180    5.0314    4.0283 H.spc      1 <1>        0.000
     23 H          -0.5454   -0.1137    2.1301 H.spc      1 <1>        0.000
     24 H           0.1062   -1.8040    4.3970 H.spc      1 <1>        0.000
     25 H          -1.8698   -0.7579    6.4304 H.spc      1 <1>        0.000
     26 H           1.0088    1.2233    7.1091 H.spc      1 <1>        0.000
@<TRIPOS>BOND
     1    1    2 1  
     2    2    3 ar 
     3    3    4 ar 
     4    4    5 ar 
     5    5    6 ar 
     6    6    7 ar 
     7    7    8 ar 
     8    8    3 ar 
     9    7    9 1  
    10    9   10 1  
    11   10   11 1  
    12   11   12 1  
    13   12    6 1  
    14   12   13 1  
    15   10   14 1  
    16    9   15 1  
    17    5   16 1  
    18    4   17 ar 
    19   17   18 ar 
    20   18   19 ar 
    21   19    2 ar 
    22   19   20 1  
    23   18   21 1  
    24   17   22 1  
    25    8   23 1  
    26    9   24 1  
    27   10   25 1  
    28   12   26 1  
