# Name:          seed_class_5_455_42/34898
# Creation time: Fri May 21 00:57:19 2010


@<TRIPOS>MOLECULE
seed_class_5_455_42/34898
   19    19     1     1     1
SMALL
USER_CHARGES


@<TRIPOS>ATOM
      1 Cl          1.0768    4.0894   -3.3258 Cl         1 <1>        0.000
      2 C           2.1958    3.0451   -2.4982 C.ar       1 <1>        0.000
      3 C           3.5735    3.2697   -2.6059 C.ar       1 <1>        0.000
      4 C           4.4738    2.4295   -1.9401 C.ar       1 <1>        0.000
      5 C           3.9966    1.3647   -1.1666 C.ar       1 <1>        0.000
      6 C           2.6189    1.1401   -1.0589 C.ar       1 <1>        0.000
      7 C           1.7185    1.9803   -1.7247 C.ar       1 <1>        0.000
      8 C           2.1144    0.0144   -0.2412 C.2        1 <1>        0.000
      9 O           2.9001   -0.6771    0.4048 O.2        1 <1>        0.000
     10 N           0.8113   -0.2495   -0.2048 N.am       1 <1>        0.000
     11 H           0.3027   -1.3236    0.6604 H.spc      1 <1>        0.000
     12 O           4.8777    0.5424   -0.5150 O.3        1 <1>        0.000
     13 H           6.2746    0.8213   -0.6405 H.spc      1 <1>        0.000
     14 N           4.0514    4.3361   -3.3806 N.pl3      1 <1>        0.000
     15 H           5.5464    2.6044   -2.0240 H.spc      1 <1>        0.000
     16 H           0.6459    1.8054   -1.6408 H.spc      1 <1>        0.000
     17 H           0.1648    0.2934   -0.7773 H.spc      1 <1>        0.000
     18 H           3.3954    4.9482   -3.8657 H.spc      1 <1>        0.000
     19 H           5.0551    4.4998   -3.4591 H.spc      1 <1>        0.000
@<TRIPOS>BOND
     1    1    2 1  
     2    2    3 ar 
     3    3    4 ar 
     4    4    5 ar 
     5    5    6 ar 
     6    6    7 ar 
     7    7    2 ar 
     8    6    8 1  
     9    8    9 2  
    10    8   10 am 
    11   10   11 1  
    12    5   12 1  
    13   12   13 1  
    14    3   14 1  
    15    4   15 1  
    16    7   16 1  
    17   10   17 1  
    18   14   18 1  
    19   14   19 1  
