# Name:          seed_class_2_52_82/95646
# Creation time: Fri May 21 00:57:14 2010


@<TRIPOS>MOLECULE
seed_class_2_52_82/95646
   10    10     1     1     1
SMALL
USER_CHARGES


@<TRIPOS>ATOM
      1 H           0.4381    0.7545    0.4415 H.spc      1 <1>        0.000
      2 C          -0.8212    0.1397   -0.0345 C.ar       1 <1>        0.000
      3 N          -0.8000   -1.0538   -0.6433 N.ar       1 <1>        0.000
      4 C          -1.9350   -1.6183   -1.0776 C.ar       1 <1>        0.000
      5 C          -3.1588   -0.9625   -0.8979 C.ar       1 <1>        0.000
      6 N          -3.1715    0.2307   -0.2882 N.ar       1 <1>        0.000
      7 C          -2.0409    0.8020    0.1490 C.ar       1 <1>        0.000
      8 H          -1.9054   -2.5895   -1.5715 H.spc      1 <1>        0.000
      9 H          -4.0864   -1.4152   -1.2483 H.spc      1 <1>        0.000
     10 H          -2.0706    1.7732    0.6429 H.spc      1 <1>        0.000
@<TRIPOS>BOND
     1    1    2 1  
     2    2    3 ar 
     3    3    4 ar 
     4    4    5 ar 
     5    5    6 ar 
     6    6    7 ar 
     7    7    2 ar 
     8    4    8 1  
     9    5    9 1  
    10    7   10 1  
