# Name:          seed_class_5_566_20/34898
# Creation time: Fri May 21 00:57:20 2010


@<TRIPOS>MOLECULE
seed_class_5_566_20/34898
   23    23     1     1     1
SMALL
USER_CHARGES


@<TRIPOS>ATOM
      1 N          -1.6582    0.4707    0.7941 N.am       1 <1>        0.000
      2 H          -2.8444    0.7328    1.6217 H.spc      1 <1>        0.000
      3 C          -0.5583    1.2001    0.9584 C.2        1 <1>        0.000
      4 O          -0.5359    2.0984    1.7984 O.2        1 <1>        0.000
      5 C           0.6387    0.9311    0.1306 C.2        1 <1>        0.000
      6 C           1.7588    1.6413    0.3215 C.2        1 <1>        0.000
      7 C           2.9558    1.3723   -0.5063 C.ar       1 <1>        0.000
      8 C           3.8737    0.3917   -0.1117 C.ar       1 <1>        0.000
      9 C           5.0060    0.1371   -0.8948 C.ar       1 <1>        0.000
     10 C           5.2203    0.8632   -2.0724 C.ar       1 <1>        0.000
     11 C           4.3023    1.8438   -2.4670 C.ar       1 <1>        0.000
     12 C           3.1700    2.0984   -1.6839 C.ar       1 <1>        0.000
     13 O           6.3283    0.6142   -2.8387 O.3        1 <1>        0.000
     14 O           5.9043   -0.8225   -0.5087 O.3        1 <1>        0.000
     15 C           0.5993   -0.1011   -0.8870 C.1        1 <1>        0.000
     16 N           0.5678   -0.9268   -1.7012 N.1        1 <1>        0.000
     17 H          -1.6786   -0.2706    0.0938 H.spc      1 <1>        0.000
     18 H           1.7884    2.4172    1.0865 H.spc      1 <1>        0.000
     19 H           3.7068   -0.1736    0.8052 H.spc      1 <1>        0.000
     20 H           4.4691    2.4091   -3.3839 H.spc      1 <1>        0.000
     21 H           2.4553    2.8619   -1.9911 H.spc      1 <1>        0.000
     22 H           6.3234    1.1936   -3.6041 H.spc      1 <1>        0.000
     23 H           5.6106   -1.2220    0.3133 H.spc      1 <1>        0.000
@<TRIPOS>BOND
     1    1    2 1  
     2    1    3 am 
     3    3    4 2  
     4    3    5 1  
     5    5    6 2  
     6    6    7 1  
     7    7    8 ar 
     8    8    9 ar 
     9    9   10 ar 
    10   10   11 ar 
    11   11   12 ar 
    12   12    7 ar 
    13   10   13 1  
    14    9   14 1  
    15    5   15 1  
    16   15   16 3  
    17    1   17 1  
    18    6   18 1  
    19    8   19 1  
    20   11   20 1  
    21   12   21 1  
    22   13   22 1  
    23   14   23 1  
