# Name:          seed_class_5_391_177/34898
# Creation time: Fri May 21 00:57:18 2010


@<TRIPOS>MOLECULE
seed_class_5_391_177/34898
   16    16     1     1     1
SMALL
USER_CHARGES


@<TRIPOS>ATOM
      1 H          -2.4798   -0.0662   -1.8220 H.spc      1 <1>        0.000
      2 C          -3.8927    0.3566   -1.4982 C.2        1 <1>        0.000
      3 O          -4.1052    1.1272   -0.5633 O.2        1 <1>        0.000
      4 N          -4.9076   -0.1043   -2.2238 N.am       1 <1>        0.000
      5 C          -6.2297    0.3075   -1.9330 C.ar       1 <1>        0.000
      6 C          -6.7773    1.4172   -2.5878 C.ar       1 <1>        0.000
      7 C          -8.0854    1.8247   -2.3000 C.ar       1 <1>        0.000
      8 C          -8.8460    1.1224   -1.3576 C.ar       1 <1>        0.000
      9 C          -8.2985    0.0127   -0.7028 C.ar       1 <1>        0.000
     10 C          -6.9903   -0.3948   -0.9905 C.ar       1 <1>        0.000
     11 H         -10.2569    1.5618   -1.0472 H.spc      1 <1>        0.000
     12 H          -4.7329   -0.7546   -2.9899 H.spc      1 <1>        0.000
     13 H          -6.1852    1.9639   -3.3217 H.spc      1 <1>        0.000
     14 H          -8.5116    2.6888   -2.8097 H.spc      1 <1>        0.000
     15 H          -8.8907   -0.5340    0.0310 H.spc      1 <1>        0.000
     16 H          -6.5640   -1.2588   -0.4807 H.spc      1 <1>        0.000
@<TRIPOS>BOND
     1    1    2 1  
     2    2    3 2  
     3    2    4 am 
     4    4    5 1  
     5    5    6 ar 
     6    6    7 ar 
     7    7    8 ar 
     8    8    9 ar 
     9    9   10 ar 
    10   10    5 ar 
    11    8   11 1  
    12    4   12 1  
    13    6   13 1  
    14    7   14 1  
    15    9   15 1  
    16   10   16 1  
