# Name:          seed_class_2_73_25/95646
# Creation time: Fri May 21 00:57:14 2010


@<TRIPOS>MOLECULE
seed_class_2_73_25/95646
    7     7     1     1     1
SMALL
USER_CHARGES


@<TRIPOS>ATOM
      1 H          -3.5667    0.1929    1.2226 H.spc      1 <1>        0.000
      2 C          -3.4936   -1.1272    0.9041 C.ar       1 <1>        0.000
      3 N          -3.2927   -2.0809    1.7944 N.ar       1 <1>        0.000
      4 S          -3.2777   -3.4912    0.9772 S.3        1 <1>        0.000
      5 N          -3.5254   -2.9568   -0.5426 N.ar       1 <1>        0.000
      6 C          -3.6313   -1.6427   -0.4763 C.ar       1 <1>        0.000
      7 H          -3.8454   -0.8425   -1.5675 H.spc      1 <1>        0.000
@<TRIPOS>BOND
     1    1    2 1  
     2    2    3 ar 
     3    3    4 ar 
     4    4    5 ar 
     5    5    6 ar 
     6    6    2 ar 
     7    6    7 1  
