# Name:          seed_class_4_176_217/38664
# Creation time: Fri May 21 00:57:15 2010


@<TRIPOS>MOLECULE
seed_class_4_176_217/38664
   17    18     1     1     1
SMALL
USER_CHARGES


@<TRIPOS>ATOM
      1 H           0.1275   -1.7886    0.8154 H.spc      1 <1>        0.000
      2 C          -1.2213   -0.9482    0.0359 C.2        1 <1>        0.000
      3 C          -2.2721   -1.6448   -0.4181 C.2        1 <1>        0.000
      4 C          -3.4031   -0.9482   -1.0708 C.ar       1 <1>        0.000
      5 C          -3.3528    0.4446   -1.2033 C.ar       1 <1>        0.000
      6 C          -4.4095    1.1280   -1.8168 C.ar       1 <1>        0.000
      7 C          -5.5164    0.4186   -2.2978 C.ar       1 <1>        0.000
      8 C          -5.5668   -0.9742   -2.1654 C.ar       1 <1>        0.000
      9 C          -4.5101   -1.6576   -1.5519 C.ar       1 <1>        0.000
     10 O          -2.2601    1.1680   -0.7310 O.3        1 <1>        0.000
     11 C          -1.1884    0.5237   -0.1143 C.2        1 <1>        0.000
     12 O          -0.2358    1.1661    0.2960 O.2        1 <1>        0.000
     13 H          -2.2997   -3.0073   -0.2775 H.spc      1 <1>        0.000
     14 H          -4.3704    2.2124   -1.9199 H.spc      1 <1>        0.000
     15 H          -6.3391    0.9507   -2.7754 H.spc      1 <1>        0.000
     16 H          -6.4287   -1.5265   -2.5399 H.spc      1 <1>        0.000
     17 H          -4.5492   -2.7420   -1.4488 H.spc      1 <1>        0.000
@<TRIPOS>BOND
     1    1    2 1  
     2    2    3 2  
     3    3    4 1  
     4    4    5 ar 
     5    5    6 ar 
     6    6    7 ar 
     7    7    8 ar 
     8    8    9 ar 
     9    9    4 ar 
    10    5   10 1  
    11   10   11 1  
    12   11    2 1  
    13   11   12 2  
    14    3   13 1  
    15    6   14 1  
    16    7   15 1  
    17    8   16 1  
    18    9   17 1  
