# Name:          seed_class_4_338_24/38664
# Creation time: Fri May 21 00:57:17 2010


@<TRIPOS>MOLECULE
seed_class_4_338_24/38664
   17    18     1     1     1
SMALL
USER_CHARGES


@<TRIPOS>ATOM
      1 H           2.2415    0.1690   -0.0111 H.spc      1 <1>        0.000
      2 C           2.7252    1.5574   -0.3554 C.3        1 <1>        0.000
      3 C           1.5677    2.5632   -0.4972 C.3        1 <1>        0.000
      4 O           1.2288    2.2198   -1.8433 O.3        1 <1>        0.000
      5 C           2.4481    2.6595   -2.4475 C.3        1 <1>        0.000
      6 C           3.3584    1.6267   -1.7575 C.3        1 <1>        0.000
      7 H           3.3474    0.2742   -2.4685 H.spc      1 <1>        0.000
      8 C           2.7279    4.0794   -1.9212 C.3        1 <1>        0.000
      9 C           2.0948    4.0100   -0.5190 C.3        1 <1>        0.000
     10 H           3.4165    1.7890    0.4549 H.spc      1 <1>        0.000
     11 H           0.8004    2.5218    0.2759 H.spc      1 <1>        0.000
     12 H           2.5196    2.7098   -3.5340 H.spc      1 <1>        0.000
     13 H           4.4141    1.8980   -1.7544 H.spc      1 <1>        0.000
     14 H           2.3166    4.8693   -2.5497 H.spc      1 <1>        0.000
     15 H           3.7853    4.3437   -1.9126 H.spc      1 <1>        0.000
     16 H           1.3226    4.7603   -0.3492 H.spc      1 <1>        0.000
     17 H           2.7920    4.2346    0.2882 H.spc      1 <1>        0.000
@<TRIPOS>BOND
     1    1    2 1  
     2    2    3 1  
     3    3    4 1  
     4    4    5 1  
     5    5    6 1  
     6    6    2 1  
     7    6    7 1  
     8    5    8 1  
     9    8    9 1  
    10    9    3 1  
    11    2   10 1  
    12    3   11 1  
    13    5   12 1  
    14    6   13 1  
    15    8   14 1  
    16    8   15 1  
    17    9   16 1  
    18    9   17 1  
