# Name:          seed_class_3_125_34/26467
# Creation time: Fri May 21 00:57:15 2010


@<TRIPOS>MOLECULE
seed_class_3_125_34/26467
    7     6     1     1     1
SMALL
USER_CHARGES


@<TRIPOS>ATOM
      1 H          -2.4584   -0.7446   -0.0015 H.spc      1 <1>        0.000
      2 C          -3.5913   -1.7401   -0.0767 C.2        1 <1>        0.000
      3 O          -3.3537   -2.9463   -0.0378 O.2        1 <1>        0.000
      4 C          -4.9876   -1.2644   -0.1973 C.2        1 <1>        0.000
      5 O          -5.2208   -0.0690   -0.2671 O.2        1 <1>        0.000
      6 O          -5.9805   -2.1336   -0.2292 O.3        1 <1>        0.000
      7 H          -5.6272   -3.0239   -0.1644 H.spc      1 <1>        0.000
@<TRIPOS>BOND
     1    1    2 1  
     2    2    3 2  
     3    2    4 1  
     4    4    5 2  
     5    4    6 1  
     6    6    7 1  
