# Name:          seed_class_5_506_28/34898
# Creation time: Fri May 21 00:57:19 2010


@<TRIPOS>MOLECULE
seed_class_5_506_28/34898
   16    16     1     1     1
SMALL
USER_CHARGES


@<TRIPOS>ATOM
      1 H          -1.2732   -0.9736    0.3840 H.spc      1 <1>        0.000
      2 N          -1.2647    0.2961   -0.3567 N.am       1 <1>        0.000
      3 C          -0.6630    0.3067   -1.6979 C.3        1 <1>        0.000
      4 C          -1.0563    1.5449   -2.5249 C.3        1 <1>        0.000
      5 C          -0.9502    2.8258   -1.6766 C.3        1 <1>        0.000
      6 C          -1.8514    2.7191   -0.4324 C.3        1 <1>        0.000
      7 C          -1.8019    1.3625    0.2290 C.2        1 <1>        0.000
      8 O          -2.2781    1.2386    1.3562 O.2        1 <1>        0.000
      9 H          -1.0215   -0.5748   -2.2294 H.spc      1 <1>        0.000
     10 H           0.4200    0.3197   -1.5756 H.spc      1 <1>        0.000
     11 H          -2.0869    1.4302   -2.8607 H.spc      1 <1>        0.000
     12 H          -0.3791    1.6293   -3.3749 H.spc      1 <1>        0.000
     13 H          -1.2711    3.6774   -2.2764 H.spc      1 <1>        0.000
     14 H           0.0837    2.9563   -1.3570 H.spc      1 <1>        0.000
     15 H          -2.8785    2.8903   -0.7548 H.spc      1 <1>        0.000
     16 H          -1.4979    3.4516    0.2932 H.spc      1 <1>        0.000
@<TRIPOS>BOND
     1    1    2 1  
     2    2    3 1  
     3    3    4 1  
     4    4    5 1  
     5    5    6 1  
     6    6    7 1  
     7    7    2 am 
     8    7    8 2  
     9    3    9 1  
    10    3   10 1  
    11    4   11 1  
    12    4   12 1  
    13    5   13 1  
    14    5   14 1  
    15    6   15 1  
    16    6   16 1  
