# Name:          seed_class_2_22_1260/95646
# Creation time: Fri May 21 00:57:13 2010


@<TRIPOS>MOLECULE
seed_class_2_22_1260/95646
    5     4     1     1     1
SMALL
USER_CHARGES


@<TRIPOS>ATOM
      1 H          -4.0391   -1.0922   -1.9276 H.spc      1 <1>        0.000
      2 C          -5.3820   -1.5594   -2.3384 C.2        1 <1>        0.000
      3 N          -5.5004   -2.5587   -3.1927 N.2        1 <1>        0.000
      4 H          -6.4941   -0.9593   -1.8356 H.spc      1 <1>        0.000
      5 H          -4.6664   -3.0089   -3.5697 H.spc      1 <1>        0.000
@<TRIPOS>BOND
     1    1    2 1  
     2    2    3 2  
     3    2    4 1  
     4    3    5 1  
