# Name:          seed_class_3_151_20/26467
# Creation time: Fri May 21 00:57:15 2010


@<TRIPOS>MOLECULE
seed_class_3_151_20/26467
    7     6     1     1     1
SMALL
USER_CHARGES


@<TRIPOS>ATOM
      1 H          -1.4167    0.1167    0.0399 H.spc      1 <1>        0.000
      2 O          -2.4639   -0.1671   -0.8917 O.3        1 <1>        0.000
      3 C          -3.3646   -1.1473   -0.5679 C.2        1 <1>        0.000
      4 C          -4.3434   -1.4675   -1.4252 C.2        1 <1>        0.000
      5 H          -3.2850   -1.6667    0.3871 H.spc      1 <1>        0.000
      6 H          -4.4230   -0.9481   -2.3802 H.spc      1 <1>        0.000
      7 H          -5.0600   -2.2474   -1.1676 H.spc      1 <1>        0.000
@<TRIPOS>BOND
     1    1    2 1  
     2    2    3 1  
     3    3    4 2  
     4    3    5 1  
     5    4    6 1  
     6    4    7 1  
