# Name:          seed_class_2_19_1305/95646
# Creation time: Fri May 21 00:57:13 2010


@<TRIPOS>MOLECULE
seed_class_2_19_1305/95646
    9     8     1     1     1
SMALL
USER_CHARGES


@<TRIPOS>ATOM
      1 H          -1.4749   -2.2908    1.3734 H.spc      1 <1>        0.000
      2 N          -2.6362   -3.0847    1.8001 N.pl3      1 <1>        0.000
      3 C          -2.5373   -4.4378    1.8941 C.cat      1 <1>        0.000
      4 N          -1.4024   -5.0394    1.5899 N.pl3      1 <1>        0.000
      5 N          -3.6077   -5.1711    2.3016 N.pl3      1 <1>        0.000
      6 H          -3.5161   -2.6207    2.0257 H.spc      1 <1>        0.000
      7 H          -0.5996   -4.4894    1.2843 H.spc      1 <1>        0.000
      8 H          -3.5336   -6.1860    2.3722 H.spc      1 <1>        0.000
      9 H          -4.4847   -4.7062    2.5367 H.spc      1 <1>        0.000
@<TRIPOS>BOND
     1    1    2 1  
     2    2    3 ar 
     3    3    4 ar 
     4    3    5 ar 
     5    2    6 1  
     6    4    7 1  
     7    5    8 1  
     8    5    9 1  
