# Name:          seed_class_5_422_71/34898
# Creation time: Fri May 21 00:57:18 2010


@<TRIPOS>MOLECULE
seed_class_5_422_71/34898
   13    13     1     1     1
SMALL
USER_CHARGES


@<TRIPOS>ATOM
      1 S           1.7993   -2.2291    1.2323 S.3        1 <1>        0.000
      2 H           0.9121   -0.9197    0.3318 H.spc      1 <1>        0.000
      3 C           3.5340   -1.8775    1.2269 C.ar       1 <1>        0.000
      4 C           4.2463   -1.8863    0.0216 C.ar       1 <1>        0.000
      5 C           5.6184   -1.6083    0.0174 C.ar       1 <1>        0.000
      6 C           6.2782   -1.3215    1.2183 C.ar       1 <1>        0.000
      7 C           5.5660   -1.3127    2.4236 C.ar       1 <1>        0.000
      8 C           4.1938   -1.5907    2.4279 C.ar       1 <1>        0.000
      9 H           3.7326   -2.1096   -0.9135 H.spc      1 <1>        0.000
     10 H           6.1730   -1.6152   -0.9209 H.spc      1 <1>        0.000
     11 H           7.3465   -1.1050    1.2149 H.spc      1 <1>        0.000
     12 H           6.0798   -1.0894    3.3586 H.spc      1 <1>        0.000
     13 H           3.6392   -1.5838    3.3663 H.spc      1 <1>        0.000
@<TRIPOS>BOND
     1    1    2 1  
     2    1    3 1  
     3    3    4 ar 
     4    4    5 ar 
     5    5    6 ar 
     6    6    7 ar 
     7    7    8 ar 
     8    8    3 ar 
     9    4    9 1  
    10    5   10 1  
    11    6   11 1  
    12    7   12 1  
    13    8   13 1  
