# Name:          seed_class_5_529_24/34898
# Creation time: Fri May 21 00:57:20 2010


@<TRIPOS>MOLECULE
seed_class_5_529_24/34898
   23    24     1     1     1
SMALL
USER_CHARGES


@<TRIPOS>ATOM
      1 H           8.7096    0.3500    2.9985 H.spc      1 <1>        0.000
      2 C          10.2187    0.3380    2.9469 C.2        1 <1>        0.000
      3 O          10.8115    1.0360    2.1257 O.2        1 <1>        0.000
      4 N          10.9068   -0.4273    3.7892 N.am       1 <1>        0.000
      5 C          11.0372   -0.1226    5.2214 C.3        1 <1>        0.000
      6 C          10.5170   -1.2723    6.1041 C.3        1 <1>        0.000
      7 C          10.9373   -2.6359    5.6102 C.ar       1 <1>        0.000
      8 C          11.4500   -2.8150    4.3198 C.ar       1 <1>        0.000
      9 C          11.8317   -4.0913    3.8892 C.ar       1 <1>        0.000
     10 C          11.7006   -5.1884    4.7490 C.ar       1 <1>        0.000
     11 C          11.1879   -5.0093    6.0393 C.ar       1 <1>        0.000
     12 C          10.8063   -3.7330    6.4699 C.ar       1 <1>        0.000
     13 C          11.6035   -1.6518    3.3694 C.3        1 <1>        0.000
     14 H          10.2943    1.1514    5.5457 H.spc      1 <1>        0.000
     15 H          12.0981    0.0046    5.4366 H.spc      1 <1>        0.000
     16 H           9.4277   -1.2355    6.0875 H.spc      1 <1>        0.000
     17 H          10.9347   -1.1385    7.1020 H.spc      1 <1>        0.000
     18 H          12.2309   -4.2308    2.8846 H.spc      1 <1>        0.000
     19 H          11.9977   -6.1821    4.4137 H.spc      1 <1>        0.000
     20 H          11.0858   -5.8635    6.7086 H.spc      1 <1>        0.000
     21 H          10.4072   -3.5935    7.4746 H.spc      1 <1>        0.000
     22 H          11.1680   -1.9570    2.4179 H.spc      1 <1>        0.000
     23 H          12.6664   -1.4148    3.3235 H.spc      1 <1>        0.000
@<TRIPOS>BOND
     1    1    2 1  
     2    2    3 2  
     3    2    4 am 
     4    4    5 1  
     5    5    6 1  
     6    6    7 1  
     7    7    8 ar 
     8    8    9 ar 
     9    9   10 ar 
    10   10   11 ar 
    11   11   12 ar 
    12   12    7 ar 
    13    8   13 1  
    14   13    4 1  
    15    5   14 1  
    16    5   15 1  
    17    6   16 1  
    18    6   17 1  
    19    9   18 1  
    20   10   19 1  
    21   11   20 1  
    22   12   21 1  
    23   13   22 1  
    24   13   23 1  
