# Name:          seed_class_3_134_27/26467
# Creation time: Fri May 21 00:57:15 2010


@<TRIPOS>MOLECULE
seed_class_3_134_27/26467
   12    11     1     1     1
SMALL
USER_CHARGES


@<TRIPOS>ATOM
      1 H          -1.0018    1.4210    0.5267 H.spc      1 <1>        0.000
      2 C           0.2898    0.6437    0.4391 C.2        1 <1>        0.000
      3 C           1.2455    1.0267   -0.4186 C.2        1 <1>        0.000
      4 C           2.5114    0.2648   -0.5044 C.2        1 <1>        0.000
      5 O           2.9775   -0.0227   -1.5946 O.2        1 <1>        0.000
      6 O           3.1361   -0.1036    0.5985 O.3        1 <1>        0.000
      7 C           0.5002   -0.5413    1.3004 C.2        1 <1>        0.000
      8 O           0.2288   -0.4876    2.4887 O.2        1 <1>        0.000
      9 O           0.9813   -1.6563    0.7831 O.3        1 <1>        0.000
     10 H           1.0905    1.8994   -1.0531 H.spc      1 <1>        0.000
     11 H           2.6401    0.1997    1.3624 H.spc      1 <1>        0.000
     12 H           1.1396   -1.5301   -0.1553 H.spc      1 <1>        0.000
@<TRIPOS>BOND
     1    1    2 1  
     2    2    3 2  
     3    3    4 1  
     4    4    5 2  
     5    4    6 1  
     6    2    7 1  
     7    7    8 2  
     8    7    9 1  
     9    3   10 1  
    10    6   11 1  
    11    9   12 1  
