# Name:          seed_class_5_512_27/34898
# Creation time: Fri May 21 00:57:20 2010


@<TRIPOS>MOLECULE
seed_class_5_512_27/34898
   21    21     1     1     1
SMALL
USER_CHARGES


@<TRIPOS>ATOM
      1 S          -4.5380    3.5631   -1.2285 S.o2       1 <1>        0.000
      2 O          -5.0603    2.9117   -2.3894 O.2        1 <1>        0.000
      3 O          -4.3061    4.9436   -1.5204 O.2        1 <1>        0.000
      4 N          -5.6891    3.4295    0.0829 N.am       1 <1>        0.000
      5 C          -6.0703    2.2303    0.5135 C.2        1 <1>        0.000
      6 O          -5.6551    1.1995   -0.0589 O.2        1 <1>        0.000
      7 N          -6.8934    2.1277    1.5532 N.am       1 <1>        0.000
      8 H          -7.3286    0.8029    2.0182 H.spc      1 <1>        0.000
      9 C          -2.9542    2.7654   -0.7380 C.ar       1 <1>        0.000
     10 C          -2.6757    1.4546   -1.1432 C.ar       1 <1>        0.000
     11 C          -1.4705    0.8476   -0.7700 C.ar       1 <1>        0.000
     12 C          -0.5439    1.5515    0.0084 C.ar       1 <1>        0.000
     13 C          -0.8224    2.8623    0.4137 C.ar       1 <1>        0.000
     14 C          -2.0275    3.4692    0.0404 C.ar       1 <1>        0.000
     15 H           0.7559    0.8968    0.4110 H.spc      1 <1>        0.000
     16 H          -6.0676    4.2713    0.5170 H.spc      1 <1>        0.000
     17 H          -7.2227    2.9683    2.0279 H.spc      1 <1>        0.000
     18 H          -3.3972    0.9066   -1.7492 H.spc      1 <1>        0.000
     19 H          -1.2537   -0.1730   -1.0855 H.spc      1 <1>        0.000
     20 H          -0.1010    3.4103    1.0199 H.spc      1 <1>        0.000
     21 H          -2.2443    4.4898    0.3558 H.spc      1 <1>        0.000
@<TRIPOS>BOND
     1    1    2 2  
     2    1    3 2  
     3    1    4 1  
     4    4    5 am 
     5    5    6 2  
     6    5    7 am 
     7    7    8 1  
     8    1    9 1  
     9    9   10 ar 
    10   10   11 ar 
    11   11   12 ar 
    12   12   13 ar 
    13   13   14 ar 
    14   14    9 ar 
    15   12   15 1  
    16    4   16 1  
    17    7   17 1  
    18   10   18 1  
    19   11   19 1  
    20   13   20 1  
    21   14   21 1  
