# Name:          seed_class_4_304_30/38664
# Creation time: Fri May 21 00:57:17 2010


@<TRIPOS>MOLECULE
seed_class_4_304_30/38664
   28    29     1     1     1
SMALL
USER_CHARGES


@<TRIPOS>ATOM
      1 H           2.4124   -0.3725    1.2454 H.spc      1 <1>        0.000
      2 C           3.8890   -0.0610    1.0052 C.3        1 <1>        0.000
      3 C           4.4177   -0.8998   -0.1731 C.3        1 <1>        0.000
      4 C           5.8845   -0.5579   -0.4944 C.3        1 <1>        0.000
      5 C           6.0687    0.9497   -0.7489 C.3        1 <1>        0.000
      6 C           5.5399    1.7885    0.4294 C.3        1 <1>        0.000
      7 C           4.0731    1.4466    0.7507 C.3        1 <1>        0.000
      8 C           3.5443    2.2854    1.9290 C.3        1 <1>        0.000
      9 C           3.7285    3.7930    1.6745 C.3        1 <1>        0.000
     10 C           5.1953    4.1349    1.3532 C.3        1 <1>        0.000
     11 C           5.7240    3.2961    0.1749 C.3        1 <1>        0.000
     12 H           7.1986    3.6072   -0.0650 H.spc      1 <1>        0.000
     13 H           5.0091    3.6978   -1.1120 H.spc      1 <1>        0.000
     14 H           6.3117    1.4473    1.5839 H.spc      1 <1>        0.000
     15 H           4.2878   -2.3863    0.1465 H.spc      1 <1>        0.000
     16 H           4.6039   -0.4627    2.2921 H.spc      1 <1>        0.000
     17 H           3.8171   -0.6621   -1.0511 H.spc      1 <1>        0.000
     18 H           6.1762   -1.0986   -1.3947 H.spc      1 <1>        0.000
     19 H           6.5006   -0.8423    0.3587 H.spc      1 <1>        0.000
     20 H           5.5090    1.2200   -1.6443 H.spc      1 <1>        0.000
     21 H           7.1330    1.1527   -0.8676 H.spc      1 <1>        0.000
     22 H           3.4786    1.7044   -0.1258 H.spc      1 <1>        0.000
     23 H           4.1040    2.0151    2.8244 H.spc      1 <1>        0.000
     24 H           2.4800    2.0824    2.0477 H.spc      1 <1>        0.000
     25 H           3.4368    4.3337    2.5748 H.spc      1 <1>        0.000
     26 H           3.1124    4.0774    0.8214 H.spc      1 <1>        0.000
     27 H           5.8017    3.9168    2.2323 H.spc      1 <1>        0.000
     28 H           5.2529    5.1887    1.0807 H.spc      1 <1>        0.000
@<TRIPOS>BOND
     1    2    1 1  
     2    2    3 1  
     3    3    4 1  
     4    4    5 1  
     5    5    6 1  
     6    6    7 1  
     7    7    2 1  
     8    7    8 1  
     9    8    9 1  
    10    9   10 1  
    11   10   11 1  
    12   11    6 1  
    13   11   12 1  
    14   11   13 1  
    15    6   14 1  
    16    3   15 1  
    17    2   16 1  
    18    3   17 1  
    19    4   18 1  
    20    4   19 1  
    21    5   20 1  
    22    5   21 1  
    23    7   22 1  
    24    8   23 1  
    25    8   24 1  
    26    9   25 1  
    27    9   26 1  
    28   10   27 1  
    29   10   28 1  
