#	Name:			pyridazine
#	Creating user name:	becker
#	Creation time:		Thu Dec 19 02:55:01 2002

#	Modifying user name:	zmliu
#	Modification time:	Thu Mar 11 21:24:27 2004

@<TRIPOS>MOLECULE
pyridazine
   10    10     1     1     0
SMALL
GAST_HUCK


@<TRIPOS>ATOM
      1 N1         -0.6665    1.5876    0.0000 N.ar      1 PYRIDAZINE   -0.2114 
      2 N2          0.6666    1.5877    0.0000 N.ar      1 PYRIDAZINE   -0.2114 
      3 C1          1.3745    0.4399    0.0000 C.ar      1 PYRIDAZINE    0.1297 
      4 C2          0.6985   -0.7829    0.0000 C.ar      1 PYRIDAZINE    0.0817 
      5 C3         -0.6986   -0.7829    0.0000 C.ar      1 PYRIDAZINE    0.0817 
      6 C4         -1.3745    0.4398    0.0000 C.ar      1 PYRIDAZINE    0.1297 
      7 H1          2.4586    0.4732    0.0000 H.spc     1 PYRIDAZINE   -1.0000 
      8 H2          1.2501   -1.7178    0.0000 H.spc     1 PYRIDAZINE   -1.0000 
      9 H3         -1.2500   -1.7179    0.0000 H.spc     1 PYRIDAZINE   -1.0000 
     10 H4         -2.4587    0.4732    0.0000 H.spc     1 PYRIDAZINE   -1.0000 
@<TRIPOS>BOND
     1    1    2 ar   
     2    1    6 ar   
     3    2    3 ar   
     4    3    4 ar   
     5    4    5 ar   
     6    5    6 ar   
     7    3    7 1    
     8    4    8 1    
     9    5    9 1    
    10    6   10 1    
@<TRIPOS>SUBSTRUCTURE
     1 PYRIDAZINE     1 PERM              0 ****  ****    0 ROOT 
@<TRIPOS>NORMAL
@<TRIPOS>FF_PBC
FORCE_FIELD_SETUP_FEATURE Force Field Setup information
v1.0  0 0.000000 0.000000 0.000000 0.000000 0.000000 0.000000 NONE 2 0 0 0 0 0 0 0 0 0 0 0 0
