# Name:          seed_class_1_2_119801/603445
# Creation time: Fri May 21 00:57:10 2010


@<TRIPOS>MOLECULE
seed_class_1_2_119801/603445
    3     2     1     1     1
SMALL
USER_CHARGES


@<TRIPOS>ATOM
      1 H           1.1041    1.2698   -0.5295 H.spc      1 <1>        0.000
      2 H           1.7375    2.9756   -1.2830 H.spc      1 <1>        0.000
      3 O           0.9402    2.6521   -0.8573 O.3        1 <1>        0.000
@<TRIPOS>BOND
     1    3    1 1  
     2    3    2 1  
