# Name:          seed_class_4_261_42/38664
# Creation time: Fri May 21 00:57:16 2010


@<TRIPOS>MOLECULE
seed_class_4_261_42/38664
   38    38     1     1     1
SMALL
USER_CHARGES


@<TRIPOS>ATOM
      1 H          -1.6984    2.6898    1.1191 H.spc      1 <1>        0.000
      2 C          -0.3933    2.8901    0.5700 C.3        1 <1>        0.000
      3 C          -0.3789    4.2197   -0.2070 C.3        1 <1>        0.000
      4 C          -0.3220    4.0721   -1.7390 C.3        1 <1>        0.000
      5 C           0.7160    4.9972   -2.3986 C.3        1 <1>        0.000
      6 C           1.6585    4.3569   -3.3900 C.2        1 <1>        0.000
      7 C           3.1608    4.4676   -3.2798 C.3        1 <1>        0.000
      8 C           3.9535    3.1463   -3.2989 C.3        1 <1>        0.000
      9 C           4.9687    3.0240   -2.1491 C.3        1 <1>        0.000
     10 C           4.9051    1.6860   -1.3891 C.3        1 <1>        0.000
     11 O           4.8218    1.7998    0.0339 O.3        1 <1>        0.000
     12 C           3.9059    1.1862    0.8131 C.2        1 <1>        0.000
     13 C           3.0269    1.8537    1.8436 C.3        1 <1>        0.000
     14 C           1.5223    1.5553    1.7067 C.3        1 <1>        0.000
     15 C           0.6418    2.8188    1.7080 C.3        1 <1>        0.000
     16 H          -0.0737    2.9356    3.0508 H.spc      1 <1>        0.000
     17 H           1.1163    0.7025    2.7804 H.spc      1 <1>        0.000
     18 H           3.4959    1.4582    3.2408 H.spc      1 <1>        0.000
     19 O           3.7764   -0.0186    0.6716 O.2        1 <1>        0.000
     20 H           6.1205    0.8366   -1.7581 H.spc      1 <1>        0.000
     21 H           6.2905    3.2239   -2.6570 H.spc      1 <1>        0.000
     22 H           4.7700    4.1776   -1.1702 H.spc      1 <1>        0.000
     23 H           4.6447    3.0348   -4.5458 H.spc      1 <1>        0.000
     24 H           3.6748    5.3705   -4.3974 H.spc      1 <1>        0.000
     25 O           1.1902    3.7285   -4.3118 O.2        1 <1>        0.000
     26 H           1.5339    5.6826   -1.3078 H.spc      1 <1>        0.000
     27 H          -1.5262    4.9940    0.1521 H.spc      1 <1>        0.000
     28 H           0.7971    5.0709    0.2631 H.spc      1 <1>        0.000
     29 H          -0.1268    2.1098   -0.1429 H.spc      1 <1>        0.000
     30 H          -1.3020    4.3407   -2.1335 H.spc      1 <1>        0.000
     31 H          -0.0370    3.0438   -1.9616 H.spc      1 <1>        0.000
     32 H           0.1260    5.6970   -2.9904 H.spc      1 <1>        0.000
     33 H           3.3351    4.8797   -2.2859 H.spc      1 <1>        0.000
     34 H           3.2303    2.3411   -3.1697 H.spc      1 <1>        0.000
     35 H           3.9724    1.2158   -1.7008 H.spc      1 <1>        0.000
     36 H           3.1317    2.9248    1.6709 H.spc      1 <1>        0.000
     37 H           1.3825    1.0741    0.7387 H.spc      1 <1>        0.000
     38 H           1.3228    3.6532    1.5404 H.spc      1 <1>        0.000
@<TRIPOS>BOND
     1    2    1 1  
     2    2    3 1  
     3    3    4 1  
     4    4    5 1  
     5    5    6 1  
     6    6    7 1  
     7    7    8 1  
     8    8    9 1  
     9    9   10 1  
    10   10   11 1  
    11   11   12 1  
    12   12   13 1  
    13   13   14 1  
    14   14   15 1  
    15   15    2 1  
    16   15   16 1  
    17   14   17 1  
    18   13   18 1  
    19   12   19 2  
    20   10   20 1  
    21    9   21 1  
    22    9   22 1  
    23    8   23 1  
    24    7   24 1  
    25    6   25 2  
    26    5   26 1  
    27    3   27 1  
    28    3   28 1  
    29    2   29 1  
    30    4   30 1  
    31    4   31 1  
    32    5   32 1  
    33    7   33 1  
    34    8   34 1  
    35   10   35 1  
    36   13   36 1  
    37   14   37 1  
    38   15   38 1  
