# Name:          seed_class_4_154_1185/38664
# Creation time: Fri May 21 00:57:15 2010


@<TRIPOS>MOLECULE
seed_class_4_154_1185/38664
   17    17     1     1     1
SMALL
USER_CHARGES


@<TRIPOS>ATOM
      1 H          -2.9939   -2.6818    1.5833 H.spc      1 <1>        0.000
      2 N          -4.3313   -2.1755    1.9239 N.3        1 <1>        0.000
      3 C          -4.2024   -0.9233    2.6831 C.3        1 <1>        0.000
      4 C          -5.5849   -0.3424    3.0294 C.3        1 <1>        0.000
      5 C          -6.4571   -1.3727    3.7705 C.3        1 <1>        0.000
      6 C          -6.4873   -2.7205    3.0262 C.3        1 <1>        0.000
      7 C          -5.0659   -3.2010    2.6786 C.3        1 <1>        0.000
      8 H          -3.6619   -0.1992    2.0735 H.spc      1 <1>        0.000
      9 H          -3.6682   -1.1303    3.6104 H.spc      1 <1>        0.000
     10 H          -6.0870   -0.0668    2.1020 H.spc      1 <1>        0.000
     11 H          -5.4446    0.5227    3.6775 H.spc      1 <1>        0.000
     12 H          -7.4747   -0.9866    3.8298 H.spc      1 <1>        0.000
     13 H          -6.0355   -1.5340    4.7626 H.spc      1 <1>        0.000
     14 H          -7.0461   -2.5921    2.0992 H.spc      1 <1>        0.000
     15 H          -6.9558   -3.4629    3.6724 H.spc      1 <1>        0.000
     16 H          -5.1411   -4.0989    2.0653 H.spc      1 <1>        0.000
     17 H          -4.5294   -3.4036    3.6056 H.spc      1 <1>        0.000
@<TRIPOS>BOND
     1    1    2 1  
     2    2    3 1  
     3    3    4 1  
     4    4    5 1  
     5    5    6 1  
     6    6    7 1  
     7    7    2 1  
     8    3    8 1  
     9    3    9 1  
    10    4   10 1  
    11    4   11 1  
    12    5   12 1  
    13    5   13 1  
    14    6   14 1  
    15    6   15 1  
    16    7   16 1  
    17    7   17 1  
