# Name:          seed_class_5_467_37/34898
# Creation time: Fri May 21 00:57:19 2010


@<TRIPOS>MOLECULE
seed_class_5_467_37/34898
   44    47     1     1     1
SMALL
USER_CHARGES


@<TRIPOS>ATOM
      1 H          -4.9205   -0.0581    1.6595 H.spc      1 <1>        0.000
      2 C          -3.9124    0.7836    1.0936 C.3        1 <1>        0.000
      3 C          -2.5917    0.0126    0.9117 C.3        1 <1>        0.000
      4 C          -1.4927    1.0899    0.9697 C.3        1 <1>        0.000
      5 C          -0.0904    0.4596    1.0592 C.3        1 <1>        0.000
      6 C           0.1550   -0.5340   -0.0915 C.3        1 <1>        0.000
      7 C           1.5573   -1.1642   -0.0020 C.3        1 <1>        0.000
      8 C           2.6562   -0.0870    0.0560 C.3        1 <1>        0.000
      9 C           2.4108    0.9066    1.2067 C.3        1 <1>        0.000
     10 C           1.0086    1.5369    1.1172 C.3        1 <1>        0.000
     11 C           4.0597   -0.7146    0.1456 C.3        1 <1>        0.000
     12 C           4.2849   -1.7414   -0.9384 C.2        1 <1>        0.000
     13 C           3.2027   -2.7824   -1.0972 C.3        1 <1>        0.000
     14 C           1.8077   -2.1341   -1.1717 C.3        1 <1>        0.000
     15 O           5.2725   -1.7307   -1.6374 O.2        1 <1>        0.000
     16 H           1.5791   -2.0020    1.2733 H.spc      1 <1>        0.000
     17 C          -0.9440   -1.6112   -0.1495 C.3        1 <1>        0.000
     18 C          -2.3463   -0.9809   -0.2390 C.3        1 <1>        0.000
     19 C          -2.0270    2.1257    1.9762 C.3        1 <1>        0.000
     20 C          -3.5528    1.9322    2.0543 C.3        1 <1>        0.000
     21 H          -2.4987   -0.8949    2.1350 H.spc      1 <1>        0.000
     22 H          -4.3175    1.1438    0.1479 H.spc      1 <1>        0.000
     23 H          -1.2925    1.6720    0.0702 H.spc      1 <1>        0.000
     24 H          -0.0447   -0.1034    1.9914 H.spc      1 <1>        0.000
     25 H           0.1094    0.0289   -1.0238 H.spc      1 <1>        0.000
     26 H           2.6096    0.4744   -0.8772 H.spc      1 <1>        0.000
     27 H           3.1525    1.7026    1.1402 H.spc      1 <1>        0.000
     28 H           2.4879    0.3677    2.1510 H.spc      1 <1>        0.000
     29 H           0.9555    2.1343    0.2070 H.spc      1 <1>        0.000
     30 H           0.8470    2.1482    2.0051 H.spc      1 <1>        0.000
     31 H           4.1523   -1.2105    1.1119 H.spc      1 <1>        0.000
     32 H           4.7979    0.0783    0.0253 H.spc      1 <1>        0.000
     33 H           3.2307   -3.4461   -0.2330 H.spc      1 <1>        0.000
     34 H           3.3808   -3.3290   -2.0233 H.spc      1 <1>        0.000
     35 H           1.0611   -2.9267   -1.1223 H.spc      1 <1>        0.000
     36 H           1.7443   -1.5692   -2.1017 H.spc      1 <1>        0.000
     37 H          -0.8909   -2.2085    0.7607 H.spc      1 <1>        0.000
     38 H          -0.7824   -2.2224   -1.0374 H.spc      1 <1>        0.000
     39 H          -3.0880   -1.7769   -0.1725 H.spc      1 <1>        0.000
     40 H          -2.4234   -0.4420   -1.1833 H.spc      1 <1>        0.000
     41 H          -1.7826    3.1380    1.6542 H.spc      1 <1>        0.000
     42 H          -1.5696    1.9835    2.9553 H.spc      1 <1>        0.000
     43 H          -4.0721    2.8478    1.7712 H.spc      1 <1>        0.000
     44 H          -3.8590    1.6926    3.0726 H.spc      1 <1>        0.000
@<TRIPOS>BOND
     1    2    1 1  
     2    2    3 1  
     3    3    4 1  
     4    4    5 1  
     5    5    6 1  
     6    6    7 1  
     7    7    8 1  
     8    8    9 1  
     9    9   10 1  
    10   10    5 1  
    11    8   11 1  
    12   11   12 1  
    13   12   13 1  
    14   13   14 1  
    15   14    7 1  
    16   12   15 2  
    17    7   16 1  
    18    6   17 1  
    19   17   18 1  
    20   18    3 1  
    21    4   19 1  
    22   19   20 1  
    23   20    2 1  
    24    3   21 1  
    25    2   22 1  
    26    4   23 1  
    27    5   24 1  
    28    6   25 1  
    29    8   26 1  
    30    9   27 1  
    31    9   28 1  
    32   10   29 1  
    33   10   30 1  
    34   11   31 1  
    35   11   32 1  
    36   13   33 1  
    37   13   34 1  
    38   14   35 1  
    39   14   36 1  
    40   17   37 1  
    41   17   38 1  
    42   18   39 1  
    43   18   40 1  
    44   19   41 1  
    45   19   42 1  
    46   20   43 1  
    47   20   44 1  
