# Name:          seed_class_5_574_20/34898
# Creation time: Fri May 21 00:57:20 2010


@<TRIPOS>MOLECULE
seed_class_5_574_20/34898
   16    17     1     1     1
SMALL
USER_CHARGES


@<TRIPOS>ATOM
      1 O           0.1236    1.9353    1.0208 O.3        1 <1>        0.000
      2 C           0.1237    0.9751   -0.0388 C.3        1 <1>        0.000
      3 C           1.5271    0.4228   -0.1138 C.ar       1 <1>        0.000
      4 C           2.2648    1.0718    0.8835 C.ar       1 <1>        0.000
      5 C           3.6194    0.7666    1.0627 C.ar       1 <1>        0.000
      6 C           4.2361   -0.1875    0.2446 C.ar       1 <1>        0.000
      7 C           3.4984   -0.8365   -0.7527 C.ar       1 <1>        0.000
      8 C           2.1438   -0.5313   -0.9318 C.ar       1 <1>        0.000
      9 C           1.3530    2.0115    1.5733 C.2        1 <1>        0.000
     10 O           1.6638    2.7430    2.4989 O.2        1 <1>        0.000
     11 H          -0.8624   -0.1488    0.2763 H.spc      1 <1>        0.000
     12 H          -0.1754    1.4278   -0.9842 H.spc      1 <1>        0.000
     13 H           4.1938    1.2718    1.8392 H.spc      1 <1>        0.000
     14 H           5.2907   -0.4251    0.3841 H.spc      1 <1>        0.000
     15 H           3.9786   -1.5793   -1.3897 H.spc      1 <1>        0.000
     16 H           1.5693   -1.0366   -1.7082 H.spc      1 <1>        0.000
@<TRIPOS>BOND
     1    1    2 1  
     2    2    3 1  
     3    3    4 ar 
     4    4    5 ar 
     5    5    6 ar 
     6    6    7 ar 
     7    7    8 ar 
     8    8    3 ar 
     9    4    9 1  
    10    9    1 1  
    11    9   10 2  
    12    2   11 1  
    13    2   12 1  
    14    5   13 1  
    15    6   14 1  
    16    7   15 1  
    17    8   16 1  
