#	Name:			isochroman
#	Creating user name:	becker
#	Creation time:		Thu Dec 19 02:54:55 2002

#	Modifying user name:	zmliu
#	Modification time:	Thu Mar 11 20:55:38 2004

@<TRIPOS>MOLECULE
isochroman
   20    21     1     1     0
SMALL
GAST_HUCK


@<TRIPOS>ATOM
      1 C1          1.0100    1.6609    0.1365 C.3       1 ISOCHROMAN    0.0799 
      2 O1          2.2069    0.9739    0.5427 O.3       1 ISOCHROMAN   -0.4118 
      3 C2          2.4227   -0.2289   -0.2129 C.3       1 ISOCHROMAN    0.0772 
      4 C3          1.3389   -1.2623    0.1773 C.3       1 ISOCHROMAN   -0.0297 
      5 C4         -1.1867   -1.4733    0.0175 C.ar      1 ISOCHROMAN    0.0678 
      6 C5         -2.4665   -0.9164   -0.0579 C.ar      1 ISOCHROMAN    0.0890 
      7 C6         -2.6229    0.4723   -0.0616 C.ar      1 ISOCHROMAN    0.0891 
      8 C7         -1.4987    1.3000    0.0045 C.ar      1 ISOCHROMAN    0.0700 
      9 C8         -0.2166    0.7444    0.0758 C.ar      1 ISOCHROMAN   -0.0038 
     10 C9         -0.0602   -0.6463    0.0863 C.ar      1 ISOCHROMAN   -0.0279 
     11 H1          1.1570    2.1079   -0.8590 H.spc     1 ISOCHROMAN   -1.0000 
     12 H2          0.8360    2.4719    0.8597 H.spc     1 ISOCHROMAN   -1.0000 
     13 H3          3.4171   -0.6252    0.0465 H.spc     1 ISOCHROMAN   -1.0000 
     14 H4          2.4062   -0.0256   -1.2967 H.spc     1 ISOCHROMAN   -1.0000 
     15 H5          1.4893   -1.5766    1.2223 H.spc     1 ISOCHROMAN   -1.0000 
     16 H6          1.4169   -2.1480   -0.4739 H.spc     1 ISOCHROMAN   -1.0000 
     17 H7         -1.0710   -2.5524    0.0241 H.spc     1 ISOCHROMAN   -1.0000 
     18 H8         -3.3380   -1.5615   -0.1131 H.spc     1 ISOCHROMAN   -1.0000 
     19 H9         -3.6161    0.9072   -0.1163 H.spc     1 ISOCHROMAN   -1.0000 
     20 H10        -1.6243    2.3780   -0.0016 H.spc     1 ISOCHROMAN   -1.0000 
@<TRIPOS>BOND
     1    2    1 1    
     2    1    9 1    
     3    3    2 1    
     4    4    3 1    
     5   10    4 1    
     6    5    6 ar   
     7    5   10 ar   
     8    6    7 ar   
     9    7    8 ar   
    10    8    9 ar   
    11    9   10 ar   
    12    1   11 1    
    13    1   12 1    
    14    3   13 1    
    15    3   14 1    
    16    4   15 1    
    17    4   16 1    
    18    5   17 1    
    19    6   18 1    
    20    7   19 1    
    21    8   20 1    
@<TRIPOS>SUBSTRUCTURE
     1 ISOCHROMAN     5 PERM              0 ****  ****    0 ROOT 
@<TRIPOS>NORMAL
@<TRIPOS>FF_PBC
FORCE_FIELD_SETUP_FEATURE Force Field Setup information
v1.0  0 0.000000 0.000000 0.000000 0.000000 0.000000 0.000000 NONE 2 0 0 0 0 0 0 0 0 0 0 0 0
