#	Name:			ethanolamine
#	Creating user name:	becker
#	Creation time:		Thu Dec 19 02:54:53 2002

#	Modifying user name:	zmliu
#	Modification time:	Thu Mar 11 20:45:37 2004

@<TRIPOS>MOLECULE
ethanolamine
   12    11     1     1     0
SMALL
GAST_HUCK


@<TRIPOS>ATOM
      1 N1          1.5397   -0.1879    0.0000 N.4       1 ETHANOLAMINE    0.5998 
      2 C1          0.2855    0.5997    0.0000 C.3       1 ETHANOLAMINE    0.3510 
      3 C2         -0.9662   -0.3142    0.0000 C.3       1 ETHANOLAMINE    0.2622 
      4 O1         -2.1460    0.5085    0.0000 O.3       1 ETHANOLAMINE   -0.2130 
      5 H5          2.4085    0.4572    0.0009 H.spc     1 ETHANOLAMINE   -1.0000 
      6 H6          1.6154   -0.8212   -0.8735 H.spc     1 ETHANOLAMINE   -1.0000 
      7 H7          0.2521    1.2476    0.8926 H.spc     1 ETHANOLAMINE   -1.0000 
      8 H8          0.2522    1.2476   -0.8926 H.spc     1 ETHANOLAMINE   -1.0000 
      9 H9         -0.9531   -0.9561   -0.8970 H.spc     1 ETHANOLAMINE   -1.0000 
     10 H10        -0.9532   -0.9560    0.8970 H.spc     1 ETHANOLAMINE   -1.0000 
     11 H11         1.6146   -0.8226    0.8726 H.spc     1 ETHANOLAMINE   -1.0000 
     12 ****       -2.9495   -0.0026    0.0000 H.spc     1 ETHANOLAMINE   -1.0000 
@<TRIPOS>BOND
     1    2    1 1    
     2    2    3 1    
     3    3    4 1    
     4    1    5 1    
     5    1    6 1    
     6    2    7 1    
     7    2    8 1    
     8    3    9 1    
     9    3   10 1    
    10    1   11 1    
    11    4   12 1    
@<TRIPOS>SUBSTRUCTURE
     1 ETHANOLAMINE     1 PERM              0 ****  ****    0 ROOT 
@<TRIPOS>NORMAL
@<TRIPOS>FF_PBC
FORCE_FIELD_SETUP_FEATURE Force Field Setup information
v1.0  0 0.000000 0.000000 0.000000 0.000000 0.000000 0.000000 NONE 2 0 0 0 0 0 0 0 0 0 0 0 0
