# Name:          seed_class_1_3_15834/603445
# Creation time: Fri May 21 00:57:10 2010


@<TRIPOS>MOLECULE
seed_class_1_3_15834/603445
    4     3     1     1     1
SMALL
USER_CHARGES


@<TRIPOS>ATOM
      1 H          -3.6436   -1.8608   -1.2307 H.spc      1 <1>        0.000
      2 H          -5.6761   -3.0763   -0.8384 H.spc      1 <1>        0.000
      3 H          -3.5925   -3.9175    0.0063 H.spc      1 <1>        0.000
      4 N          -4.3725   -2.7027   -0.2711 N.3        1 <1>        0.000
@<TRIPOS>BOND
     1    4    1 1  
     2    4    2 1  
     3    4    3 1  
