# Name:          seed_class_4_370_20/38664
# Creation time: Fri May 21 00:57:18 2010


@<TRIPOS>MOLECULE
seed_class_4_370_20/38664
   26    28     1     1     1
SMALL
USER_CHARGES


@<TRIPOS>ATOM
      1 H           4.4380    2.0756    0.7063 H.spc      1 <1>        0.000
      2 C           3.1689    1.5607    0.6693 C.ar       1 <1>        0.000
      3 C           2.6615    0.8695    1.7759 C.ar       1 <1>        0.000
      4 C           1.3647    0.3433    1.7382 C.ar       1 <1>        0.000
      5 C           0.5753    0.5084    0.5938 C.ar       1 <1>        0.000
      6 C           1.0828    1.1996   -0.5129 C.ar       1 <1>        0.000
      7 C           2.3796    1.7258   -0.4751 C.ar       1 <1>        0.000
      8 H           0.3104    1.3612   -1.6328 H.spc      1 <1>        0.000
      9 H          -0.7956   -0.0478    0.5538 H.spc      1 <1>        0.000
     10 C           0.8552   -0.3954    2.9526 C.3        1 <1>        0.000
     11 C           1.9756   -1.2104    3.6251 C.3        1 <1>        0.000
     12 C           3.1839   -0.3446    3.8907 C.ar       1 <1>        0.000
     13 C           3.4838    0.6869    2.9928 C.ar       1 <1>        0.000
     14 C           4.5798    1.5250    3.2304 C.ar       1 <1>        0.000
     15 C           5.3757    1.3317    4.3658 C.ar       1 <1>        0.000
     16 C           5.0757    0.3003    5.2636 C.ar       1 <1>        0.000
     17 C           3.9798   -0.5379    5.0260 C.ar       1 <1>        0.000
     18 H           5.8546    0.1111    6.3746 H.spc      1 <1>        0.000
     19 H           2.7747    2.2640   -1.3367 H.spc      1 <1>        0.000
     20 H           0.0698   -1.0818    2.6361 H.spc      1 <1>        0.000
     21 H           0.4798    0.3346    3.6697 H.spc      1 <1>        0.000
     22 H           2.2657   -2.0239    2.9602 H.spc      1 <1>        0.000
     23 H           1.6062   -1.5987    4.5743 H.spc      1 <1>        0.000
     24 H           4.8134    2.3280    2.5314 H.spc      1 <1>        0.000
     25 H           6.2290    1.9843    4.5508 H.spc      1 <1>        0.000
     26 H           3.7463   -1.3410    5.7250 H.spc      1 <1>        0.000
@<TRIPOS>BOND
     1    1    2 1  
     2    2    3 ar 
     3    3    4 ar 
     4    4    5 ar 
     5    5    6 ar 
     6    6    7 ar 
     7    7    2 ar 
     8    6    8 1  
     9    5    9 1  
    10    4   10 1  
    11   10   11 1  
    12   11   12 1  
    13   12   13 ar 
    14   13    3 1  
    15   13   14 ar 
    16   14   15 ar 
    17   15   16 ar 
    18   16   17 ar 
    19   17   12 ar 
    20   16   18 1  
    21    7   19 1  
    22   10   20 1  
    23   10   21 1  
    24   11   22 1  
    25   11   23 1  
    26   14   24 1  
    27   15   25 1  
    28   17   26 1  
