# Name:          seed_class_4_216_75/38664
# Creation time: Fri May 21 00:57:16 2010


@<TRIPOS>MOLECULE
seed_class_4_216_75/38664
   13    13     1     1     1
SMALL
USER_CHARGES


@<TRIPOS>ATOM
      1 O          -2.4268    0.1291   -0.3601 O.3        1 <1>        0.000
      2 C          -2.0632   -1.1947    0.0403 C.3        1 <1>        0.000
      3 C          -2.8303   -2.3704   -0.5928 C.3        1 <1>        0.000
      4 C          -3.9075   -2.0134   -1.5890 C.2        1 <1>        0.000
      5 C          -4.1600   -0.7315   -1.8864 C.2        1 <1>        0.000
      6 C          -3.4034    0.3751   -1.2591 C.2        1 <1>        0.000
      7 O          -3.6665    1.5280   -1.5593 O.2        1 <1>        0.000
      8 H          -3.4265   -3.1353    0.4581 H.spc      1 <1>        0.000
      9 H          -0.5694   -1.3906   -0.2143 H.spc      1 <1>        0.000
     10 H          -2.3399   -1.2365    1.0938 H.spc      1 <1>        0.000
     11 H          -2.0839   -2.9194   -1.1669 H.spc      1 <1>        0.000
     12 H          -4.4837   -2.8041   -2.0696 H.spc      1 <1>        0.000
     13 H          -4.9423   -0.4978   -2.6085 H.spc      1 <1>        0.000
@<TRIPOS>BOND
     1    1    2 1  
     2    2    3 1  
     3    3    4 1  
     4    4    5 2  
     5    5    6 1  
     6    6    1 1  
     7    6    7 2  
     8    3    8 1  
     9    2    9 1  
    10    2   10 1  
    11    3   11 1  
    12    4   12 1  
    13    5   13 1  
