# Name:          seed_class_4_337_24/38664
# Creation time: Fri May 21 00:57:17 2010


@<TRIPOS>MOLECULE
seed_class_4_337_24/38664
   25    28     1     1     1
SMALL
USER_CHARGES


@<TRIPOS>ATOM
      1 N           2.2475   -4.7926    0.3978 N.pl3      1 <1>        0.000
      2 N           2.6430   -3.8250    1.4027 N.ar       1 <1>        0.000
      3 C           1.6166   -3.1823    1.9279 C.ar       1 <1>        0.000
      4 C           0.5210   -3.8253    1.1684 C.ar       1 <1>        0.000
      5 C           0.8431   -4.8095    0.2262 C.ar       1 <1>        0.000
      6 C          -0.1720   -5.4352   -0.5073 C.ar       1 <1>        0.000
      7 C          -1.5092   -5.0768   -0.2986 C.ar       1 <1>        0.000
      8 C          -1.8312   -4.0926    0.6435 C.ar       1 <1>        0.000
      9 C          -0.8161   -3.4668    1.3770 C.ar       1 <1>        0.000
     10 C          -1.1551   -2.4262    2.3733 C.2        1 <1>        0.000
     11 C          -0.0639   -1.7796    3.1359 C.ar       1 <1>        0.000
     12 C           1.2714   -2.1424    2.9228 C.ar       1 <1>        0.000
     13 C           2.2909   -1.5202    3.6533 C.ar       1 <1>        0.000
     14 C           1.9751   -0.5353    4.5968 C.ar       1 <1>        0.000
     15 C           0.6398   -0.1726    4.8099 C.ar       1 <1>        0.000
     16 C          -0.3797   -0.7947    4.0795 C.ar       1 <1>        0.000
     17 H          -1.6864   -0.4398    4.2880 H.spc      1 <1>        0.000
     18 O          -2.3265   -2.1035    2.5647 O.2        1 <1>        0.000
     19 H          -3.1827   -3.7302    0.8544 H.spc      1 <1>        0.000
     20 H           3.1848   -5.6461   -0.3466 H.spc      1 <1>        0.000
     21 H           0.0787   -6.2014   -1.2409 H.spc      1 <1>        0.000
     22 H          -2.2995   -5.5640   -0.8696 H.spc      1 <1>        0.000
     23 H           3.3305   -1.8026    3.4874 H.spc      1 <1>        0.000
     24 H           2.7688   -0.0509    5.1655 H.spc      1 <1>        0.000
     25 H           0.3939    0.5942    5.5445 H.spc      1 <1>        0.000
@<TRIPOS>BOND
     1    1    2 ar 
     2    2    3 ar 
     3    3    4 ar 
     4    4    5 ar 
     5    5    1 ar 
     6    5    6 ar 
     7    6    7 ar 
     8    7    8 ar 
     9    8    9 ar 
    10    9    4 ar 
    11    9   10 1  
    12   10   11 1  
    13   11   12 ar 
    14   12    3 1  
    15   12   13 ar 
    16   13   14 ar 
    17   14   15 ar 
    18   15   16 ar 
    19   16   11 ar 
    20   16   17 1  
    21   10   18 2  
    22    8   19 1  
    23    1   20 1  
    24    6   21 1  
    25    7   22 1  
    26   13   23 1  
    27   14   24 1  
    28   15   25 1  
