# Name:          seed_class_4_174_258/38664
# Creation time: Fri May 21 00:57:15 2010


@<TRIPOS>MOLECULE
seed_class_4_174_258/38664
   13    13     1     1     1
SMALL
USER_CHARGES


@<TRIPOS>ATOM
      1 H          -0.7512   -0.0362    2.0752 H.spc      1 <1>        0.000
      2 N          -1.3008   -1.3995    2.0809 N.am       1 <1>        0.000
      3 C          -1.1545   -2.3534    0.9720 C.3        1 <1>        0.000
      4 C          -1.5894   -3.7288    1.5112 C.3        1 <1>        0.000
      5 C          -2.4019   -3.3373    2.7595 C.3        1 <1>        0.000
      6 C          -1.9919   -1.9221    3.0900 C.2        1 <1>        0.000
      7 O          -2.2581   -1.3380    4.1392 O.2        1 <1>        0.000
      8 H          -0.1238   -2.3830    0.6185 H.spc      1 <1>        0.000
      9 H          -1.7689   -2.0576    0.1216 H.spc      1 <1>        0.000
     10 H          -0.7527   -4.3923    1.7299 H.spc      1 <1>        0.000
     11 H          -2.1588   -4.3159    0.7907 H.spc      1 <1>        0.000
     12 H          -2.2013   -4.0127    3.5911 H.spc      1 <1>        0.000
     13 H          -3.4736   -3.4063    2.5728 H.spc      1 <1>        0.000
@<TRIPOS>BOND
     1    1    2 1  
     2    2    3 1  
     3    3    4 1  
     4    4    5 1  
     5    5    6 1  
     6    6    2 am 
     7    6    7 2  
     8    3    8 1  
     9    3    9 1  
    10    4   10 1  
    11    4   11 1  
    12    5   12 1  
    13    5   13 1  
