# Name:          seed_class_4_359_21/38664
# Creation time: Fri May 21 00:57:18 2010


@<TRIPOS>MOLECULE
seed_class_4_359_21/38664
   33    36     1     1     1
SMALL
USER_CHARGES


@<TRIPOS>ATOM
      1 H         -10.6013   -1.7089   -0.8482 H.spc      1 <1>        0.000
      2 C         -11.7875   -1.2376   -1.4930 C.3        1 <1>        0.000
      3 O         -12.8622   -1.2264   -0.5497 O.3        1 <1>        0.000
      4 C         -13.0970   -2.5238    0.0040 C.3        1 <1>        0.000
      5 C         -13.5139   -3.5308   -1.0840 C.3        1 <1>        0.000
      6 O         -14.0738   -4.8461   -1.0507 O.3        1 <1>        0.000
      7 C         -14.0095   -5.2971   -2.4062 C.3        1 <1>        0.000
      8 O         -12.7712   -4.7965   -2.9171 O.3        1 <1>        0.000
      9 C         -12.4870   -3.5745   -2.2309 C.3        1 <1>        0.000
     10 C         -12.1113   -2.1528   -2.6884 C.3        1 <1>        0.000
     11 H         -13.2015   -1.5937   -3.4257 H.spc      1 <1>        0.000
     12 O         -15.0910   -4.7493   -3.1644 O.3        1 <1>        0.000
     13 C         -14.9787   -5.0859   -4.5497 C.3        1 <1>        0.000
     14 C         -15.0449   -6.6080   -4.7738 C.3        1 <1>        0.000
     15 C         -13.9907   -7.3327   -3.9165 C.3        1 <1>        0.000
     16 O         -13.7363   -8.7393   -3.8752 O.3        1 <1>        0.000
     17 C         -13.3175   -8.9881   -2.5307 C.3        1 <1>        0.000
     18 O         -13.1417   -7.7721   -1.7991 O.3        1 <1>        0.000
     19 C         -13.9982   -6.8361   -2.4587 C.3        1 <1>        0.000
     20 H         -16.3518   -7.0925   -4.4540 H.spc      1 <1>        0.000
     21 H         -14.8255   -6.9281   -6.2517 H.spc      1 <1>        0.000
     22 H         -16.0832   -4.3947   -5.3441 H.spc      1 <1>        0.000
     23 H         -11.6410   -0.2229   -1.8633 H.spc      1 <1>        0.000
     24 H         -13.9032   -2.4484    0.7337 H.spc      1 <1>        0.000
     25 H         -12.1747   -2.8753    0.4664 H.spc      1 <1>        0.000
     26 H         -14.4731   -3.0137   -1.0578 H.spc      1 <1>        0.000
     27 H         -11.4114   -3.7423   -2.1751 H.spc      1 <1>        0.000
     28 H         -11.2204   -2.2223   -3.3125 H.spc      1 <1>        0.000
     29 H         -14.0054   -4.7404   -4.8982 H.spc      1 <1>        0.000
     30 H         -13.1803   -7.0308   -4.5799 H.spc      1 <1>        0.000
     31 H         -12.3627   -9.5131   -2.5595 H.spc      1 <1>        0.000
     32 H         -14.0871   -9.5796   -2.0347 H.spc      1 <1>        0.000
     33 H         -14.8671   -6.8687   -1.8014 H.spc      1 <1>        0.000
@<TRIPOS>BOND
     1    1    2 1  
     2    2    3 1  
     3    3    4 1  
     4    4    5 1  
     5    5    6 1  
     6    6    7 1  
     7    7    8 1  
     8    8    9 1  
     9    9    5 1  
    10    9   10 1  
    11   10    2 1  
    12   10   11 1  
    13    7   12 1  
    14   12   13 1  
    15   13   14 1  
    16   14   15 1  
    17   15   16 1  
    18   16   17 1  
    19   17   18 1  
    20   18   19 1  
    21   19    7 1  
    22   19   15 1  
    23   14   20 1  
    24   14   21 1  
    25   13   22 1  
    26    2   23 1  
    27    4   24 1  
    28    4   25 1  
    29    5   26 1  
    30    9   27 1  
    31   10   28 1  
    32   13   29 1  
    33   15   30 1  
    34   17   31 1  
    35   17   32 1  
    36   19   33 1  
