# Name:          seed_class_5_473_36/34898
# Creation time: Fri May 21 00:57:19 2010


@<TRIPOS>MOLECULE
seed_class_5_473_36/34898
   13    13     1     1     1
SMALL
USER_CHARGES


@<TRIPOS>ATOM
      1 H           7.0619   -0.0615    0.5522 H.spc      1 <1>        0.000
      2 C           7.1134   -1.1814   -0.4594 C.ar       1 <1>        0.000
      3 C           8.1106   -1.1918   -1.4421 C.ar       1 <1>        0.000
      4 C           8.1584   -2.2300   -2.3800 C.ar       1 <1>        0.000
      5 C           7.2090   -3.2580   -2.3353 C.ar       1 <1>        0.000
      6 C           6.2118   -3.2476   -1.3526 C.ar       1 <1>        0.000
      7 C           6.1640   -2.2093   -0.4147 C.ar       1 <1>        0.000
      8 O           7.2557   -4.2740   -3.2531 O.3        1 <1>        0.000
      9 H           6.2400   -5.2789   -3.1945 H.spc      1 <1>        0.000
     10 Br          9.5117   -2.2441   -3.7135 Br         1 <1>        0.000
     11 H           8.8498   -0.3915   -1.4769 H.spc      1 <1>        0.000
     12 H           5.4726   -4.0479   -1.3178 H.spc      1 <1>        0.000
     13 H           5.3876   -2.2012    0.3503 H.spc      1 <1>        0.000
@<TRIPOS>BOND
     1    1    2 1  
     2    2    3 ar 
     3    3    4 ar 
     4    4    5 ar 
     5    5    6 ar 
     6    6    7 ar 
     7    7    2 ar 
     8    5    8 1  
     9    8    9 1  
    10    4   10 1  
    11    3   11 1  
    12    6   12 1  
    13    7   13 1  
