# Name:          seed_class_4_282_34/38664
# Creation time: Fri May 21 00:57:16 2010


@<TRIPOS>MOLECULE
seed_class_4_282_34/38664
   12    12     1     1     1
SMALL
USER_CHARGES


@<TRIPOS>ATOM
      1 S          -5.4507   -3.4604   -0.4686 S.3        1 <1>        0.000
      2 C          -4.0297   -2.7867   -1.3847 C.3        1 <1>        0.000
      3 C          -3.5735   -1.6482   -0.4535 C.3        1 <1>        0.000
      4 N          -4.7798   -0.9981    0.0786 N.3        1 <1>        0.000
      5 C          -5.6243   -2.0481    0.6661 C.3        1 <1>        0.000
      6 H          -7.0623   -1.6044    0.7897 H.spc      1 <1>        0.000
      7 H          -2.7464   -0.6489   -1.2263 H.spc      1 <1>        0.000
      8 H          -4.2794   -2.4523   -2.3917 H.spc      1 <1>        0.000
      9 H          -3.2519   -3.5234   -1.5855 H.spc      1 <1>        0.000
     10 H          -2.9612   -2.0407    0.3584 H.spc      1 <1>        0.000
     11 H          -5.2806   -0.5117   -0.6651 H.spc      1 <1>        0.000
     12 H          -5.3194   -2.2987    1.6821 H.spc      1 <1>        0.000
@<TRIPOS>BOND
     1    1    2 1  
     2    2    3 1  
     3    3    4 1  
     4    4    5 1  
     5    5    1 1  
     6    5    6 1  
     7    3    7 1  
     8    2    8 1  
     9    2    9 1  
    10    3   10 1  
    11    4   11 1  
    12    5   12 1  
