# Name:          seed_class_5_565_20/34898
# Creation time: Fri May 21 00:57:20 2010


@<TRIPOS>MOLECULE
seed_class_5_565_20/34898
   19    19     1     1     1
SMALL
USER_CHARGES


@<TRIPOS>ATOM
      1 N          -2.1252   -0.2077   -0.6365 N.am       1 <1>        0.000
      2 C          -0.7624   -0.1641   -0.2579 C.ar       1 <1>        0.000
      3 C           0.1207    0.6974   -0.9197 C.ar       1 <1>        0.000
      4 C           1.4689    0.7406   -0.5452 C.ar       1 <1>        0.000
      5 C           1.9341   -0.0778    0.4911 C.ar       1 <1>        0.000
      6 C           1.0510   -0.9393    1.1529 C.ar       1 <1>        0.000
      7 C          -0.2973   -0.9824    0.7784 C.ar       1 <1>        0.000
      8 C           3.3595   -0.0321    0.8870 C.2        1 <1>        0.000
      9 O           4.1227    0.7399    0.3305 O.2        1 <1>        0.000
     10 O           3.8049   -0.8267    1.8423 O.3        1 <1>        0.000
     11 C          -2.9953    0.6347   -0.0869 C.2        1 <1>        0.000
     12 O          -2.6161    1.4494    0.7530 O.2        1 <1>        0.000
     13 H          -4.4487    0.5911   -0.4941 H.spc      1 <1>        0.000
     14 H          -2.4402   -0.8852   -1.3309 H.spc      1 <1>        0.000
     15 H          -0.2415    1.3345   -1.7266 H.spc      1 <1>        0.000
     16 H           2.1564    1.4114   -1.0604 H.spc      1 <1>        0.000
     17 H           1.4132   -1.5765    1.9597 H.spc      1 <1>        0.000
     18 H          -0.9849   -1.6531    1.2937 H.spc      1 <1>        0.000
     19 H           3.0820   -1.3656    2.1717 H.spc      1 <1>        0.000
@<TRIPOS>BOND
     1    1    2 1  
     2    2    3 ar 
     3    3    4 ar 
     4    4    5 ar 
     5    5    6 ar 
     6    6    7 ar 
     7    7    2 ar 
     8    5    8 1  
     9    8    9 2  
    10    8   10 1  
    11    1   11 am 
    12   11   12 2  
    13   11   13 1  
    14    1   14 1  
    15    3   15 1  
    16    4   16 1  
    17    6   17 1  
    18    7   18 1  
    19   10   19 1  
