#	Name:			pyridine
#	Creating user name:	becker
#	Creation time:		Thu Dec 19 02:55:01 2002

#	Modifying user name:	zmliu
#	Modification time:	Thu Mar 11 21:25:11 2004

@<TRIPOS>MOLECULE
pyridine
   11    11     1     1     0
SMALL
GAST_HUCK


@<TRIPOS>ATOM
      1 N1          0.0000    1.5824   -0.0013 N.ar      1 PYRIDINE   -0.2745 
      2 C1          1.1774    0.9232    0.0002 C.ar      1 PYRIDINE    0.0830 
      3 C2          1.2058   -0.4744   -0.0003 C.ar      1 PYRIDINE    0.0387 
      4 C3          0.0000   -1.1804   -0.0001 C.ar      1 PYRIDINE    0.0310 
      5 C4         -1.2058   -0.4745    0.0003 C.ar      1 PYRIDINE    0.0387 
      6 C5         -1.1775    0.9232   -0.0005 C.ar      1 PYRIDINE    0.0830 
      7 H1          2.1035    1.4880    0.0019 H.spc     1 PYRIDINE   -1.0000 
      8 H2          2.1531   -1.0048   -0.0009 H.spc     1 PYRIDINE   -1.0000 
      9 H3          0.0000   -2.2660   -0.0001 H.spc     1 PYRIDINE   -1.0000 
     10 H4         -2.1530   -1.0048    0.0013 H.spc     1 PYRIDINE   -1.0000 
     11 H5         -2.1035    1.4881   -0.0004 H.spc     1 PYRIDINE   -1.0000 
@<TRIPOS>BOND
     1    1    2 ar   
     2    1    6 ar   
     3    2    3 ar   
     4    3    4 ar   
     5    4    5 ar   
     6    5    6 ar   
     7    2    7 1    
     8    3    8 1    
     9    4    9 1    
    10    5   10 1    
    11    6   11 1    
@<TRIPOS>SUBSTRUCTURE
     1 PYRIDINE     1 PERM              0 ****  ****    0 ROOT 
@<TRIPOS>NORMAL
@<TRIPOS>FF_PBC
FORCE_FIELD_SETUP_FEATURE Force Field Setup information
v1.0  0 0.000000 0.000000 0.000000 0.000000 0.000000 0.000000 NONE 2 0 0 0 0 0 0 0 0 0 0 0 0
