# Name:          seed_class_4_236_57/38664
# Creation time: Fri May 21 00:57:16 2010


@<TRIPOS>MOLECULE
seed_class_4_236_57/38664
   16    17     1     1     1
SMALL
USER_CHARGES


@<TRIPOS>ATOM
      1 O          -1.2085    2.1036    1.1440 O.3        1 <1>        0.000
      2 C          -1.3834    1.1798    0.0666 C.3        1 <1>        0.000
      3 C          -0.0399    0.5283   -0.1588 C.ar       1 <1>        0.000
      4 C           0.8375    1.0896    0.7766 C.ar       1 <1>        0.000
      5 C           2.1758    0.6801    0.8147 C.ar       1 <1>        0.000
      6 C           2.6366   -0.2907   -0.0827 C.ar       1 <1>        0.000
      7 C           1.7591   -0.8520   -1.0181 C.ar       1 <1>        0.000
      8 C           0.4209   -0.4425   -1.0562 C.ar       1 <1>        0.000
      9 H           2.2100   -1.8020   -1.8962 H.spc      1 <1>        0.000
     10 H           3.0344    1.2294    1.7300 H.spc      1 <1>        0.000
     11 C           0.0705    2.0718    1.5749 C.2        1 <1>        0.000
     12 O           0.5236    2.7490    2.4829 O.2        1 <1>        0.000
     13 H          -2.4053    0.1346    0.4453 H.spc      1 <1>        0.000
     14 H          -1.7364    1.6827   -0.8337 H.spc      1 <1>        0.000
     15 H           3.6785   -0.6095   -0.0531 H.spc      1 <1>        0.000
     16 H          -0.2622   -0.8795   -1.7845 H.spc      1 <1>        0.000
@<TRIPOS>BOND
     1    1    2 1  
     2    2    3 1  
     3    3    4 ar 
     4    4    5 ar 
     5    5    6 ar 
     6    6    7 ar 
     7    7    8 ar 
     8    8    3 ar 
     9    7    9 1  
    10    5   10 1  
    11    4   11 1  
    12   11    1 1  
    13   11   12 2  
    14    2   13 1  
    15    2   14 1  
    16    6   15 1  
    17    8   16 1  
