#	Name:			chroman
#	Creating user name:	becker
#	Creation time:		Thu Dec 19 02:54:42 2002

#	Modifying user name:	zmliu
#	Modification time:	Thu Mar 11 20:36:32 2004

@<TRIPOS>MOLECULE
chroman
   20    21     1     1     0
SMALL
GAST_HUCK


@<TRIPOS>ATOM
      1 O1          0.8295    1.6590    0.1555 O.3       1 CHROMAN    -0.2786 
      2 C1          2.0565    1.0806   -0.3115 C.3       1 CHROMAN     0.1720 
      3 C2          2.2670   -0.2767    0.3955 C.3       1 CHROMAN    -0.0310 
      4 C3          1.1407   -1.2367   -0.0557 C.3       1 CHROMAN    -0.0989 
      5 C4         -1.3902   -1.3044   -0.0698 C.ar      1 CHROMAN     0.0147 
      6 C5         -2.6453   -0.6904   -0.0360 C.ar      1 CHROMAN     0.0256 
      7 C6         -2.7372    0.7007    0.0542 C.ar      1 CHROMAN     0.0304 
      8 C7         -1.5727    1.4710    0.1132 C.ar      1 CHROMAN     0.0594 
      9 C8         -0.3159    0.8599    0.0820 C.ar      1 CHROMAN     0.1315 
     10 C9         -0.2222   -0.5356   -0.0119 C.ar      1 CHROMAN    -0.0253 
     11 H1          2.8759    1.7752   -0.0690 H.spc     1 CHROMAN    -1.0000 
     12 H2          2.0192    0.9503   -1.4053 H.spc     1 CHROMAN    -1.0000 
     13 H3          2.2164   -0.1215    1.4860 H.spc     1 CHROMAN    -1.0000 
     14 H4          3.2534   -0.7016    0.1459 H.spc     1 CHROMAN    -1.0000 
     15 H5          1.1368   -2.1337    0.5847 H.spc     1 CHROMAN    -1.0000 
     16 H6          1.3130   -1.5511   -1.0974 H.spc     1 CHROMAN    -1.0000 
     17 H7         -1.3255   -2.3854   -0.1430 H.spc     1 CHROMAN    -1.0000 
     18 H8         -3.5473   -1.2930   -0.0803 H.spc     1 CHROMAN    -1.0000 
     19 H9         -3.7102    1.1817    0.0787 H.spc     1 CHROMAN    -1.0000 
     20 H10        -1.6420    2.5517    0.1842 H.spc     1 CHROMAN    -1.0000 
@<TRIPOS>BOND
     1    2    1 1    
     2    1    9 1    
     3    3    2 1    
     4    4    3 1    
     5   10    4 1    
     6    5    6 ar   
     7    5   10 ar   
     8    6    7 ar   
     9    7    8 ar   
    10    8    9 ar   
    11    9   10 ar   
    12    2   11 1    
    13    2   12 1    
    14    3   13 1    
    15    3   14 1    
    16    4   15 1    
    17    4   16 1    
    18    5   17 1    
    19    6   18 1    
    20    7   19 1    
    21    8   20 1    
@<TRIPOS>SUBSTRUCTURE
     1 CHROMAN     5 PERM              0 ****  ****    0 ROOT 
@<TRIPOS>NORMAL
@<TRIPOS>FF_PBC
FORCE_FIELD_SETUP_FEATURE Force Field Setup information
v1.0  0 0.000000 0.000000 0.000000 0.000000 0.000000 0.000000 NONE 2 0 0 0 0 0 0 0 0 0 0 0 0
