# Name:          seed_class_3_90_179/26467
# Creation time: Fri May 21 00:57:14 2010


@<TRIPOS>MOLECULE
seed_class_3_90_179/26467
    7     6     1     1     1
SMALL
USER_CHARGES


@<TRIPOS>ATOM
      1 N           4.3766   -0.3286    0.3131 N.am       1 <1>        0.000
      2 O           4.2043   -0.8248   -0.9414 O.3        1 <1>        0.000
      3 H           3.5713    0.8137    0.7687 H.spc      1 <1>        0.000
      4 C           5.2738   -0.8767    1.1276 C.2        1 <1>        0.000
      5 O           5.4447   -0.4145    2.2546 O.2        1 <1>        0.000
      6 H           6.0826   -2.0665    0.6689 H.spc      1 <1>        0.000
      7 H           3.5248   -0.3195   -1.3936 H.spc      1 <1>        0.000
@<TRIPOS>BOND
     1    1    2 1  
     2    1    3 1  
     3    1    4 am 
     4    4    5 2  
     5    4    6 1  
     6    2    7 1  
