# Name:          seed_class_5_489_32/34898
# Creation time: Fri May 21 00:57:19 2010


@<TRIPOS>MOLECULE
seed_class_5_489_32/34898
   23    24     1     1     1
SMALL
USER_CHARGES


@<TRIPOS>ATOM
      1 H          -1.6509   -0.7184    0.2593 H.spc      1 <1>        0.000
      2 C          -0.3682   -1.3117    0.6639 C.3        1 <1>        0.000
      3 C           0.2158   -0.5376    1.8602 C.3        1 <1>        0.000
      4 C           1.6588   -0.8767    2.1481 C.ar       1 <1>        0.000
      5 C           2.4624   -1.5505    1.2206 C.ar       1 <1>        0.000
      6 C           3.7955   -1.8436    1.5320 C.ar       1 <1>        0.000
      7 C           4.3250   -1.4629    2.7709 C.ar       1 <1>        0.000
      8 C           3.5213   -0.7891    3.6984 C.ar       1 <1>        0.000
      9 C           2.1882   -0.4961    3.3870 C.ar       1 <1>        0.000
     10 O           4.5820   -2.5029    0.6245 O.3        1 <1>        0.000
     11 C           1.9379   -1.9817   -0.1281 C.3        1 <1>        0.000
     12 C           0.6160   -1.2959   -0.5204 C.3        1 <1>        0.000
     13 H          -0.6324   -0.7909    3.1032 H.spc      1 <1>        0.000
     14 H          -0.5327   -2.3461    0.9657 H.spc      1 <1>        0.000
     15 H           0.1915    0.5182    1.5903 H.spc      1 <1>        0.000
     16 H           5.3629   -1.6911    3.0133 H.spc      1 <1>        0.000
     17 H           3.9335   -0.4927    4.6629 H.spc      1 <1>        0.000
     18 H           1.5624    0.0284    4.1091 H.spc      1 <1>        0.000
     19 H           4.0696   -2.6891   -0.1657 H.spc      1 <1>        0.000
     20 H           1.7488   -3.0540   -0.0787 H.spc      1 <1>        0.000
     21 H           2.6840   -1.7060   -0.8734 H.spc      1 <1>        0.000
     22 H           0.1721   -1.8332   -1.3585 H.spc      1 <1>        0.000
     23 H           0.8209   -0.2620   -0.7983 H.spc      1 <1>        0.000
@<TRIPOS>BOND
     1    1    2 1  
     2    2    3 1  
     3    3    4 1  
     4    4    5 ar 
     5    5    6 ar 
     6    6    7 ar 
     7    7    8 ar 
     8    8    9 ar 
     9    9    4 ar 
    10    6   10 1  
    11    5   11 1  
    12   11   12 1  
    13   12    2 1  
    14    3   13 1  
    15    2   14 1  
    16    3   15 1  
    17    7   16 1  
    18    8   17 1  
    19    9   18 1  
    20   10   19 1  
    21   11   20 1  
    22   11   21 1  
    23   12   22 1  
    24   12   23 1  
