# Name:          seed_class_4_212_80/38664
# Creation time: Fri May 21 00:57:16 2010


@<TRIPOS>MOLECULE
seed_class_4_212_80/38664
   24    25     1     1     1
SMALL
USER_CHARGES


@<TRIPOS>ATOM
      1 O           1.9974    3.5423   -0.3911 O.3        1 <1>        0.000
      2 C           1.4444    4.6935    0.2524 C.3        1 <1>        0.000
      3 O           0.2900    4.3128    1.0056 O.3        1 <1>        0.000
      4 C          -0.7707    4.2005    0.0532 C.3        1 <1>        0.000
      5 C          -0.5786    5.3824   -0.9152 C.3        1 <1>        0.000
      6 C           0.9235    5.6987   -0.7914 C.3        1 <1>        0.000
      7 H           1.6439    5.5488   -2.1282 H.spc      1 <1>        0.000
      8 H          -0.9182    5.0117   -2.2539 H.spc      1 <1>        0.000
      9 H          -2.1191    4.3237    0.7613 H.spc      1 <1>        0.000
     10 H          -0.6477    2.8828   -0.7066 H.spc      1 <1>        0.000
     11 C           2.4703    5.3644    1.1847 C.3        1 <1>        0.000
     12 C           3.0433    4.3609    2.2026 C.3        1 <1>        0.000
     13 C           3.4714    3.0499    1.5175 C.3        1 <1>        0.000
     14 C           2.3733    2.5456    0.5629 C.3        1 <1>        0.000
     15 H           2.8501    1.2867   -0.1602 H.spc      1 <1>        0.000
     16 H           4.1771    4.9444    2.8500 H.spc      1 <1>        0.000
     17 H           1.8208    6.5351    1.9168 H.spc      1 <1>        0.000
     18 H          -1.2152    6.2352   -0.6796 H.spc      1 <1>        0.000
     19 H           1.1016    6.7311   -0.4906 H.spc      1 <1>        0.000
     20 H           3.2940    5.7307    0.5719 H.spc      1 <1>        0.000
     21 H           2.2653    4.1289    2.9299 H.spc      1 <1>        0.000
     22 H           3.6445    2.2941    2.2836 H.spc      1 <1>        0.000
     23 H           4.3786    3.2347    0.9422 H.spc      1 <1>        0.000
     24 H           1.4937    2.3141    1.1635 H.spc      1 <1>        0.000
@<TRIPOS>BOND
     1    1    2 1  
     2    2    3 1  
     3    3    4 1  
     4    4    5 1  
     5    5    6 1  
     6    6    2 1  
     7    6    7 1  
     8    5    8 1  
     9    4    9 1  
    10    4   10 1  
    11    2   11 1  
    12   11   12 1  
    13   12   13 1  
    14   13   14 1  
    15   14    1 1  
    16   14   15 1  
    17   12   16 1  
    18   11   17 1  
    19    5   18 1  
    20    6   19 1  
    21   11   20 1  
    22   12   21 1  
    23   13   22 1  
    24   13   23 1  
    25   14   24 1  
