# Name:          seed_class_5_485_33/34898
# Creation time: Fri May 21 00:57:19 2010


@<TRIPOS>MOLECULE
seed_class_5_485_33/34898
   26    27     1     1     1
SMALL
USER_CHARGES


@<TRIPOS>ATOM
      1 N           2.4430    3.7712   -2.7210 N.am       1 <1>        0.000
      2 C           3.3852    4.7872   -3.2117 C.3        1 <1>        0.000
      3 C           4.9081    4.5880   -3.3249 C.3        1 <1>        0.000
      4 C           5.6091    5.8696   -3.8122 C.3        1 <1>        0.000
      5 C           5.0069    6.3718   -5.1376 C.3        1 <1>        0.000
      6 C           3.4840    6.5710   -5.0245 C.3        1 <1>        0.000
      7 C           2.7830    5.2894   -4.5372 C.3        1 <1>        0.000
      8 C           1.2624    5.1252   -4.3564 C.3        1 <1>        0.000
      9 C           1.1288    3.9676   -3.3497 C.3        1 <1>        0.000
     10 H           0.1003    4.3126   -2.2994 H.spc      1 <1>        0.000
     11 H           7.0009    5.6007   -4.0010 H.spc      1 <1>        0.000
     12 C           2.7355    2.8179   -1.8409 C.2        1 <1>        0.000
     13 O           3.1864    1.7410   -2.2278 O.2        1 <1>        0.000
     14 H           2.5139    3.0578   -0.3666 H.spc      1 <1>        0.000
     15 H           3.4455    5.4791   -2.3716 H.spc      1 <1>        0.000
     16 H           5.1001    3.7935   -4.0460 H.spc      1 <1>        0.000
     17 H           5.2978    4.3344   -2.3390 H.spc      1 <1>        0.000
     18 H           5.4675    6.6437   -3.0581 H.spc      1 <1>        0.000
     19 H           5.2018    5.6276   -5.9098 H.spc      1 <1>        0.000
     20 H           5.4636    7.3304   -5.3836 H.spc      1 <1>        0.000
     21 H           3.0944    6.8246   -6.0104 H.spc      1 <1>        0.000
     22 H           3.2919    7.3656   -4.3035 H.spc      1 <1>        0.000
     23 H           2.9788    4.7351   -5.4551 H.spc      1 <1>        0.000
     24 H           0.7552    4.9142   -5.2978 H.spc      1 <1>        0.000
     25 H           0.7880    6.0394   -3.9996 H.spc      1 <1>        0.000
     26 H           0.8065    3.0570   -3.8547 H.spc      1 <1>        0.000
@<TRIPOS>BOND
     1    1    2 1  
     2    2    3 1  
     3    3    4 1  
     4    4    5 1  
     5    5    6 1  
     6    6    7 1  
     7    7    2 1  
     8    7    8 1  
     9    8    9 1  
    10    9    1 1  
    11    9   10 1  
    12    4   11 1  
    13    1   12 am 
    14   12   13 2  
    15   12   14 1  
    16    2   15 1  
    17    3   16 1  
    18    3   17 1  
    19    4   18 1  
    20    5   19 1  
    21    5   20 1  
    22    6   21 1  
    23    6   22 1  
    24    7   23 1  
    25    8   24 1  
    26    8   25 1  
    27    9   26 1  
