# Name:          seed_class_5_479_34/34898
# Creation time: Fri May 21 00:57:19 2010


@<TRIPOS>MOLECULE
seed_class_5_479_34/34898
   15    15     1     1     1
SMALL
USER_CHARGES


@<TRIPOS>ATOM
      1 H           7.6847    1.3669    1.1718 H.spc      1 <1>        0.000
      2 C           9.0325    1.0008    0.8646 C.3        1 <1>        0.000
      3 O           9.6447    0.3924    2.0047 O.3        1 <1>        0.000
      4 C          10.9567   -0.0783    1.6850 C.3        1 <1>        0.000
      5 C          11.8838    1.0120    1.2037 C.2        1 <1>        0.000
      6 C          11.2970    1.8957    0.1290 C.3        1 <1>        0.000
      7 C           9.8204    2.2394    0.3993 C.3        1 <1>        0.000
      8 O          13.0014    1.1646    1.6417 O.2        1 <1>        0.000
      9 H          10.8680   -1.1821    0.6350 H.spc      1 <1>        0.000
     10 H           9.0356    0.2742    0.0521 H.spc      1 <1>        0.000
     11 H          11.3837   -0.4656    2.6101 H.spc      1 <1>        0.000
     12 H          11.3521    1.3593   -0.8183 H.spc      1 <1>        0.000
     13 H          11.8635    2.8267    0.1092 H.spc      1 <1>        0.000
     14 H           9.3750    2.6062   -0.5255 H.spc      1 <1>        0.000
     15 H           9.7783    2.9926    1.1861 H.spc      1 <1>        0.000
@<TRIPOS>BOND
     1    2    1 1  
     2    2    3 1  
     3    3    4 1  
     4    4    5 1  
     5    5    6 1  
     6    6    7 1  
     7    7    2 1  
     8    5    8 2  
     9    4    9 1  
    10    2   10 1  
    11    4   11 1  
    12    6   12 1  
    13    6   13 1  
    14    7   14 1  
    15    7   15 1  
