# Name:          seed_class_2_30_408/95646
# Creation time: Fri May 21 00:57:13 2010


@<TRIPOS>MOLECULE
seed_class_2_30_408/95646
    4     3     1     1     1
SMALL
USER_CHARGES


@<TRIPOS>ATOM
      1 H           0.2609   -0.1608   -0.1665 H.spc      1 <1>        0.000
      2 C          -1.1647    0.0803   -0.0572 C.1        1 <1>        0.000
      3 C          -2.3445    0.2798    0.0333 C.1        1 <1>        0.000
      4 H          -3.7800    0.5225    0.1433 H.spc      1 <1>        0.000
@<TRIPOS>BOND
     1    1    2 1  
     2    2    3 3  
     3    3    4 1  
