# Name:          seed_class_5_397_130/34898
# Creation time: Fri May 21 00:57:18 2010


@<TRIPOS>MOLECULE
seed_class_5_397_130/34898
   14    14     1     1     1
SMALL
USER_CHARGES


@<TRIPOS>ATOM
      1 H           3.4957    1.0543   -1.2689 H.spc      1 <1>        0.000
      2 C           2.9500    2.4453   -1.4867 C.3        1 <1>        0.000
      3 C           4.0391    3.5214   -1.3206 C.3        1 <1>        0.000
      4 C           3.5345    4.6902   -2.1872 C.3        1 <1>        0.000
      5 C           2.6800    4.0983   -3.2825 C.2        1 <1>        0.000
      6 C           2.4537    2.6474   -2.9304 C.3        1 <1>        0.000
      7 H           0.9654    2.3137   -3.0226 H.spc      1 <1>        0.000
      8 O           2.2569    4.6768   -4.2573 O.2        1 <1>        0.000
      9 H           4.2156    3.9309    0.1388 H.spc      1 <1>        0.000
     10 H           2.1504    2.5430   -0.7524 H.spc      1 <1>        0.000
     11 H           5.0242    3.1693   -1.6269 H.spc      1 <1>        0.000
     12 H           4.3727    5.2433   -2.6111 H.spc      1 <1>        0.000
     13 H           2.9560    5.3916   -1.5860 H.spc      1 <1>        0.000
     14 H           2.9901    1.9942   -3.6187 H.spc      1 <1>        0.000
@<TRIPOS>BOND
     1    1    2 1  
     2    2    3 1  
     3    3    4 1  
     4    4    5 1  
     5    5    6 1  
     6    6    2 1  
     7    6    7 1  
     8    5    8 2  
     9    3    9 1  
    10    2   10 1  
    11    3   11 1  
    12    4   12 1  
    13    4   13 1  
    14    6   14 1  
