# Name:          seed_class_5_418_77/34898
# Creation time: Fri May 21 00:57:18 2010


@<TRIPOS>MOLECULE
seed_class_5_418_77/34898
   12    12     1     1     1
SMALL
USER_CHARGES


@<TRIPOS>ATOM
      1 Cl          4.8789    0.9410   -3.9916 Cl         1 <1>        0.000
      2 C           3.5481    1.6603   -3.1319 C.ar       1 <1>        0.000
      3 C           3.1313    1.1209   -1.9090 C.ar       1 <1>        0.000
      4 C           2.0606    1.6996   -1.2173 C.ar       1 <1>        0.000
      5 C           1.4065    2.8177   -1.7484 C.ar       1 <1>        0.000
      6 C           1.8233    3.3571   -2.9712 C.ar       1 <1>        0.000
      7 C           2.8941    2.7784   -3.6630 C.ar       1 <1>        0.000
      8 Cl          1.0105    4.7468   -3.6313 Cl         1 <1>        0.000
      9 H           3.8367   -0.0851   -1.3362 H.spc      1 <1>        0.000
     10 H           1.7362    1.2797   -0.2652 H.spc      1 <1>        0.000
     11 H           0.5728    3.2682   -1.2099 H.spc      1 <1>        0.000
     12 H           3.2186    3.1984   -4.6151 H.spc      1 <1>        0.000
@<TRIPOS>BOND
     1    1    2 1  
     2    2    3 ar 
     3    3    4 ar 
     4    4    5 ar 
     5    5    6 ar 
     6    6    7 ar 
     7    7    2 ar 
     8    6    8 1  
     9    3    9 1  
    10    4   10 1  
    11    5   11 1  
    12    7   12 1  
