# Name:          seed_class_4_179_193/38664
# Creation time: Fri May 21 00:57:15 2010


@<TRIPOS>MOLECULE
seed_class_4_179_193/38664
   42    45     1     1     1
SMALL
USER_CHARGES


@<TRIPOS>ATOM
      1 H           0.6961   -1.8758   -1.1443 H.spc      1 <1>        0.000
      2 C           0.9241   -0.5055   -1.4837 C.3        1 <1>        0.000
      3 C          -0.3860    0.1099   -2.0095 C.3        1 <1>        0.000
      4 C          -1.4591    0.1769   -0.9070 C.3        1 <1>        0.000
      5 C          -2.8776    0.7282   -1.1424 C.3        1 <1>        0.000
      6 C          -3.4176    1.0051    0.2729 C.3        1 <1>        0.000
      7 C          -2.1983    1.1304    1.2052 C.3        1 <1>        0.000
      8 C          -0.9437    0.9265    0.3356 C.3        1 <1>        0.000
      9 C           0.3667    0.3111    0.8612 C.3        1 <1>        0.000
     10 C           0.8832    1.0610    2.1033 C.3        1 <1>        0.000
     11 C           2.1793    0.4270    2.6416 C.3        1 <1>        0.000
     12 C           3.2302    0.2660    1.5693 C.2        1 <1>        0.000
     13 C           4.5444    0.4706    1.7322 C.2        1 <1>        0.000
     14 C           5.5808    0.0970    0.7439 C.2        1 <1>        0.000
     15 C           5.1163   -0.5599   -0.5339 C.3        1 <1>        0.000
     16 C           3.6761   -0.1487   -0.8925 C.3        1 <1>        0.000
     17 C           2.7345   -0.3889    0.3022 C.3        1 <1>        0.000
     18 C           1.4395    0.2441   -0.2410 C.3        1 <1>        0.000
     19 H           2.5322   -1.8839    0.5314 H.spc      1 <1>        0.000
     20 O           6.7731    0.3130    0.9550 O.2        1 <1>        0.000
     21 H          -3.7442   -0.2575   -1.8891 H.spc      1 <1>        0.000
     22 H          -1.6621   -1.2837   -0.5823 H.spc      1 <1>        0.000
     23 H           1.6774   -0.4253   -2.2674 H.spc      1 <1>        0.000
     24 H          -0.7611   -0.5157   -2.8194 H.spc      1 <1>        0.000
     25 H          -0.1786    1.1237   -2.3521 H.spc      1 <1>        0.000
     26 H          -2.8739    1.6233   -1.7644 H.spc      1 <1>        0.000
     27 H          -4.0715    0.1969    0.6006 H.spc      1 <1>        0.000
     28 H          -4.0090    1.9206    0.2872 H.spc      1 <1>        0.000
     29 H          -2.2421    0.3854    1.9997 H.spc      1 <1>        0.000
     30 H          -2.1794    2.1084    1.6861 H.spc      1 <1>        0.000
     31 H          -0.5454    1.9325    0.2035 H.spc      1 <1>        0.000
     32 H           0.1465   -0.7121    1.1655 H.spc      1 <1>        0.000
     33 H           0.1220    1.0082    2.8817 H.spc      1 <1>        0.000
     34 H           1.0926    2.0933    1.8230 H.spc      1 <1>        0.000
     35 H           1.9357   -0.5633    3.0263 H.spc      1 <1>        0.000
     36 H           2.5817    1.0848    3.4120 H.spc      1 <1>        0.000
     37 H           4.8730    0.9452    2.6568 H.spc      1 <1>        0.000
     38 H           5.1409   -1.6406   -0.3939 H.spc      1 <1>        0.000
     39 H           5.7757   -0.2444   -1.3425 H.spc      1 <1>        0.000
     40 H           3.3364   -0.7475   -1.7376 H.spc      1 <1>        0.000
     41 H           3.6629    0.9111   -1.1468 H.spc      1 <1>        0.000
     42 H           1.6672    1.2633   -0.5532 H.spc      1 <1>        0.000
@<TRIPOS>BOND
     1    2    1 1  
     2    2    3 1  
     3    3    4 1  
     4    4    5 1  
     5    5    6 1  
     6    6    7 1  
     7    7    8 1  
     8    8    4 1  
     9    8    9 1  
    10    9   10 1  
    11   10   11 1  
    12   11   12 1  
    13   12   13 2  
    14   13   14 1  
    15   14   15 1  
    16   15   16 1  
    17   16   17 1  
    18   17   12 1  
    19   17   18 1  
    20   18    2 1  
    21   18    9 1  
    22   17   19 1  
    23   14   20 2  
    24    5   21 1  
    25    4   22 1  
    26    2   23 1  
    27    3   24 1  
    28    3   25 1  
    29    5   26 1  
    30    6   27 1  
    31    6   28 1  
    32    7   29 1  
    33    7   30 1  
    34    8   31 1  
    35    9   32 1  
    36   10   33 1  
    37   10   34 1  
    38   11   35 1  
    39   11   36 1  
    40   13   37 1  
    41   15   38 1  
    42   15   39 1  
    43   16   40 1  
    44   16   41 1  
    45   18   42 1  
