# Name:          seed_class_2_67_38/95646
# Creation time: Fri May 21 00:57:14 2010


@<TRIPOS>MOLECULE
seed_class_2_67_38/95646
    7     7     1     1     1
SMALL
USER_CHARGES


@<TRIPOS>ATOM
      1 N           3.5766    3.3748    0.6135 N.pl3      1 <1>        0.000
      2 N           3.9337    2.2946    1.5124 N.ar       1 <1>        0.000
      3 N           4.2468    1.2913    0.8358 N.ar       1 <1>        0.000
      4 C           4.1442    1.5592   -0.5345 C.ar       1 <1>        0.000
      5 N           3.7431    2.8046   -0.7093 N.ar       1 <1>        0.000
      6 H           4.4395    0.5959   -1.6186 H.spc      1 <1>        0.000
      7 H           3.2770    4.3192    0.8560 H.spc      1 <1>        0.000
@<TRIPOS>BOND
     1    1    2 ar 
     2    2    3 ar 
     3    3    4 ar 
     4    4    5 ar 
     5    5    1 ar 
     6    4    6 1  
     7    1    7 1  
