#	Name:			1,4-cyclohexadiene
#	Creating user name:	becker
#	Creation time:		Thu Dec 19 02:54:59 2002

#	Modifying user name:	zmliu
#	Modification time:	Thu Mar 11 17:09:49 2004

@<TRIPOS>MOLECULE
1,4-cyclohexadiene
   14    14     1     1     0
SMALL
GAST_HUCK


@<TRIPOS>ATOM
      1 C1         -0.6688    1.2618    0.0018 C.2       1 CYCLOHEXADIENE   -0.0078 
      2 C2          0.6689    1.2618    0.0019 C.2       1 CYCLOHEXADIENE   -0.0078 
      3 C3          1.4910    0.0000   -0.0023 C.3       1 CYCLOHEXADIENE    0.0157 
      4 C4          0.6688   -1.2618    0.0018 C.2       1 CYCLOHEXADIENE   -0.0078 
      5 C5         -0.6689   -1.2618    0.0019 C.2       1 CYCLOHEXADIENE   -0.0078 
      6 C6         -1.4910    0.0000   -0.0024 C.3       1 CYCLOHEXADIENE    0.0157 
      7 H1         -1.1997    2.2156    0.0046 H.spc     1 CYCLOHEXADIENE   -1.0000 
      8 H2          1.2000    2.2155    0.0049 H.spc     1 CYCLOHEXADIENE   -1.0000 
      9 H3          2.1379   -0.0001    0.8887 H.spc     1 CYCLOHEXADIENE   -1.0000 
     10 H4          2.1293    0.0000   -0.8995 H.spc     1 CYCLOHEXADIENE   -1.0000 
     11 H5          1.1997   -2.2156    0.0046 H.spc     1 CYCLOHEXADIENE   -1.0000 
     12 H6         -1.2000   -2.2155    0.0049 H.spc     1 CYCLOHEXADIENE   -1.0000 
     13 H7         -2.1292    0.0000   -0.8996 H.spc     1 CYCLOHEXADIENE   -1.0000 
     14 H8         -2.1379    0.0002    0.8886 H.spc     1 CYCLOHEXADIENE   -1.0000 
@<TRIPOS>BOND
     1    1    2 2    
     2    1    6 1    
     3    2    3 1    
     4    3    4 1    
     5    4    5 2    
     6    5    6 1    
     7    1    7 1    
     8    2    8 1    
     9    3    9 1    
    10    3   10 1    
    11    4   11 1    
    12    5   12 1    
    13    6   13 1    
    14    6   14 1    
@<TRIPOS>SUBSTRUCTURE
     1 CYCLOHEXADIENE     1 PERM              0 ****  ****    0 ROOT 
@<TRIPOS>NORMAL
@<TRIPOS>FF_PBC
FORCE_FIELD_SETUP_FEATURE Force Field Setup information
v1.0  0 0.000000 0.000000 0.000000 0.000000 0.000000 0.000000 NONE 2 0 0 0 0 0 0 0 0 0 0 0 0
