# Name:          seed_class_5_375_1002/34898
# Creation time: Fri May 21 00:57:18 2010


@<TRIPOS>MOLECULE
seed_class_5_375_1002/34898
   16    16     1     1     1
SMALL
USER_CHARGES


@<TRIPOS>ATOM
      1 N           3.3038    2.4671   -1.1329 N.am       1 <1>        0.000
      2 C           4.2050    3.2920   -0.3154 C.3        1 <1>        0.000
      3 C           4.9182    4.3045   -1.2307 C.3        1 <1>        0.000
      4 C           3.9342    4.4610   -2.4050 C.3        1 <1>        0.000
      5 C           3.2477    3.0838   -2.4661 C.3        1 <1>        0.000
      6 H           1.8108    3.2414   -2.9027 H.spc      1 <1>        0.000
      7 C           2.6611    1.3708   -0.7407 C.2        1 <1>        0.000
      8 O           1.9508    0.7568   -1.5354 O.2        1 <1>        0.000
      9 H           2.8034    0.8797    0.6801 H.spc      1 <1>        0.000
     10 H           4.9413    2.6572    0.1775 H.spc      1 <1>        0.000
     11 H           3.6321    3.8218    0.4457 H.spc      1 <1>        0.000
     12 H           5.9046    3.9662   -1.5478 H.spc      1 <1>        0.000
     13 H           5.1330    5.2487   -0.7303 H.spc      1 <1>        0.000
     14 H           4.4291    4.7285   -3.3386 H.spc      1 <1>        0.000
     15 H           3.2287    5.2790   -2.2593 H.spc      1 <1>        0.000
     16 H           3.7610    2.4482   -3.1877 H.spc      1 <1>        0.000
@<TRIPOS>BOND
     1    1    2 1  
     2    2    3 1  
     3    3    4 1  
     4    4    5 1  
     5    5    1 1  
     6    5    6 1  
     7    1    7 am 
     8    7    8 2  
     9    7    9 1  
    10    2   10 1  
    11    2   11 1  
    12    3   12 1  
    13    3   13 1  
    14    4   14 1  
    15    4   15 1  
    16    5   16 1  
