# Name:          seed_class_5_540_23/34898
# Creation time: Fri May 21 00:57:20 2010


@<TRIPOS>MOLECULE
seed_class_5_540_23/34898
   15    15     1     1     1
SMALL
USER_CHARGES


@<TRIPOS>ATOM
      1 S          -5.4422   -0.1627    0.1878 S.o2       1 <1>        0.000
      2 O          -5.5637   -0.0975   -1.2356 O.2        1 <1>        0.000
      3 O          -5.5058   -1.5276    0.6096 O.2        1 <1>        0.000
      4 H          -3.8570    0.5511    0.6913 H.spc      1 <1>        0.000
      5 C          -6.8155    0.7840    0.9646 C.ar       1 <1>        0.000
      6 C          -7.2799    0.4274    2.2363 C.ar       1 <1>        0.000
      7 C          -8.3248    1.1477    2.8273 C.ar       1 <1>        0.000
      8 C          -8.9054    2.2245    2.1467 C.ar       1 <1>        0.000
      9 C          -8.4410    2.5811    0.8750 C.ar       1 <1>        0.000
     10 C          -7.3961    1.8608    0.2839 C.ar       1 <1>        0.000
     11 H          -6.8279   -0.4110    2.7662 H.spc      1 <1>        0.000
     12 H          -8.6863    0.8701    3.8174 H.spc      1 <1>        0.000
     13 H          -9.7190    2.7852    2.6069 H.spc      1 <1>        0.000
     14 H          -8.8930    3.4196    0.3451 H.spc      1 <1>        0.000
     15 H          -7.0346    2.1384   -0.7063 H.spc      1 <1>        0.000
@<TRIPOS>BOND
     1    1    2 2  
     2    1    3 2  
     3    1    4 1  
     4    1    5 1  
     5    5    6 ar 
     6    6    7 ar 
     7    7    8 ar 
     8    8    9 ar 
     9    9   10 ar 
    10   10    5 ar 
    11    6   11 1  
    12    7   12 1  
    13    8   13 1  
    14    9   14 1  
    15   10   15 1  
