# Name:          seed_class_4_264_41/38664
# Creation time: Fri May 21 00:57:16 2010


@<TRIPOS>MOLECULE
seed_class_4_264_41/38664
   12    12     1     1     1
SMALL
USER_CHARGES


@<TRIPOS>ATOM
      1 H           4.5979    0.1933   -0.2542 H.spc      1 <1>        0.000
      2 N           3.4742   -0.6523   -0.4109 N.am       1 <1>        0.000
      3 C           3.0454   -1.2645   -1.6766 C.3        1 <1>        0.000
      4 C           1.7939   -2.0694   -1.2800 C.3        1 <1>        0.000
      5 N           1.6645   -1.8163    0.1623 N.am       1 <1>        0.000
      6 C           2.6458   -1.0139    0.5648 C.2        1 <1>        0.000
      7 O           2.7772   -0.6353    1.7488 O.2        1 <1>        0.000
      8 H           0.6111   -2.3662    1.0276 H.spc      1 <1>        0.000
      9 H           3.8198   -1.8886   -2.1226 H.spc      1 <1>        0.000
     10 H           2.8388   -0.5246   -2.4499 H.spc      1 <1>        0.000
     11 H           1.8897   -3.1304   -1.5106 H.spc      1 <1>        0.000
     12 H           0.9082   -1.7658   -1.8381 H.spc      1 <1>        0.000
@<TRIPOS>BOND
     1    1    2 1  
     2    2    3 1  
     3    3    4 1  
     4    4    5 1  
     5    5    6 am 
     6    6    2 am 
     7    6    7 2  
     8    5    8 1  
     9    3    9 1  
    10    3   10 1  
    11    4   11 1  
    12    4   12 1  
