# Name:          seed_class_2_42_119/95646
# Creation time: Fri May 21 00:57:13 2010


@<TRIPOS>MOLECULE
seed_class_2_42_119/95646
   15    16     1     1     1
SMALL
USER_CHARGES


@<TRIPOS>ATOM
      1 H           0.3814    0.0608    0.3488 H.spc      1 <1>        0.000
      2 C           1.7863   -0.2489    0.0014 C.ar       1 <1>        0.000
      3 O           2.1893   -1.1949   -0.9384 O.3        1 <1>        0.000
      4 C           3.5809   -1.2111   -0.9976 C.ar       1 <1>        0.000
      5 C           4.0590   -0.2639   -0.0842 C.ar       1 <1>        0.000
      6 C           2.8617    0.3385    0.5436 C.ar       1 <1>        0.000
      7 C           5.4373   -0.0683    0.0645 C.ar       1 <1>        0.000
      8 C           6.3375   -0.8198   -0.7002 C.ar       1 <1>        0.000
      9 C           5.8594   -1.7670   -1.6136 C.ar       1 <1>        0.000
     10 C           4.4811   -1.9626   -1.7623 C.ar       1 <1>        0.000
     11 H           7.7945   -0.6131   -0.5430 H.spc      1 <1>        0.000
     12 H           2.8558    1.1168    1.3067 H.spc      1 <1>        0.000
     13 H           5.8095    0.6691    0.7757 H.spc      1 <1>        0.000
     14 H           6.5603   -2.3522   -2.2090 H.spc      1 <1>        0.000
     15 H           4.1089   -2.7000   -2.4735 H.spc      1 <1>        0.000
@<TRIPOS>BOND
     1    1    2 1  
     2    2    3 ar 
     3    3    4 ar 
     4    4    5 ar 
     5    5    6 ar 
     6    6    2 ar 
     7    5    7 ar 
     8    7    8 ar 
     9    8    9 ar 
    10    9   10 ar 
    11   10    4 ar 
    12    8   11 1  
    13    6   12 1  
    14    7   13 1  
    15    9   14 1  
    16   10   15 1  
