#	Name:			quinoline
#	Creating user name:	becker
#	Creation time:		Thu Dec 19 02:55:02 2002

#	Modifying user name:	zmliu
#	Modification time:	Thu Mar 11 21:28:26 2004

@<TRIPOS>MOLECULE
quinoline
   17    18     1     1     0
SMALL
GAST_HUCK


@<TRIPOS>ATOM
      1 N1          1.1484    1.5815    0.0005 N.ar      1 QUINOLINE   -0.2829 
      2 C1          2.3773    1.0258    0.0004 C.ar      1 QUINOLINE    0.0832 
      3 C2          2.5223   -0.3639    0.0000 C.ar      1 QUINOLINE    0.0403 
      4 C3          1.3807   -1.1692   -0.0010 C.ar      1 QUINOLINE    0.0305 
      5 C4         -1.0559   -1.3382    0.0009 C.ar      1 QUINOLINE    0.0110 
      6 C5         -2.3050   -0.7102    0.0004 C.ar      1 QUINOLINE    0.0081 
      7 C6         -2.3874    0.6850   -0.0005 C.ar      1 QUINOLINE    0.0082 
      8 C7         -1.2192    1.4522   -0.0001 C.ar      1 QUINOLINE    0.0166 
      9 C8          0.0302    0.8256    0.0002 C.ar      1 QUINOLINE    0.0577 
     10 C9          0.1156   -0.5718    0.0000 C.ar      1 QUINOLINE    0.0273 
     11 H1          3.2521    1.6669    0.0009 H.spc     1 QUINOLINE   -1.0000 
     12 H2          3.5110   -0.8124    0.0000 H.spc     1 QUINOLINE   -1.0000 
     13 H3          1.4847   -2.2499   -0.0024 H.spc     1 QUINOLINE   -1.0000 
     14 H4         -1.0042   -2.4227    0.0020 H.spc     1 QUINOLINE   -1.0000 
     15 H5         -3.2122   -1.3067    0.0005 H.spc     1 QUINOLINE   -1.0000 
     16 H6         -3.3575    1.1724   -0.0014 H.spc     1 QUINOLINE   -1.0000 
     17 H7         -1.2809    2.5357   -0.0002 H.spc     1 QUINOLINE   -1.0000 
@<TRIPOS>BOND
     1    2    1 ar   
     2    1    9 ar   
     3    3    2 ar   
     4    4    3 ar   
     5   10    4 ar   
     6    5    6 ar   
     7    5   10 ar   
     8    6    7 ar   
     9    7    8 ar   
    10    8    9 ar   
    11    9   10 ar   
    12    2   11 1    
    13    3   12 1    
    14    4   13 1    
    15    5   14 1    
    16    6   15 1    
    17    7   16 1    
    18    8   17 1    
@<TRIPOS>SUBSTRUCTURE
     1 QUINOLINE     5 PERM              0 ****  ****    0 ROOT 
@<TRIPOS>NORMAL
@<TRIPOS>FF_PBC
FORCE_FIELD_SETUP_FEATURE Force Field Setup information
v1.0  0 0.000000 0.000000 0.000000 0.000000 0.000000 0.000000 NONE 2 0 0 0 0 0 0 0 0 0 0 0 0
