# Name:          seed_class_4_214_77/38664
# Creation time: Fri May 21 00:57:16 2010


@<TRIPOS>MOLECULE
seed_class_4_214_77/38664
   18    19     1     1     1
SMALL
USER_CHARGES


@<TRIPOS>ATOM
      1 H          -1.2558   -0.0769   -1.7977 H.spc      1 <1>        0.000
      2 C           0.1859   -0.3763   -2.1320 C.ar       1 <1>        0.000
      3 C           0.9934   -1.0501   -1.2079 C.ar       1 <1>        0.000
      4 C           2.3301   -1.3277   -1.5179 C.ar       1 <1>        0.000
      5 C           2.8594   -0.9315   -2.7519 C.ar       1 <1>        0.000
      6 C           2.0519   -0.2578   -3.6760 C.ar       1 <1>        0.000
      7 C           0.7152    0.0199   -3.3661 C.ar       1 <1>        0.000
      8 O           4.1671   -1.2016   -3.0584 O.3        1 <1>        0.000
      9 C           5.0375   -1.0419   -1.9352 C.3        1 <1>        0.000
     10 C           4.5787   -1.8847   -0.7693 C.2        1 <1>        0.000
     11 C           3.2572   -2.0337   -0.6054 C.2        1 <1>        0.000
     12 H           6.4637   -1.4215   -2.3232 H.spc      1 <1>        0.000
     13 H           5.0952    0.4269   -1.5254 H.spc      1 <1>        0.000
     14 H           0.5814   -1.3586   -0.2471 H.spc      1 <1>        0.000
     15 H           2.4640    0.0505   -4.6369 H.spc      1 <1>        0.000
     16 H           0.0866    0.5446   -4.0856 H.spc      1 <1>        0.000
     17 H           5.2919   -2.3518   -0.0902 H.spc      1 <1>        0.000
     18 H           2.8691   -2.6681    0.1915 H.spc      1 <1>        0.000
@<TRIPOS>BOND
     1    1    2 1  
     2    2    3 ar 
     3    3    4 ar 
     4    4    5 ar 
     5    5    6 ar 
     6    6    7 ar 
     7    7    2 ar 
     8    5    8 1  
     9    8    9 1  
    10    9   10 1  
    11   10   11 2  
    12   11    4 1  
    13    9   12 1  
    14    9   13 1  
    15    3   14 1  
    16    6   15 1  
    17    7   16 1  
    18   10   17 1  
    19   11   18 1  
