# Name:          seed_class_4_341_23/38664
# Creation time: Fri May 21 00:57:17 2010


@<TRIPOS>MOLECULE
seed_class_4_341_23/38664
   14    14     1     1     1
SMALL
USER_CHARGES


@<TRIPOS>ATOM
      1 H          -3.8473   -0.0072    1.4432 H.spc      1 <1>        0.000
      2 C          -4.6091   -0.7377    0.4784 C.3        1 <1>        0.000
      3 O          -5.4901    0.1478   -0.2177 O.3        1 <1>        0.000
      4 C          -6.5598   -0.5758   -0.6749 C.2        1 <1>        0.000
      5 C          -6.7621   -1.7210    0.2882 C.3        1 <1>        0.000
      6 C          -5.5147   -1.7597    1.1906 C.3        1 <1>        0.000
      7 H          -5.8197   -1.3504    2.5264 H.spc      1 <1>        0.000
      8 H          -6.8423   -2.9431   -0.4499 H.spc      1 <1>        0.000
      9 C          -7.2884   -0.3164   -1.7691 C.2        1 <1>        0.000
     10 H          -6.9858    0.7657   -2.5530 H.spc      1 <1>        0.000
     11 H          -8.4430   -1.2168   -2.1383 H.spc      1 <1>        0.000
     12 H          -3.9086   -1.2244   -0.2002 H.spc      1 <1>        0.000
     13 H          -7.6742   -1.5963    0.8718 H.spc      1 <1>        0.000
     14 H          -5.0729   -2.7494    1.3066 H.spc      1 <1>        0.000
@<TRIPOS>BOND
     1    2    1 1  
     2    2    3 1  
     3    3    4 1  
     4    4    5 1  
     5    5    6 1  
     6    6    2 1  
     7    6    7 1  
     8    5    8 1  
     9    4    9 2  
    10    9   10 1  
    11    9   11 1  
    12    2   12 1  
    13    5   13 1  
    14    6   14 1  
