# Name:          seed_class_2_46_109/95646
# Creation time: Fri May 21 00:57:14 2010


@<TRIPOS>MOLECULE
seed_class_2_46_109/95646
    6     5     1     1     1
SMALL
USER_CHARGES


@<TRIPOS>ATOM
      1 S          -0.5143    2.4625    2.1182 S.2        1 <1>        0.000
      2 C          -0.5443    1.2105    0.9539 C.2        1 <1>        0.000
      3 N          -1.6684    0.4631    0.7878 N.am       1 <1>        0.000
      4 H          -2.8570    0.7306    1.6103 H.spc      1 <1>        0.000
      5 H           0.6530    0.9401    0.1269 H.spc      1 <1>        0.000
      6 H          -1.6867   -0.2830    0.0925 H.spc      1 <1>        0.000
@<TRIPOS>BOND
     1    1    2 2  
     2    2    3 am 
     3    3    4 1  
     4    2    5 1  
     5    3    6 1  
