# Name:          seed_class_4_258_43/38664
# Creation time: Fri May 21 00:57:16 2010


@<TRIPOS>MOLECULE
seed_class_4_258_43/38664
   10    10     1     1     1
SMALL
USER_CHARGES


@<TRIPOS>ATOM
      1 H           4.1541    0.0018    0.1801 H.spc      1 <1>        0.000
      2 C           3.0098    0.5552   -0.2115 C.3        1 <1>        0.000
      3 C           1.9455    0.7353    0.8869 C.3        1 <1>        0.000
      4 N           1.1118   -0.2668    0.2074 N.am       1 <1>        0.000
      5 C           1.9866   -0.3949   -0.7862 C.2        1 <1>        0.000
      6 O           1.9683   -1.0603   -1.8206 O.2        1 <1>        0.000
      7 H          -0.1441    0.2345   -0.2091 H.spc      1 <1>        0.000
      8 H           3.2700    1.6342   -0.9443 H.spc      1 <1>        0.000
      9 H           1.5477    1.7237    1.1169 H.spc      1 <1>        0.000
     10 H           2.2081    0.6174    1.9382 H.spc      1 <1>        0.000
@<TRIPOS>BOND
     1    1    2 1  
     2    2    3 1  
     3    3    4 1  
     4    4    5 am 
     5    5    2 1  
     6    5    6 2  
     7    4    7 1  
     8    2    8 1  
     9    3    9 1  
    10    3   10 1  
