# Name:          seed_class_5_388_194/34898
# Creation time: Fri May 21 00:57:18 2010


@<TRIPOS>MOLECULE
seed_class_5_388_194/34898
   40    43     1     1     1
SMALL
USER_CHARGES


@<TRIPOS>ATOM
      1 H          -1.8505    1.0788    0.3135 H.spc      1 <1>        0.000
      2 C          -1.9835   -0.4249    0.3494 C.3        1 <1>        0.000
      3 C          -2.5180   -0.9827   -0.9828 C.3        1 <1>        0.000
      4 C          -1.3053   -1.5142   -1.7693 C.3        1 <1>        0.000
      5 C          -0.0599   -1.2679   -0.8976 C.3        1 <1>        0.000
      6 C          -0.6185   -1.1147    0.5295 C.3        1 <1>        0.000
      7 C           0.4606   -0.6101    1.5055 C.3        1 <1>        0.000
      8 C           1.7075   -1.5136    1.4827 C.3        1 <1>        0.000
      9 C           2.2660   -1.6667    0.0558 C.3        1 <1>        0.000
     10 C           1.1869   -2.1714   -0.9202 C.3        1 <1>        0.000
     11 C           1.7492   -2.3232   -2.3457 C.3        1 <1>        0.000
     12 C           2.9811   -3.2470   -2.3667 C.3        1 <1>        0.000
     13 C           4.0292   -2.8343   -1.3610 C.2        1 <1>        0.000
     14 C           5.3142   -2.6072   -1.6652 C.2        1 <1>        0.000
     15 C           6.2702   -2.1090   -0.6511 C.2        1 <1>        0.000
     16 C           5.7772   -1.8626    0.7225 C.2        1 <1>        0.000
     17 C           4.4954   -2.0844    1.0440 C.2        1 <1>        0.000
     18 C           3.4971   -2.5923    0.0313 C.3        1 <1>        0.000
     19 H           3.0124   -3.9047    0.6408 H.spc      1 <1>        0.000
     20 O           7.4474   -1.9045   -0.9431 O.2        1 <1>        0.000
     21 H           2.7151   -0.9444    2.3227 H.spc      1 <1>        0.000
     22 H          -0.9499   -2.4861    1.1110 H.spc      1 <1>        0.000
     23 H          -2.8685   -0.7091    1.4361 H.spc      1 <1>        0.000
     24 H          -3.0322   -0.2048   -1.5473 H.spc      1 <1>        0.000
     25 H          -3.2405   -1.7792   -0.8046 H.spc      1 <1>        0.000
     26 H          -1.2127   -1.0026   -2.7273 H.spc      1 <1>        0.000
     27 H          -1.4211   -2.5764   -1.9850 H.spc      1 <1>        0.000
     28 H           0.4221   -0.4056   -1.3584 H.spc      1 <1>        0.000
     29 H           0.0461   -0.6184    2.5136 H.spc      1 <1>        0.000
     30 H           0.7564    0.3949    1.2044 H.spc      1 <1>        0.000
     31 H           1.4202   -2.5009    1.8444 H.spc      1 <1>        0.000
     32 H           2.5813   -0.6770   -0.2748 H.spc      1 <1>        0.000
     33 H           0.8763   -3.1606   -0.5840 H.spc      1 <1>        0.000
     34 H           2.0476   -1.3392   -2.7073 H.spc      1 <1>        0.000
     35 H           0.9769   -2.7608   -2.9783 H.spc      1 <1>        0.000
     36 H           3.4269   -3.1912   -3.3598 H.spc      1 <1>        0.000
     37 H           2.6507   -4.2546   -2.1144 H.spc      1 <1>        0.000
     38 H           5.6629   -2.7933   -2.6810 H.spc      1 <1>        0.000
     39 H           6.4663   -1.4956    1.4831 H.spc      1 <1>        0.000
     40 H           4.1642   -1.8929    2.0647 H.spc      1 <1>        0.000
@<TRIPOS>BOND
     1    2    1 1  
     2    2    3 1  
     3    3    4 1  
     4    4    5 1  
     5    5    6 1  
     6    6    2 1  
     7    6    7 1  
     8    7    8 1  
     9    8    9 1  
    10    9   10 1  
    11   10    5 1  
    12   10   11 1  
    13   11   12 1  
    14   12   13 1  
    15   13   14 2  
    16   14   15 1  
    17   15   16 1  
    18   16   17 2  
    19   17   18 1  
    20   18    9 1  
    21   18   13 1  
    22   18   19 1  
    23   15   20 2  
    24    8   21 1  
    25    6   22 1  
    26    2   23 1  
    27    3   24 1  
    28    3   25 1  
    29    4   26 1  
    30    4   27 1  
    31    5   28 1  
    32    7   29 1  
    33    7   30 1  
    34    8   31 1  
    35    9   32 1  
    36   10   33 1  
    37   11   34 1  
    38   11   35 1  
    39   12   36 1  
    40   12   37 1  
    41   14   38 1  
    42   16   39 1  
    43   17   40 1  
