# Name:          seed_class_4_361_21/38664
# Creation time: Fri May 21 00:57:18 2010


@<TRIPOS>MOLECULE
seed_class_4_361_21/38664
   27    29     1     1     1
SMALL
USER_CHARGES


@<TRIPOS>ATOM
      1 H           4.4952    3.5745   -2.2047 H.spc      1 <1>        0.000
      2 C           3.8982    2.5506   -1.5583 C.ar       1 <1>        0.000
      3 C           4.3699    2.1441   -0.3045 C.ar       1 <1>        0.000
      4 C           3.7508    1.0823    0.3658 C.ar       1 <1>        0.000
      5 C           2.6599    0.4271   -0.2177 C.ar       1 <1>        0.000
      6 C           2.1881    0.8336   -1.4716 C.ar       1 <1>        0.000
      7 C           2.8073    1.8954   -2.1419 C.ar       1 <1>        0.000
      8 C           1.8060   -0.7255    0.2541 C.3        1 <1>        0.000
      9 C           1.7665   -1.5318    1.5656 C.3        1 <1>        0.000
     10 C           3.0880   -1.8063    2.2426 C.ar       1 <1>        0.000
     11 C           4.2303   -1.0270    2.4615 C.ar       1 <1>        0.000
     12 C           5.3291   -1.5702    3.1379 C.ar       1 <1>        0.000
     13 C           5.2858   -2.8926    3.5953 C.ar       1 <1>        0.000
     14 C           4.1435   -3.6719    3.3764 C.ar       1 <1>        0.000
     15 C           3.0446   -3.1288    2.7000 C.ar       1 <1>        0.000
     16 H           4.0896   -5.3155    3.9449 H.spc      1 <1>        0.000
     17 S           4.4297    0.6536    1.9433 S.3        1 <1>        0.000
     18 H           0.4219   -0.2747    0.0496 H.spc      1 <1>        0.000
     19 H           5.2192    2.6543    0.1499 H.spc      1 <1>        0.000
     20 H           1.3387    0.3234   -1.9259 H.spc      1 <1>        0.000
     21 H           2.4400    2.2119   -3.1181 H.spc      1 <1>        0.000
     22 H           2.3622   -1.4819   -0.2997 H.spc      1 <1>        0.000
     23 H           1.3590   -2.5079    1.3023 H.spc      1 <1>        0.000
     24 H           1.1921   -0.9283    2.2684 H.spc      1 <1>        0.000
     25 H           6.2184   -0.9634    3.3084 H.spc      1 <1>        0.000
     26 H           6.1414   -3.3155    4.1218 H.spc      1 <1>        0.000
     27 H           2.1553   -3.7356    2.5295 H.spc      1 <1>        0.000
@<TRIPOS>BOND
     1    1    2 1  
     2    2    3 ar 
     3    3    4 ar 
     4    4    5 ar 
     5    5    6 ar 
     6    6    7 ar 
     7    7    2 ar 
     8    5    8 1  
     9    8    9 1  
    10    9   10 1  
    11   10   11 ar 
    12   11   12 ar 
    13   12   13 ar 
    14   13   14 ar 
    15   14   15 ar 
    16   15   10 ar 
    17   14   16 1  
    18   11   17 1  
    19   17    4 1  
    20    8   18 1  
    21    3   19 1  
    22    6   20 1  
    23    7   21 1  
    24    8   22 1  
    25    9   23 1  
    26    9   24 1  
    27   12   25 1  
    28   13   26 1  
    29   15   27 1  
