# Name:          seed_class_4_171_282/38664
# Creation time: Fri May 21 00:57:15 2010


@<TRIPOS>MOLECULE
seed_class_4_171_282/38664
   16    16     1     1     1
SMALL
USER_CHARGES


@<TRIPOS>ATOM
      1 H          -0.1616    1.7154   -1.8477 H.spc      1 <1>        0.000
      2 C          -1.3328    1.0846   -1.1331 C.2        1 <1>        0.000
      3 C          -1.7693    1.6473    0.0020 C.2        1 <1>        0.000
      4 C          -2.9312    1.0987    0.7952 C.3        1 <1>        0.000
      5 C          -3.7782    0.0824    0.0069 C.3        1 <1>        0.000
      6 C          -2.8771   -0.9106   -0.7503 C.3        1 <1>        0.000
      7 C          -1.9607   -0.1526   -1.7288 C.3        1 <1>        0.000
      8 H          -4.7047   -0.6740    0.9578 H.spc      1 <1>        0.000
      9 H          -1.2634    2.5403    0.3689 H.spc      1 <1>        0.000
     10 H          -3.5782    1.9364    1.0555 H.spc      1 <1>        0.000
     11 H          -2.5234    0.5843    1.6654 H.spc      1 <1>        0.000
     12 H          -4.3782    0.6270   -0.7221 H.spc      1 <1>        0.000
     13 H          -3.5023   -1.6056   -1.3108 H.spc      1 <1>        0.000
     14 H          -2.2627   -1.4550   -0.0332 H.spc      1 <1>        0.000
     15 H          -2.5743    0.1656   -2.5716 H.spc      1 <1>        0.000
     16 H          -1.1518   -0.8275   -2.0086 H.spc      1 <1>        0.000
@<TRIPOS>BOND
     1    1    2 1  
     2    2    3 2  
     3    3    4 1  
     4    4    5 1  
     5    5    6 1  
     6    6    7 1  
     7    7    2 1  
     8    5    8 1  
     9    3    9 1  
    10    4   10 1  
    11    4   11 1  
    12    5   12 1  
    13    6   13 1  
    14    6   14 1  
    15    7   15 1  
    16    7   16 1  
