# Name:          seed_class_5_465_38/34898
# Creation time: Fri May 21 00:57:19 2010


@<TRIPOS>MOLECULE
seed_class_5_465_38/34898
   11    11     1     1     1
SMALL
USER_CHARGES


@<TRIPOS>ATOM
      1 O           5.0086   -2.1842    0.6337 O.3        1 <1>        0.000
      2 C           3.7267   -1.6457    0.7166 C.2        1 <1>        0.000
      3 C           3.5194   -0.3220    0.6970 C.2        1 <1>        0.000
      4 C           4.6675    0.6052    0.5851 C.2        1 <1>        0.000
      5 C           5.9117    0.1143    0.5038 C.2        1 <1>        0.000
      6 C           6.1197   -1.3508    0.5272 C.2        1 <1>        0.000
      7 O           7.2435   -1.8200    0.4544 O.2        1 <1>        0.000
      8 H           2.1144    0.2236    0.7890 H.spc      1 <1>        0.000
      9 H           2.8719   -2.3170    0.7994 H.spc      1 <1>        0.000
     10 H           4.5018    1.6824    0.5689 H.spc      1 <1>        0.000
     11 H           6.7639    0.7888    0.4211 H.spc      1 <1>        0.000
@<TRIPOS>BOND
     1    1    2 1  
     2    2    3 2  
     3    3    4 1  
     4    4    5 2  
     5    5    6 1  
     6    6    1 1  
     7    6    7 2  
     8    8    3 1  
     9    2    9 1  
    10    4   10 1  
    11    5   11 1  
