# Name:          seed_class_2_72_26/95646
# Creation time: Fri May 21 00:57:14 2010


@<TRIPOS>MOLECULE
seed_class_2_72_26/95646
   22    24     1     1     1
SMALL
USER_CHARGES


@<TRIPOS>ATOM
      1 H           2.4688    0.6559    0.5174 H.spc      1 <1>        0.000
      2 C           1.3997    1.1860   -0.4078 C.ar       1 <1>        0.000
      3 C           0.0892    0.7026   -0.3130 C.ar       1 <1>        0.000
      4 N          -0.2263   -0.2303    0.5957 N.ar       1 <1>        0.000
      5 C          -1.4776   -0.6995    0.6946 C.ar       1 <1>        0.000
      6 C          -2.4725   -0.2114   -0.1609 C.ar       1 <1>        0.000
      7 N          -2.1516    0.7216   -1.0677 N.ar       1 <1>        0.000
      8 C          -0.9020    1.1941   -1.1708 C.ar       1 <1>        0.000
      9 C          -0.5827    2.1690   -2.1236 C.ar       1 <1>        0.000
     10 C           0.7278    2.6523   -2.2185 C.ar       1 <1>        0.000
     11 C           1.7190    2.1608   -1.3606 C.ar       1 <1>        0.000
     12 C          -3.7814   -0.6981   -0.0619 C.ar       1 <1>        0.000
     13 C          -4.0954   -1.6729    0.8926 C.ar       1 <1>        0.000
     14 C          -3.1005   -2.1611    1.7481 C.ar       1 <1>        0.000
     15 C          -1.7916   -1.6744    1.6491 C.ar       1 <1>        0.000
     16 H          -4.8332   -0.1821   -0.9662 H.spc      1 <1>        0.000
     17 H          -1.3544    2.5517   -2.7915 H.spc      1 <1>        0.000
     18 H           0.9764    3.4112   -2.9603 H.spc      1 <1>        0.000
     19 H           2.7393    2.5371   -1.4345 H.spc      1 <1>        0.000
     20 H          -5.1145   -2.0518    0.9697 H.spc      1 <1>        0.000
     21 H          -3.3450   -2.9201    2.4912 H.spc      1 <1>        0.000
     22 H          -1.0170   -2.0545    2.3151 H.spc      1 <1>        0.000
@<TRIPOS>BOND
     1    1    2 1  
     2    2    3 ar 
     3    3    4 ar 
     4    4    5 ar 
     5    5    6 ar 
     6    6    7 ar 
     7    7    8 ar 
     8    8    3 ar 
     9    8    9 ar 
    10    9   10 ar 
    11   10   11 ar 
    12   11    2 ar 
    13    6   12 ar 
    14   12   13 ar 
    15   13   14 ar 
    16   14   15 ar 
    17   15    5 ar 
    18   12   16 1  
    19    9   17 1  
    20   10   18 1  
    21   11   19 1  
    22   13   20 1  
    23   14   21 1  
    24   15   22 1  
