# Name:          seed_class_2_26_595/95646
# Creation time: Fri May 21 00:57:13 2010


@<TRIPOS>MOLECULE
seed_class_2_26_595/95646
    8     7     1     1     1
SMALL
USER_CHARGES


@<TRIPOS>ATOM
      1 H          -4.0585   -0.0662   -0.0443 H.spc      1 <1>        0.000
      2 N          -5.2390   -0.7996   -0.5234 N.am       1 <1>        0.000
      3 C          -6.4553   -0.4305   -0.1319 C.2        1 <1>        0.000
      4 O          -6.5964    0.5556    0.6232 O.2        1 <1>        0.000
      5 N          -7.5214   -1.1106   -0.5438 N.am       1 <1>        0.000
      6 H          -8.8174   -0.7006   -0.1508 H.spc      1 <1>        0.000
      7 H          -5.1253   -1.5916   -1.1561 H.spc      1 <1>        0.000
      8 H          -7.4048   -1.9278   -1.1430 H.spc      1 <1>        0.000
@<TRIPOS>BOND
     1    1    2 1  
     2    2    3 am 
     3    3    4 2  
     4    3    5 am 
     5    5    6 1  
     6    2    7 1  
     7    5    8 1  
