#	Name:			thiomorpholine
#	Creating user name:	becker
#	Creation time:		Thu Dec 19 02:55:05 2002

#	Modifying user name:	zmliu
#	Modification time:	Thu Mar 11 21:38:50 2004

@<TRIPOS>MOLECULE
thiomorpholine
   15    15     1     1     0
SMALL
NO_CHARGES


@<TRIPOS>ATOM
      1 S1          0.0000    1.7175   -0.8287 S.3       1 THIOMORPHOLINE    0.0000 
      2 C1          1.3744    0.9168    0.0505 C.3       1 THIOMORPHOLINE    0.0000 
      3 C2          1.2514   -0.6174   -0.1096 C.3       1 THIOMORPHOLINE    0.0000 
      4 N1          0.0000   -1.1122    0.5064 N.3       1 THIOMORPHOLINE    0.0000 
      5 C3         -1.2515   -0.6173   -0.1096 C.3       1 THIOMORPHOLINE    0.0000 
      6 C4         -1.3743    0.9168    0.0506 C.3       1 THIOMORPHOLINE    0.0000 
      7 H1          1.3371    1.1950    1.1153 H.spc     1 THIOMORPHOLINE    0.0000 
      8 H2          2.3217    1.2775   -0.3803 H.spc     1 THIOMORPHOLINE    0.0000 
      9 H3          2.1107   -1.0875    0.3978 H.spc     1 THIOMORPHOLINE    0.0000 
     10 H4          1.2910   -0.8891   -1.1777 H.spc     1 THIOMORPHOLINE    0.0000 
     11 H5         -0.0001   -2.1966    0.5302 H.spc     1 THIOMORPHOLINE    0.0000 
     12 H6         -2.1108   -1.0874    0.3976 H.spc     1 THIOMORPHOLINE    0.0000 
     13 H7         -1.2911   -0.8888   -1.1777 H.spc     1 THIOMORPHOLINE    0.0000 
     14 H8         -2.3216    1.2778   -0.3802 H.spc     1 THIOMORPHOLINE    0.0000 
     15 H9         -1.3368    1.1949    1.1154 H.spc     1 THIOMORPHOLINE    0.0000 
@<TRIPOS>BOND
     1    1    2 1    
     2    1    6 1    
     3    2    3 1    
     4    3    4 1    
     5    4    5 1    
     6    5    6 1    
     7    2    7 1    
     8    2    8 1    
     9    3    9 1    
    10    3   10 1    
    11    4   11 1    
    12    5   12 1    
    13    5   13 1    
    14    6   14 1    
    15    6   15 1    
@<TRIPOS>SUBSTRUCTURE
     1 THIOMORPHOLINE     1 PERM              0 ****  ****    0 ROOT 
@<TRIPOS>NORMAL
@<TRIPOS>FF_PBC
FORCE_FIELD_SETUP_FEATURE Force Field Setup information
v1.0  0 0.000000 0.000000 0.000000 0.000000 0.000000 0.000000 NONE 2 0 0 0 0 0 0 0 0 0 0 0 0
