# Name:          seed_class_5_535_23/34898
# Creation time: Fri May 21 00:57:20 2010


@<TRIPOS>MOLECULE
seed_class_5_535_23/34898
   17    18     1     1     1
SMALL
USER_CHARGES


@<TRIPOS>ATOM
      1 N           0.2212    1.4241    0.6634 N.pl3      1 <1>        0.000
      2 C           1.4215    0.7093    0.4390 C.ar       1 <1>        0.000
      3 N           1.8128   -0.2119   -0.4520 N.ar       1 <1>        0.000
      4 C           3.0509   -0.7230   -0.4146 C.ar       1 <1>        0.000
      5 N           3.9346   -0.3300    0.5129 N.ar       1 <1>        0.000
      6 C           3.6063    0.5876    1.4326 C.ar       1 <1>        0.000
      7 C           2.3206    1.1415    1.4212 C.ar       1 <1>        0.000
      8 N           1.6462    2.0909    2.1984 N.ar       1 <1>        0.000
      9 C           0.4192    2.2384    1.7345 C.ar       1 <1>        0.000
     10 N           4.5414    0.9891    2.3969 N.pl3      1 <1>        0.000
     11 N           3.4281   -1.6853   -1.3619 N.pl3      1 <1>        0.000
     12 H          -1.0171    1.3076   -0.1202 H.spc      1 <1>        0.000
     13 H          -0.3275    2.9151    2.1499 H.spc      1 <1>        0.000
     14 H           4.2864    1.6880    3.0947 H.spc      1 <1>        0.000
     15 H           5.4768    0.5823    2.4007 H.spc      1 <1>        0.000
     16 H           4.3684   -2.0801   -1.3413 H.spc      1 <1>        0.000
     17 H           2.7622   -1.9906   -2.0717 H.spc      1 <1>        0.000
@<TRIPOS>BOND
     1    1    2 ar 
     2    2    3 ar 
     3    3    4 ar 
     4    4    5 ar 
     5    5    6 ar 
     6    6    7 ar 
     7    7    2 ar 
     8    7    8 ar 
     9    8    9 ar 
    10    9    1 ar 
    11    6   10 1  
    12    4   11 1  
    13    1   12 1  
    14    9   13 1  
    15   10   14 1  
    16   10   15 1  
    17   11   16 1  
    18   11   17 1  
