# Name:          seed_class_1_7_4243/603445
# Creation time: Fri May 21 00:57:11 2010


@<TRIPOS>MOLECULE
seed_class_1_7_4243/603445
    3     2     1     1     1
SMALL
USER_CHARGES


@<TRIPOS>ATOM
      1 H           2.5363   -1.3586   -2.5752 H.spc      1 <1>        0.000
      2 H           0.4530   -0.4139   -0.8548 H.spc      1 <1>        0.000
      3 S           0.5124   -1.1227   -2.4756 S.3        1 <1>        0.000
@<TRIPOS>BOND
     1    3    1 1  
     2    3    2 1  
