# Name:          seed_class_4_222_69/38664
# Creation time: Fri May 21 00:57:16 2010


@<TRIPOS>MOLECULE
seed_class_4_222_69/38664
   11    11     1     1     1
SMALL
USER_CHARGES


@<TRIPOS>ATOM
      1 N           2.2934   -0.1742   -0.8366 N.am       1 <1>        0.000
      2 C           1.4351   -0.9899   -1.7078 C.3        1 <1>        0.000
      3 C           0.0683   -0.3892   -1.4821 C.2        1 <1>        0.000
      4 N           0.2391    0.5985   -0.6079 N.am       1 <1>        0.000
      5 C           1.5112    0.7206   -0.2396 C.2        1 <1>        0.000
      6 O           1.9236    1.5764    0.5728 O.2        1 <1>        0.000
      7 H          -0.8480    1.4529   -0.1086 H.spc      1 <1>        0.000
      8 O          -0.9893   -0.7420   -2.0017 O.2        1 <1>        0.000
      9 H           1.8628   -0.9113   -3.1726 H.spc      1 <1>        0.000
     10 H           3.3008   -0.2755   -0.7130 H.spc      1 <1>        0.000
     11 H           1.4790   -2.0545   -1.4782 H.spc      1 <1>        0.000
@<TRIPOS>BOND
     1    1    2 1  
     2    2    3 1  
     3    3    4 am 
     4    4    5 am 
     5    5    1 am 
     6    5    6 2  
     7    4    7 1  
     8    3    8 2  
     9    2    9 1  
    10    1   10 1  
    11    2   11 1  
