# Name:          seed_class_4_225_69/38664
# Creation time: Fri May 21 00:57:16 2010


@<TRIPOS>MOLECULE
seed_class_4_225_69/38664
   18    18     1     1     1
SMALL
USER_CHARGES


@<TRIPOS>ATOM
      1 N          -1.9082   -1.0691   -0.3011 N.3        1 <1>        0.000
      2 C          -2.0437    0.0693    0.6189 C.3        1 <1>        0.000
      3 C          -1.3683    1.3366    0.0626 C.3        1 <1>        0.000
      4 N           0.0161    1.0672   -0.3519 N.am       1 <1>        0.000
      5 C           0.2227   -0.1336   -1.1742 C.3        1 <1>        0.000
      6 C          -0.4949   -1.3606   -0.5816 C.3        1 <1>        0.000
      7 C           1.0228    1.8634   -0.0034 C.2        1 <1>        0.000
      8 O           0.8047    2.8764    0.6593 O.2        1 <1>        0.000
      9 H           2.4055    1.5305   -0.4129 H.spc      1 <1>        0.000
     10 H          -2.5437   -2.2554    0.2903 H.spc      1 <1>        0.000
     11 H          -1.5607   -0.1915    1.5606 H.spc      1 <1>        0.000
     12 H          -3.1052    0.2772    0.7531 H.spc      1 <1>        0.000
     13 H          -1.3543    2.0942    0.8461 H.spc      1 <1>        0.000
     14 H          -1.9308    1.6757   -0.8073 H.spc      1 <1>        0.000
     15 H           1.2914   -0.3452   -1.2104 H.spc      1 <1>        0.000
     16 H          -0.1848    0.0560   -2.1672 H.spc      1 <1>        0.000
     17 H          -0.0043   -1.6314    0.3533 H.spc      1 <1>        0.000
     18 H          -0.4455   -2.1744   -1.3051 H.spc      1 <1>        0.000
@<TRIPOS>BOND
     1    1    2 1  
     2    2    3 1  
     3    3    4 1  
     4    4    5 1  
     5    5    6 1  
     6    6    1 1  
     7    4    7 am 
     8    7    8 2  
     9    7    9 1  
    10    1   10 1  
    11    2   11 1  
    12    2   12 1  
    13    3   13 1  
    14    3   14 1  
    15    5   15 1  
    16    5   16 1  
    17    6   17 1  
    18    6   18 1  
