# Name:          seed_class_4_270_39/38664
# Creation time: Fri May 21 00:57:16 2010


@<TRIPOS>MOLECULE
seed_class_4_270_39/38664
   16    17     1     1     1
SMALL
USER_CHARGES


@<TRIPOS>ATOM
      1 N           7.7274   -0.4325    0.5072 N.am       1 <1>        0.000
      2 C           7.4986   -0.4298    1.9036 C.ar       1 <1>        0.000
      3 C           6.2733   -1.0785    2.0975 C.ar       1 <1>        0.000
      4 C           5.7629   -1.2383    3.3913 C.ar       1 <1>        0.000
      5 C           6.4778   -0.7494    4.4912 C.ar       1 <1>        0.000
      6 C           7.7031   -0.1006    4.2973 C.ar       1 <1>        0.000
      7 C           8.2136    0.0592    3.0035 C.ar       1 <1>        0.000
      8 N           5.8124   -1.4463    0.8112 N.am       1 <1>        0.000
      9 C           6.7058   -1.0422   -0.0874 C.2        1 <1>        0.000
     10 O           6.5999   -1.2121   -1.3212 O.2        1 <1>        0.000
     11 H           4.5584   -2.1550    0.5178 H.spc      1 <1>        0.000
     12 H           8.5394   -0.0338    0.0358 H.spc      1 <1>        0.000
     13 H           4.8089   -1.7434    3.5423 H.spc      1 <1>        0.000
     14 H           6.0804   -0.8739    5.4985 H.spc      1 <1>        0.000
     15 H           8.2597    0.2802    5.1537 H.spc      1 <1>        0.000
     16 H           9.1676    0.5643    2.8525 H.spc      1 <1>        0.000
@<TRIPOS>BOND
     1    1    2 1  
     2    2    3 ar 
     3    3    4 ar 
     4    4    5 ar 
     5    5    6 ar 
     6    6    7 ar 
     7    7    2 ar 
     8    3    8 1  
     9    8    9 am 
    10    9    1 am 
    11    9   10 2  
    12    8   11 1  
    13    1   12 1  
    14    4   13 1  
    15    5   14 1  
    16    6   15 1  
    17    7   16 1  
