# Name:          seed_class_3_112_50/26467
# Creation time: Fri May 21 00:57:14 2010


@<TRIPOS>MOLECULE
seed_class_3_112_50/26467
   13    12     1     1     1
SMALL
USER_CHARGES


@<TRIPOS>ATOM
      1 H           2.1341    3.3313    1.4720 H.spc      1 <1>        0.000
      2 O           2.6735    3.0288    0.1826 O.3        1 <1>        0.000
      3 P           3.6492    1.7995    0.2270 P.3        1 <1>        0.000
      4 O           2.9133    0.6056    0.6674 O.2        1 <1>        0.000
      5 O           4.2422    1.5502   -1.2052 O.3        1 <1>        0.000
      6 P           5.3986    0.4885   -1.1862 P.3        1 <1>        0.000
      7 O           6.5710    1.0531   -0.5023 O.2        1 <1>        0.000
      8 O           5.7849    0.1089   -2.6599 O.3        1 <1>        0.000
      9 H           6.8072   -0.8898   -2.7054 H.spc      1 <1>        0.000
     10 O           4.9167   -0.7967   -0.4240 O.3        1 <1>        0.000
     11 O           4.8177    2.0948    1.2331 O.3        1 <1>        0.000
     12 H           4.1511   -1.1645   -0.8714 H.spc      1 <1>        0.000
     13 H           5.2975    2.8746    0.9445 H.spc      1 <1>        0.000
@<TRIPOS>BOND
     1    1    2 1  
     2    2    3 1  
     3    3    4 2  
     4    3    5 1  
     5    5    6 1  
     6    6    7 2  
     7    6    8 1  
     8    8    9 1  
     9    6   10 1  
    10    3   11 1  
    11   10   12 1  
    12   11   13 1  
