# Name:          seed_class_3_93_128/26467
# Creation time: Fri May 21 00:57:14 2010


@<TRIPOS>MOLECULE
seed_class_3_93_128/26467
    5     4     1     1     1
SMALL
USER_CHARGES


@<TRIPOS>ATOM
      1 N           5.6473   -0.4890    0.4838 N.2        1 <1>        0.000
      2 O           6.6650   -1.1563    0.4941 O.2        1 <1>        0.000
      3 O           5.7162    0.7251    0.4340 O.2        1 <1>        0.000
      4 O           4.4331   -1.0999    0.5280 O.3        1 <1>        0.000
      5 H           3.2650   -0.2770    0.4705 H.spc      1 <1>        0.000
@<TRIPOS>BOND
     1    1    2 2  
     2    1    3 2  
     3    1    4 1  
     4    4    5 1  
