# Name:          seed_class_2_79_20/95646
# Creation time: Fri May 21 00:57:14 2010


@<TRIPOS>MOLECULE
seed_class_2_79_20/95646
   14    15     1     1     1
SMALL
USER_CHARGES


@<TRIPOS>ATOM
      1 N          -0.8048    1.0305   -0.2599 N.pl3      1 <1>        0.000
      2 C          -1.5324    0.1477    0.4756 C.ar       1 <1>        0.000
      3 N          -2.8290   -0.1780    0.0601 N.ar       1 <1>        0.000
      4 C          -3.3657    0.3474   -1.0254 C.ar       1 <1>        0.000
      5 C          -2.5560    1.3058   -1.8105 C.ar       1 <1>        0.000
      6 C          -1.3188    1.5956   -1.3851 C.ar       1 <1>        0.000
      7 H          -0.4768    2.5711   -2.1723 H.spc      1 <1>        0.000
      8 H          -3.1112    1.9423   -3.0621 H.spc      1 <1>        0.000
      9 H          -4.6366    0.0150   -1.4144 H.spc      1 <1>        0.000
     10 N          -0.8077   -0.2471    1.5058 N.ar       1 <1>        0.000
     11 C           0.4294    0.4040    1.4313 C.ar       1 <1>        0.000
     12 C           0.4062    1.1814    0.3402 C.ar       1 <1>        0.000
     13 H           1.5546    0.2602    2.3819 H.spc      1 <1>        0.000
     14 H           1.2166    1.8229   -0.0060 H.spc      1 <1>        0.000
@<TRIPOS>BOND
     1    1    2 ar 
     2    2    3 ar 
     3    3    4 ar 
     4    4    5 ar 
     5    5    6 ar 
     6    6    1 ar 
     7    6    7 1  
     8    5    8 1  
     9    4    9 1  
    10    2   10 ar 
    11   10   11 ar 
    12   11   12 ar 
    13   12    1 ar 
    14   11   13 1  
    15   12   14 1  
