# Name:          seed_class_4_347_23/38664
# Creation time: Fri May 21 00:57:17 2010


@<TRIPOS>MOLECULE
seed_class_4_347_23/38664
   24    26     1     1     1
SMALL
USER_CHARGES


@<TRIPOS>ATOM
      1 H           6.7536   -0.7774   -0.5761 H.spc      1 <1>        0.000
      2 C           5.4464   -0.5137   -0.3658 C.ar       1 <1>        0.000
      3 C           4.4668   -1.2281   -1.0659 C.ar       1 <1>        0.000
      4 C           3.1112   -0.9547   -0.8479 C.ar       1 <1>        0.000
      5 C           2.7352    0.0331    0.0701 C.ar       1 <1>        0.000
      6 C           3.7147    0.7475    0.7702 C.ar       1 <1>        0.000
      7 C           5.0704    0.4741    0.5522 C.ar       1 <1>        0.000
      8 N           1.4406    0.4674    0.4412 N.pl3      1 <1>        0.000
      9 C           1.2524    1.4514    1.3610 C.ar       1 <1>        0.000
     10 N          -0.0439    1.6505    1.5108 N.ar       1 <1>        0.000
     11 C          -0.7142    0.7648    0.6587 C.ar       1 <1>        0.000
     12 C           0.2185    0.0506    0.0140 C.ar       1 <1>        0.000
     13 C          -0.0611   -1.0263   -1.0068 C.3        1 <1>        0.000
     14 N           0.9147   -1.8412   -1.7449 N.am       1 <1>        0.000
     15 C           2.2429   -1.8152   -1.6821 C.2        1 <1>        0.000
     16 O           2.8272   -2.6121   -2.4146 O.2        1 <1>        0.000
     17 H          -2.1803    0.6405    0.4994 H.spc      1 <1>        0.000
     18 H           4.7596   -1.9972   -1.7807 H.spc      1 <1>        0.000
     19 H           3.4219    1.5165    1.4850 H.spc      1 <1>        0.000
     20 H           5.8331    1.0303    1.0972 H.spc      1 <1>        0.000
     21 H           2.0420    1.9874    1.8877 H.spc      1 <1>        0.000
     22 H          -0.5032   -0.4427   -1.8143 H.spc      1 <1>        0.000
     23 H          -0.5444   -1.7831   -0.3889 H.spc      1 <1>        0.000
     24 H           0.5185   -2.5202   -2.3948 H.spc      1 <1>        0.000
@<TRIPOS>BOND
     1    1    2 1  
     2    2    3 ar 
     3    3    4 ar 
     4    4    5 ar 
     5    5    6 ar 
     6    6    7 ar 
     7    7    2 ar 
     8    5    8 1  
     9    8    9 ar 
    10    9   10 ar 
    11   10   11 ar 
    12   11   12 ar 
    13   12    8 ar 
    14   12   13 1  
    15   13   14 1  
    16   14   15 am 
    17   15    4 1  
    18   15   16 2  
    19   11   17 1  
    20    3   18 1  
    21    6   19 1  
    22    7   20 1  
    23    9   21 1  
    24   13   22 1  
    25   13   23 1  
    26   14   24 1  
