# Name:          seed_class_5_543_22/34898
# Creation time: Fri May 21 00:57:20 2010


@<TRIPOS>MOLECULE
seed_class_5_543_22/34898
   18    18     1     1     1
SMALL
USER_CHARGES


@<TRIPOS>ATOM
      1 O           4.0218    6.4292   -2.6670 O.3        1 <1>        0.000
      2 H           3.0246    5.8309   -1.8348 H.spc      1 <1>        0.000
      3 C           5.2690    6.5605   -2.1672 C.2        1 <1>        0.000
      4 O           5.4911    6.2814   -1.0006 O.2        1 <1>        0.000
      5 C           6.3668    7.0432   -3.0346 C.ar       1 <1>        0.000
      6 C           7.6659    7.1519   -2.5243 C.ar       1 <1>        0.000
      7 C           8.7043    7.6085   -3.3448 C.ar       1 <1>        0.000
      8 C           8.4436    7.9563   -4.6756 C.ar       1 <1>        0.000
      9 C           7.1445    7.8475   -5.1859 C.ar       1 <1>        0.000
     10 C           6.1061    7.3910   -4.3654 C.ar       1 <1>        0.000
     11 O           7.9210    6.8116   -1.2220 O.3        1 <1>        0.000
     12 C           8.6446    7.6703   -0.4726 C.2        1 <1>        0.000
     13 O           8.8443    8.8067   -0.8688 O.2        1 <1>        0.000
     14 H           9.2066    7.2241    0.8560 H.spc      1 <1>        0.000
     15 H           9.7158    7.6932   -2.9475 H.spc      1 <1>        0.000
     16 H           9.2521    8.3118   -5.3144 H.spc      1 <1>        0.000
     17 H           6.9415    8.1182   -6.2221 H.spc      1 <1>        0.000
     18 H           5.0946    7.3064   -4.7627 H.spc      1 <1>        0.000
@<TRIPOS>BOND
     1    1    2 1  
     2    1    3 1  
     3    3    4 2  
     4    3    5 1  
     5    5    6 ar 
     6    6    7 ar 
     7    7    8 ar 
     8    8    9 ar 
     9    9   10 ar 
    10   10    5 ar 
    11    6   11 1  
    12   11   12 1  
    13   12   13 2  
    14   12   14 1  
    15    7   15 1  
    16    8   16 1  
    17    9   17 1  
    18   10   18 1  
