# Name:          seed_class_5_394_167/34898
# Creation time: Fri May 21 00:57:18 2010


@<TRIPOS>MOLECULE
seed_class_5_394_167/34898
   16    16     1     1     1
SMALL
USER_CHARGES


@<TRIPOS>ATOM
      1 N          -0.8360    0.4612    0.7911 N.am       1 <1>        0.000
      2 H           0.5962    0.1726    0.9542 H.spc      1 <1>        0.000
      3 C          -1.3454    0.6329   -0.4254 C.2        1 <1>        0.000
      4 O          -0.6814    0.3371   -1.4176 O.2        1 <1>        0.000
      5 C          -2.7112    1.1801   -0.5852 C.ar       1 <1>        0.000
      6 C          -3.2142    2.0913    0.3510 C.ar       1 <1>        0.000
      7 C          -4.5062    2.6089    0.1998 C.ar       1 <1>        0.000
      8 C          -5.2952    2.2152   -0.8876 C.ar       1 <1>        0.000
      9 C          -4.7922    1.3040   -1.8239 C.ar       1 <1>        0.000
     10 C          -3.5002    0.7864   -1.6727 C.ar       1 <1>        0.000
     11 H          -1.4390    0.5298    1.6109 H.spc      1 <1>        0.000
     12 H          -2.5999    2.3978    1.1977 H.spc      1 <1>        0.000
     13 H          -4.8978    3.3184    0.9287 H.spc      1 <1>        0.000
     14 H          -6.3011    2.6181   -1.0052 H.spc      1 <1>        0.000
     15 H          -5.4065    0.9976   -2.6706 H.spc      1 <1>        0.000
     16 H          -3.1086    0.0769   -2.4016 H.spc      1 <1>        0.000
@<TRIPOS>BOND
     1    1    2 1  
     2    1    3 am 
     3    3    4 2  
     4    3    5 1  
     5    5    6 ar 
     6    6    7 ar 
     7    7    8 ar 
     8    8    9 ar 
     9    9   10 ar 
    10   10    5 ar 
    11    1   11 1  
    12    6   12 1  
    13    7   13 1  
    14    8   14 1  
    15    9   15 1  
    16   10   16 1  
