# Name:          seed_class_3_146_22/26467
# Creation time: Fri May 21 00:57:15 2010


@<TRIPOS>MOLECULE
seed_class_3_146_22/26467
   10     9     1     1     1
SMALL
USER_CHARGES


@<TRIPOS>ATOM
      1 H           0.0001   -2.6969    1.4404 H.spc      1 <1>        0.000
      2 S          -0.1389   -1.6015    2.9122 S.o2       1 <1>        0.000
      3 O           1.1453   -1.4618    3.5254 O.2        1 <1>        0.000
      4 O          -1.0545   -2.1754    3.8488 O.2        1 <1>        0.000
      5 N          -0.7224   -0.0281    2.4154 N.am       1 <1>        0.000
      6 C          -1.9737    0.1123    1.9873 C.2        1 <1>        0.000
      7 O          -2.3804    1.2092    1.6410 O.2        1 <1>        0.000
      8 O          -2.7938   -0.9588    1.9360 O.3        1 <1>        0.000
      9 H          -4.1380   -0.7545    1.4931 H.spc      1 <1>        0.000
     10 H          -0.1028    0.7812    2.4542 H.spc      1 <1>        0.000
@<TRIPOS>BOND
     1    1    2 1  
     2    2    3 2  
     3    2    4 2  
     4    2    5 1  
     5    5    6 am 
     6    6    7 2  
     7    6    8 1  
     8    8    9 1  
     9    5   10 1  
