# Name:          seed_class_2_65_43/95646
# Creation time: Fri May 21 00:57:14 2010


@<TRIPOS>MOLECULE
seed_class_2_65_43/95646
   15    16     1     1     1
SMALL
USER_CHARGES


@<TRIPOS>ATOM
      1 H           3.6239    3.5278    1.5191 H.spc      1 <1>        0.000
      2 C           2.5454    2.8415    1.0851 C.ar       1 <1>        0.000
      3 C           2.6439    2.0270   -0.0493 C.ar       1 <1>        0.000
      4 C           1.5255    1.3153   -0.4994 C.ar       1 <1>        0.000
      5 N           1.3341    0.4356   -1.5910 N.pl3      1 <1>        0.000
      6 N          -0.0473   -0.0040   -1.5586 N.ar       1 <1>        0.000
      7 C          -0.6586    0.5576   -0.5323 C.ar       1 <1>        0.000
      8 C           0.3085    1.4181    0.1850 C.ar       1 <1>        0.000
      9 C           0.2100    2.2326    1.3194 C.ar       1 <1>        0.000
     10 C           1.3284    2.9443    1.7695 C.ar       1 <1>        0.000
     11 H          -2.0773    0.3593   -0.1602 H.spc      1 <1>        0.000
     12 H           2.3498    0.0397   -2.5772 H.spc      1 <1>        0.000
     13 H           3.5914    1.9470   -0.5821 H.spc      1 <1>        0.000
     14 H          -0.7375    2.3126    1.8522 H.spc      1 <1>        0.000
     15 H           1.2517    3.5784    2.6527 H.spc      1 <1>        0.000
@<TRIPOS>BOND
     1    1    2 1  
     2    2    3 ar 
     3    3    4 ar 
     4    4    5 ar 
     5    5    6 ar 
     6    6    7 ar 
     7    7    8 ar 
     8    8    4 ar 
     9    8    9 ar 
    10    9   10 ar 
    11   10    2 ar 
    12    7   11 1  
    13    5   12 1  
    14    3   13 1  
    15    9   14 1  
    16   10   15 1  
