# Name:          seed_class_3_104_68/26467
# Creation time: Fri May 21 00:57:14 2010


@<TRIPOS>MOLECULE
seed_class_3_104_68/26467
    6     5     1     1     1
SMALL
USER_CHARGES


@<TRIPOS>ATOM
      1 S          -1.0405    0.8437   -0.9858 S.o2       1 <1>        0.000
      2 O          -1.0816   -0.5721   -0.7892 O.2        1 <1>        0.000
      3 O          -0.5796    1.1280   -2.3094 O.2        1 <1>        0.000
      4 O          -2.4842    1.4427   -0.7926 O.3        1 <1>        0.000
      5 H          -3.4903    0.9665   -1.5913 H.spc      1 <1>        0.000
      6 H           0.1062    1.6000    0.2385 H.spc      1 <1>        0.000
@<TRIPOS>BOND
     1    1    2 2  
     2    1    3 2  
     3    1    4 1  
     4    4    5 1  
     5    1    6 1  
