#	Name:			2-norpinene
#	Creating user name:	becker
#	Creation time:		Thu Dec 19 02:54:38 2002

#	Modifying user name:	zmliu
#	Modification time:	Thu Mar 11 20:16:38 2004

@<TRIPOS>MOLECULE
2-norpinene
   17    18     1     1     0
SMALL
GAST_HUCK


@<TRIPOS>ATOM
      1 C1          0.7845    1.0051    0.0000 C.3       1 NORPINENE    0.0186 
      2 C2         -0.6668    1.4262    0.0000 C.2       1 NORPINENE    0.0507 
      3 C3         -1.5927    0.4568    0.0000 C.2       1 NORPINENE    0.0441 
      4 C4         -1.1542   -0.9940    0.0000 C.3       1 NORPINENE   -0.0003 
      5 C5          0.4003   -1.0684    0.0000 C.3       1 NORPINENE   -0.0418 
      6 C6          0.9439   -0.0964    1.0769 C.3       1 NORPINENE   -0.0357 
      7 C7          0.9438   -0.0964   -1.0769 C.3       1 NORPINENE   -0.0357 
      8 H1          1.5264    1.8198    0.0000 H.spc     1 NORPINENE   -1.0000 
      9 H2         -0.9423    2.4811    0.0000 H.spc     1 NORPINENE   -1.0000 
     10 H3         -2.6552    0.7032    0.0000 H.spc     1 NORPINENE   -1.0000 
     11 H4         -1.5483   -1.5000   -0.8951 H.spc     1 NORPINENE   -1.0000 
     12 H5         -1.5482   -1.5000    0.8952 H.spc     1 NORPINENE   -1.0000 
     13 H6          0.8194   -2.0881    0.0000 H.spc     1 NORPINENE   -1.0000 
     14 H7          0.3425    0.0166    1.9937 H.spc     1 NORPINENE   -1.0000 
     15 H8          2.0022   -0.2911    1.3202 H.spc     1 NORPINENE   -1.0000 
     16 H9          2.0022   -0.2910   -1.3203 H.spc     1 NORPINENE   -1.0000 
     17 H10         0.3426    0.0167   -1.9936 H.spc     1 NORPINENE   -1.0000 
@<TRIPOS>BOND
     1    1    2 1    
     2    1    6 1    
     3    1    7 1    
     4    1    8 1    
     5    2    3 2    
     6    2    9 1    
     7    3    4 1    
     8    3   10 1    
     9    4    5 1    
    10    4   11 1    
    11    4   12 1    
    12    5    6 1    
    13    5    7 1    
    14    5   13 1    
    15    6   14 1    
    16    6   15 1    
    17    7   16 1    
    18    7   17 1    
@<TRIPOS>SUBSTRUCTURE
     1 NORPINENE     1 PERM              0 ****  ****    0 ROOT 
@<TRIPOS>NORMAL
@<TRIPOS>FF_PBC
FORCE_FIELD_SETUP_FEATURE Force Field Setup information
v1.0  0 0.000000 0.000000 0.000000 0.000000 0.000000 0.000000 NONE 2 0 0 0 0 0 0 0 0 0 0 0 0
