# Name:          seed_class_5_572_20/34898
# Creation time: Fri May 21 00:57:20 2010


@<TRIPOS>MOLECULE
seed_class_5_572_20/34898
   21    22     1     1     1
SMALL
USER_CHARGES


@<TRIPOS>ATOM
      1 H           0.2907    0.7576   -0.1949 H.spc      1 <1>        0.000
      2 C           1.7806    0.9655   -0.4623 C.3        1 <1>        0.000
      3 C           2.4695   -0.3927   -0.6908 C.3        1 <1>        0.000
      4 C           3.9857   -0.1958   -0.8745 C.3        1 <1>        0.000
      5 C           4.6227    0.5556    0.2700 C.ar       1 <1>        0.000
      6 C           3.8337    1.4620    0.9883 C.ar       1 <1>        0.000
      7 C           4.3868    2.1782    2.0564 C.ar       1 <1>        0.000
      8 C           5.7290    1.9881    2.4063 C.ar       1 <1>        0.000
      9 C           6.5180    1.0817    1.6881 C.ar       1 <1>        0.000
     10 C           5.9648    0.3654    0.6199 C.ar       1 <1>        0.000
     11 C           2.4087    1.7216    0.6840 C.2        1 <1>        0.000
     12 O           1.7562    2.5284    1.3445 O.2        1 <1>        0.000
     13 H           1.9093    1.5607   -1.3663 H.spc      1 <1>        0.000
     14 H           2.0584   -0.8547   -1.5884 H.spc      1 <1>        0.000
     15 H           2.2950   -1.0314    0.1751 H.spc      1 <1>        0.000
     16 H           4.1384    0.3878   -1.7823 H.spc      1 <1>        0.000
     17 H           4.4464   -1.1825   -0.9228 H.spc      1 <1>        0.000
     18 H           3.7725    2.8839    2.6156 H.spc      1 <1>        0.000
     19 H           6.1597    2.5458    3.2379 H.spc      1 <1>        0.000
     20 H           7.5630    0.9337    1.9605 H.spc      1 <1>        0.000
     21 H           6.5791   -0.3403    0.0607 H.spc      1 <1>        0.000
@<TRIPOS>BOND
     1    1    2 1  
     2    2    3 1  
     3    3    4 1  
     4    4    5 1  
     5    5    6 ar 
     6    6    7 ar 
     7    7    8 ar 
     8    8    9 ar 
     9    9   10 ar 
    10   10    5 ar 
    11    6   11 1  
    12   11    2 1  
    13   11   12 2  
    14    2   13 1  
    15    3   14 1  
    16    3   15 1  
    17    4   16 1  
    18    4   17 1  
    19    7   18 1  
    20    8   19 1  
    21    9   20 1  
    22   10   21 1  
