# Name:          seed_class_5_514_27/34898
# Creation time: Fri May 21 00:57:20 2010


@<TRIPOS>MOLECULE
seed_class_5_514_27/34898
   30    32     1     1     1
SMALL
USER_CHARGES


@<TRIPOS>ATOM
      1 O           0.1268   -2.1116    2.0071 O.3        1 <1>        0.000
      2 C          -0.5497   -1.2491    1.1854 C.ar       1 <1>        0.000
      3 C           0.1589   -0.3733    0.3542 C.ar       1 <1>        0.000
      4 C          -0.5324    0.5082   -0.4855 C.ar       1 <1>        0.000
      5 C          -1.9324    0.5138   -0.4940 C.ar       1 <1>        0.000
      6 C          -2.6410   -0.3620    0.3372 C.ar       1 <1>        0.000
      7 C          -1.9497   -1.2434    1.1769 C.ar       1 <1>        0.000
      8 C          -4.1210   -0.3560    0.3281 C.2        1 <1>        0.000
      9 O          -4.7234    0.3984   -0.4178 O.2        1 <1>        0.000
     10 O          -4.7891   -1.1668    1.1272 O.3        1 <1>        0.000
     11 C           0.2269    1.4549   -1.3840 C.3        1 <1>        0.000
     12 C           1.7353    1.4062   -1.3343 C.ar       1 <1>        0.000
     13 C           2.4046    0.5158   -0.4862 C.ar       1 <1>        0.000
     14 C           3.8041    0.4918   -0.4602 C.ar       1 <1>        0.000
     15 C           4.5344    1.3582   -1.2824 C.ar       1 <1>        0.000
     16 C           3.8651    2.2486   -2.1306 C.ar       1 <1>        0.000
     17 C           2.4656    2.2726   -2.1565 C.ar       1 <1>        0.000
     18 O           4.4590   -0.3794    0.3697 O.3        1 <1>        0.000
     19 C           1.6383   -0.4026    0.3854 C.2        1 <1>        0.000
     20 O           2.2267   -1.1847    1.1304 O.2        1 <1>        0.000
     21 H          -0.5031   -2.6373    2.5056 H.spc      1 <1>        0.000
     22 H          -2.4707    1.2000   -1.1478 H.spc      1 <1>        0.000
     23 H          -2.5014   -1.9252    1.8241 H.spc      1 <1>        0.000
     24 H          -4.1696   -1.6881    1.6430 H.spc      1 <1>        0.000
     25 H          -0.0450    2.4565   -1.0508 H.spc      1 <1>        0.000
     26 H          -0.0419    1.1719   -2.4017 H.spc      1 <1>        0.000
     27 H           5.6241    1.3396   -1.2622 H.spc      1 <1>        0.000
     28 H           4.4337    2.9231   -2.7708 H.spc      1 <1>        0.000
     29 H           1.9445    2.9658   -2.8168 H.spc      1 <1>        0.000
     30 H           3.8161   -0.8968    0.8602 H.spc      1 <1>        0.000
@<TRIPOS>BOND
     1    1    2 1  
     2    2    3 ar 
     3    3    4 ar 
     4    4    5 ar 
     5    5    6 ar 
     6    6    7 ar 
     7    7    2 ar 
     8    6    8 1  
     9    8    9 2  
    10    8   10 1  
    11    4   11 1  
    12   11   12 1  
    13   12   13 ar 
    14   13   14 ar 
    15   14   15 ar 
    16   15   16 ar 
    17   16   17 ar 
    18   17   12 ar 
    19   14   18 1  
    20   13   19 1  
    21   19    3 1  
    22   19   20 2  
    23    1   21 1  
    24    5   22 1  
    25    7   23 1  
    26   10   24 1  
    27   11   25 1  
    28   11   26 1  
    29   15   27 1  
    30   16   28 1  
    31   17   29 1  
    32   18   30 1  
