# Name:          seed_class_5_383_239/34898
# Creation time: Fri May 21 00:57:18 2010


@<TRIPOS>MOLECULE
seed_class_5_383_239/34898
   14    14     1     1     1
SMALL
USER_CHARGES


@<TRIPOS>ATOM
      1 H           1.3038    1.0120    3.1508 H.spc      1 <1>        0.000
      2 N           0.8024    0.2912    1.9718 N.pl3      1 <1>        0.000
      3 H           0.3700    1.0388    0.7822 H.spc      1 <1>        0.000
      4 C           0.7360   -1.1222    1.9820 C.ar       1 <1>        0.000
      5 C           1.7051   -1.8636    2.6683 C.ar       1 <1>        0.000
      6 C           1.6394   -3.2620    2.6784 C.ar       1 <1>        0.000
      7 C           0.6046   -3.9190    2.0021 C.ar       1 <1>        0.000
      8 C          -0.3646   -3.1776    1.3157 C.ar       1 <1>        0.000
      9 C          -0.2989   -1.7792    1.3057 C.ar       1 <1>        0.000
     10 H           2.5108   -1.3521    3.1948 H.spc      1 <1>        0.000
     11 H           2.3939   -3.8392    3.2128 H.spc      1 <1>        0.000
     12 H           0.5535   -5.0078    2.0099 H.spc      1 <1>        0.000
     13 H          -1.1703   -3.6891    0.7891 H.spc      1 <1>        0.000
     14 H          -1.0535   -1.2019    0.7714 H.spc      1 <1>        0.000
@<TRIPOS>BOND
     1    1    2 1  
     2    2    3 1  
     3    2    4 1  
     4    4    5 ar 
     5    5    6 ar 
     6    6    7 ar 
     7    7    8 ar 
     8    8    9 ar 
     9    9    4 ar 
    10    5   10 1  
    11    6   11 1  
    12    7   12 1  
    13    8   13 1  
    14    9   14 1  
