# Name:          seed_class_4_298_32/38664
# Creation time: Fri May 21 00:57:17 2010


@<TRIPOS>MOLECULE
seed_class_4_298_32/38664
   19    20     1     1     1
SMALL
USER_CHARGES


@<TRIPOS>ATOM
      1 O           2.0863    2.1665    0.7291 O.3        1 <1>        0.000
      2 C           1.3312    1.3950    1.6669 C.3        1 <1>        0.000
      3 C           1.9894    0.1595    2.3086 C.3        1 <1>        0.000
      4 C           3.4075   -0.1526    1.8941 C.ar       1 <1>        0.000
      5 C           4.0471    0.6769    0.9652 C.ar       1 <1>        0.000
      6 C           5.3617    0.4019    0.5699 C.ar       1 <1>        0.000
      7 C           6.0367   -0.7024    1.1036 C.ar       1 <1>        0.000
      8 C           5.3971   -1.5318    2.0325 C.ar       1 <1>        0.000
      9 C           4.0825   -1.2569    2.4278 C.ar       1 <1>        0.000
     10 H           6.0576   -2.6125    2.5547 H.spc      1 <1>        0.000
     11 H           5.9876    1.2136   -0.3391 H.spc      1 <1>        0.000
     12 C           3.3534    1.8498    0.3877 C.2        1 <1>        0.000
     13 O           3.9430    2.5497   -0.4191 O.2        1 <1>        0.000
     14 H           0.0303    0.9564    0.9961 H.spc      1 <1>        0.000
     15 H           1.2022    2.0767    2.5076 H.spc      1 <1>        0.000
     16 H           1.3913   -0.6951    1.9923 H.spc      1 <1>        0.000
     17 H           2.0297    0.3649    3.3783 H.spc      1 <1>        0.000
     18 H           7.0602   -0.9164    0.7959 H.spc      1 <1>        0.000
     19 H           3.5845   -1.9027    3.1511 H.spc      1 <1>        0.000
@<TRIPOS>BOND
     1    1    2 1  
     2    2    3 1  
     3    3    4 1  
     4    4    5 ar 
     5    5    6 ar 
     6    6    7 ar 
     7    7    8 ar 
     8    8    9 ar 
     9    9    4 ar 
    10    8   10 1  
    11    6   11 1  
    12    5   12 1  
    13   12    1 1  
    14   12   13 2  
    15    2   14 1  
    16    2   15 1  
    17    3   16 1  
    18    3   17 1  
    19    7   18 1  
    20    9   19 1  
