#	Name:			thiazole
#	Creating user name:	becker
#	Creation time:		Thu Dec 19 02:55:05 2002

#	Modifying user name:	zmliu
#	Modification time:	Thu Mar 11 21:38:18 2004

@<TRIPOS>MOLECULE
thiazole
    8     8     1     1     0
SMALL
GAST_HUCK


@<TRIPOS>ATOM
      1 S1          0.6104    1.5476    0.0010 S.3       1 THIAZOLE    0.0181 
      2 C1          1.4373   -0.0259    0.0000 C.2       1 THIAZOLE    0.1627 
      3 N1          0.6314   -1.0007    0.0003 N.2       1 THIAZOLE   -0.2934 
      4 C2         -0.7766   -0.6969    0.0002 C.2       1 THIAZOLE    0.0382 
      5 C3         -0.9370    0.6312    0.0000 C.2       1 THIAZOLE    0.0744 
      6 H1          2.5202   -0.1385   -0.0009 H.spc     1 THIAZOLE   -1.0000 
      7 H2         -1.5755   -1.4374    0.0002 H.spc     1 THIAZOLE   -1.0000 
      8 H3         -1.9103    1.1207   -0.0009 H.spc     1 THIAZOLE   -1.0000 
@<TRIPOS>BOND
     1    1    2 1    
     2    1    5 1    
     3    2    3 2    
     4    3    4 1    
     5    4    5 2    
     6    2    6 1    
     7    4    7 1    
     8    5    8 1    
@<TRIPOS>SUBSTRUCTURE
     1 THIAZOLE     1 PERM              0 ****  ****    0 ROOT 
@<TRIPOS>NORMAL
@<TRIPOS>FF_PBC
FORCE_FIELD_SETUP_FEATURE Force Field Setup information
v1.0  0 0.000000 0.000000 0.000000 0.000000 0.000000 0.000000 NONE 2 0 0 0 0 0 0 0 0 0 0 0 0
