# Name:          seed_class_3_150_20/26467
# Creation time: Fri May 21 00:57:15 2010


@<TRIPOS>MOLECULE
seed_class_3_150_20/26467
    8     7     1     1     1
SMALL
USER_CHARGES


@<TRIPOS>ATOM
      1 H           0.2658   -0.0521   -0.3881 H.spc      1 <1>        0.000
      2 C           1.5536   -0.7280   -0.1141 C.2        1 <1>        0.000
      3 C           2.3208   -0.3199    0.9059 C.2        1 <1>        0.000
      4 C           3.5825   -0.9822    1.1743 C.1        1 <1>        0.000
      5 N           4.5918   -1.5120    1.3890 N.1        1 <1>        0.000
      6 C           1.8893    0.7839    1.7412 C.1        1 <1>        0.000
      7 N           1.5441    1.6670    2.4095 N.1        1 <1>        0.000
      8 H           1.8780   -1.5578   -0.7420 H.spc      1 <1>        0.000
@<TRIPOS>BOND
     1    1    2 1  
     2    2    3 2  
     3    3    4 1  
     4    4    5 3  
     5    3    6 1  
     6    6    7 3  
     7    2    8 1  
