# Name:          seed_class_3_140_25/26467
# Creation time: Fri May 21 00:57:15 2010


@<TRIPOS>MOLECULE
seed_class_3_140_25/26467
    7     6     1     1     1
SMALL
USER_CHARGES


@<TRIPOS>ATOM
      1 S           3.1724    1.0465    0.4700 S.3        1 <1>        0.000
      2 H           4.5767    1.9970    1.1311 H.spc      1 <1>        0.000
      3 C           1.6564    1.8316    0.9373 C.2        1 <1>        0.000
      4 S           1.6803    3.3996    1.6190 S.2        1 <1>        0.000
      5 N           0.4726    1.1877    0.7541 N.am       1 <1>        0.000
      6 H          -0.7391    1.8137    1.1313 H.spc      1 <1>        0.000
      7 H           0.4582    0.2535    0.3448 H.spc      1 <1>        0.000
@<TRIPOS>BOND
     1    1    2 1  
     2    1    3 1  
     3    3    4 2  
     4    3    5 am 
     5    5    6 1  
     6    5    7 1  
