# Name:          seed_class_5_407_92/34898
# Creation time: Fri May 21 00:57:18 2010


@<TRIPOS>MOLECULE
seed_class_5_407_92/34898
   13    13     1     1     1
SMALL
USER_CHARGES


@<TRIPOS>ATOM
      1 Cl          8.5567   -2.0326    1.2704 Cl         1 <1>        0.000
      2 C           6.9923   -1.7310    0.5710 C.ar       1 <1>        0.000
      3 C           5.8802   -2.4652    1.0002 C.ar       1 <1>        0.000
      4 C           4.6215   -2.2225    0.4374 C.ar       1 <1>        0.000
      5 C           4.4748   -1.2456   -0.5546 C.ar       1 <1>        0.000
      6 C           5.5869   -0.5114   -0.9839 C.ar       1 <1>        0.000
      7 C           6.8456   -0.7541   -0.4211 C.ar       1 <1>        0.000
      8 O           3.2431   -1.0081   -1.1054 O.3        1 <1>        0.000
      9 H           2.3932   -0.0541   -0.4632 H.spc      1 <1>        0.000
     10 H           5.9944   -3.2258    1.7726 H.spc      1 <1>        0.000
     11 H           3.7557   -2.7942    0.7716 H.spc      1 <1>        0.000
     12 H           5.4727    0.2492   -1.7563 H.spc      1 <1>        0.000
     13 H           7.7114   -0.1825   -0.7553 H.spc      1 <1>        0.000
@<TRIPOS>BOND
     1    1    2 1  
     2    2    3 ar 
     3    3    4 ar 
     4    4    5 ar 
     5    5    6 ar 
     6    6    7 ar 
     7    7    2 ar 
     8    5    8 1  
     9    8    9 1  
    10    3   10 1  
    11    4   11 1  
    12    6   12 1  
    13    7   13 1  
