# Name:          seed_class_2_32_364/95646
# Creation time: Fri May 21 00:57:13 2010


@<TRIPOS>MOLECULE
seed_class_2_32_364/95646
   10    10     1     1     1
SMALL
USER_CHARGES


@<TRIPOS>ATOM
      1 H          -2.0712   -0.9182    1.0883 H.spc      1 <1>        0.000
      2 C          -0.7851   -0.6233    0.5771 C.ar       1 <1>        0.000
      3 N          -0.6686   -0.0809   -0.6427 N.ar       1 <1>        0.000
      4 C           0.5330    0.2115   -1.1586 C.ar       1 <1>        0.000
      5 C           1.6862   -0.0541   -0.4105 C.ar       1 <1>        0.000
      6 C           1.5264   -0.6210    0.8596 C.ar       1 <1>        0.000
      7 N           0.2973   -0.8906    1.3204 N.ar       1 <1>        0.000
      8 H           3.0312    0.2544   -0.9453 H.spc      1 <1>        0.000
      9 H           0.6346    0.7787   -2.4367 H.spc      1 <1>        0.000
     10 H           2.4001   -0.8427    1.4725 H.spc      1 <1>        0.000
@<TRIPOS>BOND
     1    1    2 1  
     2    2    3 ar 
     3    3    4 ar 
     4    4    5 ar 
     5    5    6 ar 
     6    6    7 ar 
     7    7    2 ar 
     8    5    8 1  
     9    4    9 1  
    10    6   10 1  
