# Name:          seed_class_3_106_61/26467
# Creation time: Fri May 21 00:57:14 2010


@<TRIPOS>MOLECULE
seed_class_3_106_61/26467
    6     5     1     1     1
SMALL
USER_CHARGES


@<TRIPOS>ATOM
      1 H           1.4539    0.7647   -0.4299 H.spc      1 <1>        0.000
      2 O           1.1145   -0.3393   -1.2730 O.3        1 <1>        0.000
      3 C           1.8350   -0.5210   -2.4001 C.2        1 <1>        0.000
      4 O           1.5030    0.0370   -3.4330 O.2        1 <1>        0.000
      5 O           2.9230   -1.3201   -2.3843 O.3        1 <1>        0.000
      6 H           2.7543   -2.6912   -2.7537 H.spc      1 <1>        0.000
@<TRIPOS>BOND
     1    1    2 1  
     2    2    3 1  
     3    3    4 2  
     4    3    5 1  
     5    5    6 1  
