# Name:          seed_class_4_364_20/38664
# Creation time: Fri May 21 00:57:18 2010


@<TRIPOS>MOLECULE
seed_class_4_364_20/38664
   37    41     1     1     1
SMALL
USER_CHARGES


@<TRIPOS>ATOM
      1 N           9.4395   -4.5191    2.5652 N.3        1 <1>        0.000
      2 C           8.9408   -3.2814    3.1821 C.3        1 <1>        0.000
      3 C           8.8949   -2.2153    2.0718 C.3        1 <1>        0.000
      4 C           7.9277   -2.6019    0.9375 C.3        1 <1>        0.000
      5 C           7.4742   -1.7249   -0.2444 C.3        1 <1>        0.000
      6 O           6.0724   -1.9651   -0.3937 O.3        1 <1>        0.000
      7 C           5.5950   -2.4585    0.7919 C.ar       1 <1>        0.000
      8 C           6.6232   -2.8638    1.6513 C.ar       1 <1>        0.000
      9 C           6.3152   -3.3945    2.9097 C.ar       1 <1>        0.000
     10 C           4.9791   -3.5199    3.3086 C.ar       1 <1>        0.000
     11 C           3.9510   -3.1146    2.4492 C.ar       1 <1>        0.000
     12 C           4.2590   -2.5839    1.1908 C.ar       1 <1>        0.000
     13 H           3.2529   -2.1873    0.3497 H.spc      1 <1>        0.000
     14 C           7.5404   -3.4932    3.7868 C.3        1 <1>        0.000
     15 C           7.4223   -0.2911    0.2263 C.2        1 <1>        0.000
     16 C           8.4844    0.1787    1.1914 C.3        1 <1>        0.000
     17 C           8.6452   -0.7360    2.4198 C.3        1 <1>        0.000
     18 N           6.4759    0.5278   -0.1936 N.2        1 <1>        0.000
     19 H           6.3842    1.9117    0.2294 H.spc      1 <1>        0.000
     20 C           8.3913   -3.9604    0.3796 C.3        1 <1>        0.000
     21 C           8.5449   -5.0021    1.5034 C.3        1 <1>        0.000
     22 H          10.2161   -2.2511    1.5258 H.spc      1 <1>        0.000
     23 H           9.5788   -5.5584    3.5954 H.spc      1 <1>        0.000
     24 H           9.5941   -2.9687    3.9966 H.spc      1 <1>        0.000
     25 H           8.1122   -1.9128   -1.1080 H.spc      1 <1>        0.000
     26 H           4.7393   -3.9331    4.2883 H.spc      1 <1>        0.000
     27 H           2.9108   -3.2122    2.7598 H.spc      1 <1>        0.000
     28 H           7.5462   -4.5275    4.1308 H.spc      1 <1>        0.000
     29 H           7.4279   -2.6801    4.5039 H.spc      1 <1>        0.000
     30 H           8.1869    1.1632    1.5524 H.spc      1 <1>        0.000
     31 H           9.4347    0.1807    0.6575 H.spc      1 <1>        0.000
     32 H           7.7124   -0.6893    2.9817 H.spc      1 <1>        0.000
     33 H           9.5151   -0.3831    2.9737 H.spc      1 <1>        0.000
     34 H           9.3588   -3.8256   -0.1039 H.spc      1 <1>        0.000
     35 H           7.6432   -4.3194   -0.3272 H.spc      1 <1>        0.000
     36 H           8.9724   -5.9098    1.0774 H.spc      1 <1>        0.000
     37 H           7.5628   -5.1898    1.9375 H.spc      1 <1>        0.000
@<TRIPOS>BOND
     1    1    2 1  
     2    2    3 1  
     3    3    4 1  
     4    4    5 1  
     5    5    6 1  
     6    6    7 1  
     7    7    8 ar 
     8    8    4 1  
     9    8    9 ar 
    10    9   10 ar 
    11   10   11 ar 
    12   11   12 ar 
    13   12    7 ar 
    14   12   13 1  
    15    9   14 1  
    16   14    2 1  
    17    5   15 1  
    18   15   16 1  
    19   16   17 1  
    20   17    3 1  
    21   15   18 2  
    22   18   19 1  
    23    4   20 1  
    24   20   21 1  
    25   21    1 1  
    26    3   22 1  
    27    1   23 1  
    28    2   24 1  
    29    5   25 1  
    30   10   26 1  
    31   11   27 1  
    32   14   28 1  
    33   14   29 1  
    34   16   30 1  
    35   16   31 1  
    36   17   32 1  
    37   17   33 1  
    38   20   34 1  
    39   20   35 1  
    40   21   36 1  
    41   21   37 1  
