# Name:          seed_class_3_138_25/26467
# Creation time: Fri May 21 00:57:15 2010


@<TRIPOS>MOLECULE
seed_class_3_138_25/26467
    5     4     1     1     1
SMALL
USER_CHARGES


@<TRIPOS>ATOM
      1 S          -1.7463    0.8267    1.1249 S.3        1 <1>        0.000
      2 S           0.1242    0.0878    1.4667 S.3        1 <1>        0.000
      3 H           1.1751    0.8602    0.1974 H.spc      1 <1>        0.000
      4 S          -2.6049   -0.4904   -0.1750 S.3        1 <1>        0.000
      5 H          -3.4291   -1.7236    0.8797 H.spc      1 <1>        0.000
@<TRIPOS>BOND
     1    1    2 1  
     2    2    3 1  
     3    1    4 1  
     4    4    5 1  
