#	Name:			<unnamed>
#	Creating user name:	zmliu
#	Creation time:		Thu Mar 11 22:48:17 2004

#	Modifying user name:	zmliu
#	Modification time:	Thu Mar 11 22:49:30 2004

@<TRIPOS>MOLECULE
****
    9     9     2     1     0
SMALL
GAST_HUCK


@<TRIPOS>ATOM
      1 C          -0.0343   -0.0052    0.1423 C.ar      1 PHENYL     -0.8431 
      2 C           1.3599   -0.0109    0.0504 C.ar      1 PHENYL     -0.7861 
      3 C           2.0645    1.1881   -0.0989 C.ar      1 PHENYL     -0.5502 
      4 C           1.3596    2.3949   -0.1542 C.ar      1 PHENYL     -0.7861 
      5 C          -0.0345    2.4045   -0.0625 C.ar      1 PHENYL     -0.8431 
      6 C          -0.7327    1.2035    0.0855 C.ar      1 PHENYL     -0.8516 
      7 ****        3.4152    1.1806   -0.1890 N.pl3     2 AMINO      -0.4718 
      8 ****        3.9350    2.0643   -0.3017 H         2 AMINO       0.1319 
      9 ****        3.9356    0.2911   -0.1462 H.spc     2 AMINO      -1.0000 
@<TRIPOS>BOND
     1    1    2 ar   
     2    1    6 ar   
     3    6    5 ar   
     4    5    4 ar   
     5    4    3 ar   
     6    3    2 ar   
     7    7    8 1    
     8    7    9 1    
     9    3    7 1    
@<TRIPOS>SUBSTRUCTURE
     1 PHENYL      1 PERM              0 ****  ****    1 ROOT 
     2 AMINO       7 PERM              0 ****  ****    1  
@<TRIPOS>NORMAL
@<TRIPOS>FF_PBC
FORCE_FIELD_SETUP_FEATURE Force Field Setup information
v1.0  0 0.000000 0.000000 0.000000 0.000000 0.000000 0.000000 NONE 0 0 0 0 0 0 0 0 0 0 0 0 0
