# Name:          seed_class_2_61_52/95646
# Creation time: Fri May 21 00:57:14 2010


@<TRIPOS>MOLECULE
seed_class_2_61_52/95646
    7     7     1     1     1
SMALL
USER_CHARGES


@<TRIPOS>ATOM
      1 H          -0.7419    2.8191    0.8678 H.spc      1 <1>        0.000
      2 C          -0.0362    1.9920    1.6848 C.ar       1 <1>        0.000
      3 S           1.0326    0.6660    1.2029 S.3        1 <1>        0.000
      4 C           1.4846    0.1839    2.8449 C.ar       1 <1>        0.000
      5 N           0.8345    1.0120    3.6411 N.ar       1 <1>        0.000
      6 N          -0.0040    2.0090    3.0043 N.ar       1 <1>        0.000
      7 H           2.4148   -0.9350    3.2485 H.spc      1 <1>        0.000
@<TRIPOS>BOND
     1    1    2 1  
     2    2    3 ar 
     3    3    4 ar 
     4    4    5 ar 
     5    5    6 ar 
     6    6    2 ar 
     7    4    7 1  
