# Name:          seed_class_4_189_132/38664
# Creation time: Fri May 21 00:57:15 2010


@<TRIPOS>MOLECULE
seed_class_4_189_132/38664
   24    26     1     1     1
SMALL
USER_CHARGES


@<TRIPOS>ATOM
      1 H          -0.3344   -1.4448   -0.3432 H.spc      1 <1>        0.000
      2 C           0.6094   -1.8445    0.6324 C.ar       1 <1>        0.000
      3 C           1.8870   -1.2722    0.6461 C.ar       1 <1>        0.000
      4 C           2.8209   -1.6676    1.6112 C.ar       1 <1>        0.000
      5 C           2.4771   -2.6353    2.5627 C.ar       1 <1>        0.000
      6 C           1.1995   -3.2076    2.5490 C.ar       1 <1>        0.000
      7 C           0.2657   -2.8122    1.5838 C.ar       1 <1>        0.000
      8 H           3.3910   -3.0223    3.5072 H.spc      1 <1>        0.000
      9 C           4.1762   -1.0738    1.6414 C.2        1 <1>        0.000
     10 C           4.5348   -0.0512    0.6335 C.ar       1 <1>        0.000
     11 C           3.5967    0.3401   -0.3292 C.ar       1 <1>        0.000
     12 C           3.9345    1.3074   -1.2833 C.ar       1 <1>        0.000
     13 C           5.2106    1.8833   -1.2747 C.ar       1 <1>        0.000
     14 C           6.1487    1.4920   -0.3120 C.ar       1 <1>        0.000
     15 C           5.8108    0.5247    0.6421 C.ar       1 <1>        0.000
     16 H           6.7289    0.1418    1.5841 H.spc      1 <1>        0.000
     17 C           2.2398   -0.2500   -0.3645 C.2        1 <1>        0.000
     18 O           1.4235    0.1013   -1.2148 O.2        1 <1>        0.000
     19 O           4.9926   -1.4251    2.4918 O.2        1 <1>        0.000
     20 H           0.9318   -3.9610    3.2898 H.spc      1 <1>        0.000
     21 H          -0.7290   -3.2578    1.5731 H.spc      1 <1>        0.000
     22 H           3.2041    1.6121   -2.0328 H.spc      1 <1>        0.000
     23 H           5.4737    2.6363   -2.0176 H.spc      1 <1>        0.000
     24 H           7.1422    1.9404   -0.3053 H.spc      1 <1>        0.000
@<TRIPOS>BOND
     1    1    2 1  
     2    2    3 ar 
     3    3    4 ar 
     4    4    5 ar 
     5    5    6 ar 
     6    6    7 ar 
     7    7    2 ar 
     8    5    8 1  
     9    4    9 1  
    10    9   10 1  
    11   10   11 ar 
    12   11   12 ar 
    13   12   13 ar 
    14   13   14 ar 
    15   14   15 ar 
    16   15   10 ar 
    17   15   16 1  
    18   11   17 1  
    19   17    3 1  
    20   17   18 2  
    21    9   19 2  
    22    6   20 1  
    23    7   21 1  
    24   12   22 1  
    25   13   23 1  
    26   14   24 1  
