# Name:          seed_class_4_350_22/38664
# Creation time: Fri May 21 00:57:18 2010


@<TRIPOS>MOLECULE
seed_class_4_350_22/38664
   21    21     1     1     1
SMALL
USER_CHARGES


@<TRIPOS>ATOM
      1 H          -0.0035   -0.6963    0.3210 H.spc      1 <1>        0.000
      2 C          -1.2234   -0.3003   -0.3972 C.3        1 <1>        0.000
      3 C          -1.8436    0.9439    0.2653 C.3        1 <1>        0.000
      4 O          -2.0440    2.1940   -0.3995 O.3        1 <1>        0.000
      5 C          -2.6035    2.4956   -1.5905 C.2        1 <1>        0.000
      6 C          -3.2089    1.5696   -2.6182 C.3        1 <1>        0.000
      7 C          -4.1856    0.4079   -2.3575 C.3        1 <1>        0.000
      8 C          -3.4070   -0.9080   -2.5414 C.3        1 <1>        0.000
      9 O          -3.1398   -1.6707   -1.3616 O.3        1 <1>        0.000
     10 C          -2.2085   -1.4447   -0.4108 C.2        1 <1>        0.000
     11 O          -2.1584   -2.2337    0.5184 O.2        1 <1>        0.000
     12 H          -4.1522   -1.7880   -3.5408 H.spc      1 <1>        0.000
     13 H          -5.2460    0.4630   -3.3153 H.spc      1 <1>        0.000
     14 O          -2.6226    3.6815   -1.8764 O.2        1 <1>        0.000
     15 H          -1.0320    1.2318    1.5251 H.spc      1 <1>        0.000
     16 H          -0.9684   -0.0519   -1.4274 H.spc      1 <1>        0.000
     17 H          -2.8779    0.6120    0.3558 H.spc      1 <1>        0.000
     18 H          -2.3280    1.0365   -2.9758 H.spc      1 <1>        0.000
     19 H          -3.8355    2.2566   -3.1870 H.spc      1 <1>        0.000
     20 H          -4.6031    0.4724   -1.3527 H.spc      1 <1>        0.000
     21 H          -2.4237   -0.5967   -2.8941 H.spc      1 <1>        0.000
@<TRIPOS>BOND
     1    1    2 1  
     2    2    3 1  
     3    3    4 1  
     4    4    5 1  
     5    5    6 1  
     6    6    7 1  
     7    7    8 1  
     8    8    9 1  
     9    9   10 1  
    10   10    2 1  
    11   10   11 2  
    12    8   12 1  
    13    7   13 1  
    14    5   14 2  
    15    3   15 1  
    16    2   16 1  
    17    3   17 1  
    18    6   18 1  
    19    6   19 1  
    20    7   20 1  
    21    8   21 1  
