# Name:          seed_class_2_47_106/95646
# Creation time: Fri May 21 00:57:14 2010


@<TRIPOS>MOLECULE
seed_class_2_47_106/95646
    8     8     1     1     1
SMALL
USER_CHARGES


@<TRIPOS>ATOM
      1 H           1.5255    0.3549   -0.0122 H.spc      1 <1>        0.000
      2 C           0.1368    0.9171    0.1762 C.ar       1 <1>        0.000
      3 O          -0.1784    2.0938    0.8518 O.3        1 <1>        0.000
      4 N          -1.5674    2.2624    0.8028 N.ar       1 <1>        0.000
      5 C          -2.1043    1.2565    0.1377 C.ar       1 <1>        0.000
      6 C          -0.9973    0.3670   -0.2787 C.ar       1 <1>        0.000
      7 H          -3.5734    1.0518   -0.1452 H.spc      1 <1>        0.000
      8 H          -1.0872   -0.5588   -0.8469 H.spc      1 <1>        0.000
@<TRIPOS>BOND
     1    1    2 1  
     2    2    3 ar 
     3    3    4 ar 
     4    4    5 ar 
     5    5    6 ar 
     6    6    2 ar 
     7    5    7 1  
     8    6    8 1  
