# Name:          seed_class_4_166_335/38664
# Creation time: Fri May 21 00:57:15 2010


@<TRIPOS>MOLECULE
seed_class_4_166_335/38664
   45    48     1     1     1
SMALL
USER_CHARGES


@<TRIPOS>ATOM
      1 H           4.0939    2.4209    0.5874 H.spc      1 <1>        0.000
      2 C           3.6803    0.8734    1.6819 C.3        1 <1>        0.000
      3 C           3.1880   -0.2908    0.8023 C.3        1 <1>        0.000
      4 C           4.2773   -0.7511   -0.1841 C.3        1 <1>        0.000
      5 C           5.5837   -1.1113    0.5474 C.3        1 <1>        0.000
      6 C           6.0761    0.0529    1.4271 C.3        1 <1>        0.000
      7 C           4.9867    0.5132    2.4135 C.3        1 <1>        0.000
      8 H           7.2276   -0.3688    2.1626 H.spc      1 <1>        0.000
      9 C           1.8816    0.0694    0.0708 C.3        1 <1>        0.000
     10 C           1.3893   -1.0948   -0.8089 C.3        1 <1>        0.000
     11 C           0.0829   -0.7346   -1.5404 C.3        1 <1>        0.000
     12 C          -1.0065   -0.2743   -0.5540 C.3        1 <1>        0.000
     13 C          -2.4250    0.1334   -0.9935 C.3        1 <1>        0.000
     14 C          -2.9873    0.9113    0.2108 C.3        1 <1>        0.000
     15 C          -1.7825    1.3887    1.0428 C.3        1 <1>        0.000
     16 C          -0.5141    0.8900    0.3257 C.3        1 <1>        0.000
     17 C           0.7923    0.5298    1.0572 C.3        1 <1>        0.000
     18 C           1.2846    1.6940    1.9368 C.3        1 <1>        0.000
     19 C           2.5910    1.3338    2.6684 C.3        1 <1>        0.000
     20 H           2.2540   -0.0571    3.9782 H.spc      1 <1>        0.000
     21 H          -3.2844   -1.0836   -1.3329 H.spc      1 <1>        0.000
     22 H          -1.2067   -1.5243    0.2980 H.spc      1 <1>        0.000
     23 H           2.8655   -1.5025    1.6720 H.spc      1 <1>        0.000
     24 H           4.4829    0.0645   -0.8774 H.spc      1 <1>        0.000
     25 H           3.9181   -1.6376   -0.7068 H.spc      1 <1>        0.000
     26 H           6.3486   -1.3288   -0.1981 H.spc      1 <1>        0.000
     27 H           5.3950   -1.9728    1.1880 H.spc      1 <1>        0.000
     28 H           6.3235    0.8915    0.7762 H.spc      1 <1>        0.000
     29 H           5.3459    1.3997    2.9362 H.spc      1 <1>        0.000
     30 H           4.7811   -0.3024    3.1067 H.spc      1 <1>        0.000
     31 H           2.0986    0.9085   -0.5902 H.spc      1 <1>        0.000
     32 H           1.2006   -1.9563   -0.1683 H.spc      1 <1>        0.000
     33 H           2.1542   -1.3123   -1.5543 H.spc      1 <1>        0.000
     34 H          -0.2763   -1.6211   -2.0631 H.spc      1 <1>        0.000
     35 H           0.2885    0.0810   -2.2336 H.spc      1 <1>        0.000
     36 H          -2.4181    0.7324   -1.9041 H.spc      1 <1>        0.000
     37 H          -3.6406    0.2758    0.8087 H.spc      1 <1>        0.000
     38 H          -3.5847    1.7595   -0.1236 H.spc      1 <1>        0.000
     39 H          -1.8330    0.9927    2.0571 H.spc      1 <1>        0.000
     40 H          -1.7770    2.4756    1.1250 H.spc      1 <1>        0.000
     41 H          -0.1204    1.7789   -0.1673 H.spc      1 <1>        0.000
     42 H           0.5753   -0.3093    1.7182 H.spc      1 <1>        0.000
     43 H           0.5196    1.9115    2.6822 H.spc      1 <1>        0.000
     44 H           1.4734    2.5554    1.2962 H.spc      1 <1>        0.000
     45 H           2.9516    2.2300    3.1732 H.spc      1 <1>        0.000
@<TRIPOS>BOND
     1    2    1 1  
     2    2    3 1  
     3    3    4 1  
     4    4    5 1  
     5    5    6 1  
     6    6    7 1  
     7    7    2 1  
     8    6    8 1  
     9    3    9 1  
    10    9   10 1  
    11   10   11 1  
    12   11   12 1  
    13   12   13 1  
    14   13   14 1  
    15   14   15 1  
    16   15   16 1  
    17   16   12 1  
    18   16   17 1  
    19   17    9 1  
    20   17   18 1  
    21   18   19 1  
    22   19    2 1  
    23   19   20 1  
    24   13   21 1  
    25   12   22 1  
    26    3   23 1  
    27    4   24 1  
    28    4   25 1  
    29    5   26 1  
    30    5   27 1  
    31    6   28 1  
    32    7   29 1  
    33    7   30 1  
    34    9   31 1  
    35   10   32 1  
    36   10   33 1  
    37   11   34 1  
    38   11   35 1  
    39   13   36 1  
    40   14   37 1  
    41   14   38 1  
    42   15   39 1  
    43   15   40 1  
    44   16   41 1  
    45   17   42 1  
    46   18   43 1  
    47   18   44 1  
    48   19   45 1  
