# Name:          seed_class_5_453_43/34898
# Creation time: Fri May 21 00:57:19 2010


@<TRIPOS>MOLECULE
seed_class_5_453_43/34898
   14    14     1     1     1
SMALL
USER_CHARGES


@<TRIPOS>ATOM
      1 H          -6.1102   -0.0852    0.6425 H.spc      1 <1>        0.000
      2 N          -4.6821   -0.0773    0.9906 N.am       1 <1>        0.000
      3 C          -4.1661    1.0801    1.3943 C.2        1 <1>        0.000
      4 C          -2.7006    1.1128    1.7570 C.3        1 <1>        0.000
      5 N          -1.9367    0.0740    1.0510 N.3        1 <1>        0.000
      6 C          -2.5582   -1.2469    1.2237 C.3        1 <1>        0.000
      7 C          -4.0262   -1.2283    0.8723 C.2        1 <1>        0.000
      8 O          -4.5985   -2.2472    0.4888 O.2        1 <1>        0.000
      9 H          -0.5614    0.0400    1.5690 H.spc      1 <1>        0.000
     10 O          -4.8608    2.0923    1.4698 O.2        1 <1>        0.000
     11 H          -2.6101    0.9343    2.8285 H.spc      1 <1>        0.000
     12 H          -2.2997    2.0852    1.4708 H.spc      1 <1>        0.000
     13 H          -2.4608   -1.5364    2.2700 H.spc      1 <1>        0.000
     14 H          -2.0565   -1.9503    0.5592 H.spc      1 <1>        0.000
@<TRIPOS>BOND
     1    1    2 1  
     2    2    3 am 
     3    3    4 1  
     4    4    5 1  
     5    5    6 1  
     6    6    7 1  
     7    7    2 am 
     8    7    8 2  
     9    5    9 1  
    10    3   10 2  
    11    4   11 1  
    12    4   12 1  
    13    6   13 1  
    14    6   14 1  
