# Name:          seed_class_4_312_28/38664
# Creation time: Fri May 21 00:57:17 2010


@<TRIPOS>MOLECULE
seed_class_4_312_28/38664
   10    10     1     1     1
SMALL
USER_CHARGES


@<TRIPOS>ATOM
      1 N           4.6737    0.9546    0.8306 N.am       1 <1>        0.000
      2 C           3.8113    0.8384   -0.2145 C.2        1 <1>        0.000
      3 C           3.4738   -0.4542   -0.3188 C.2        1 <1>        0.000
      4 N           4.1292   -1.1307    0.6622 N.am       1 <1>        0.000
      5 C           4.8552   -0.2555    1.3519 C.2        1 <1>        0.000
      6 O           5.5870   -0.5254    2.3287 O.2        1 <1>        0.000
      7 H           2.5545   -1.0395   -1.3201 H.spc      1 <1>        0.000
      8 H           3.3227    1.9620   -1.0971 H.spc      1 <1>        0.000
      9 H           5.1058    1.8188    1.1575 H.spc      1 <1>        0.000
     10 H           4.0737   -2.1339    0.8382 H.spc      1 <1>        0.000
@<TRIPOS>BOND
     1    1    2 1  
     2    2    3 2  
     3    3    4 1  
     4    4    5 am 
     5    5    1 am 
     6    5    6 2  
     7    3    7 1  
     8    2    8 1  
     9    1    9 1  
    10    4   10 1  
