# Name:          seed_class_4_160_457/38664
# Creation time: Fri May 21 00:57:15 2010


@<TRIPOS>MOLECULE
seed_class_4_160_457/38664
   14    14     1     1     1
SMALL
USER_CHARGES


@<TRIPOS>ATOM
      1 N          -1.7254    2.5642    1.2200 N.3        1 <1>        0.000
      2 C          -2.8441    1.6851    0.8504 C.3        1 <1>        0.000
      3 C          -4.0483    2.2578    1.6208 C.3        1 <1>        0.000
      4 C          -3.7290    3.7521    1.8126 C.3        1 <1>        0.000
      5 C          -2.3019    3.9159    1.2575 C.3        1 <1>        0.000
      6 H          -0.6396    2.4805    0.2326 H.spc      1 <1>        0.000
      7 H          -2.6500    0.6438    1.1074 H.spc      1 <1>        0.000
      8 H          -3.0154    1.6692   -0.2259 H.spc      1 <1>        0.000
      9 H          -4.1938    1.7513    2.5750 H.spc      1 <1>        0.000
     10 H          -4.9811    2.1120    1.0762 H.spc      1 <1>        0.000
     11 H          -3.7979    4.0537    2.8578 H.spc      1 <1>        0.000
     12 H          -4.4442    4.3922    1.2961 H.spc      1 <1>        0.000
     13 H          -1.7081    4.5816    1.8840 H.spc      1 <1>        0.000
     14 H          -2.3130    4.3685    0.2660 H.spc      1 <1>        0.000
@<TRIPOS>BOND
     1    1    2 1  
     2    2    3 1  
     3    3    4 1  
     4    4    5 1  
     5    5    1 1  
     6    1    6 1  
     7    2    7 1  
     8    2    8 1  
     9    3    9 1  
    10    3   10 1  
    11    4   11 1  
    12    4   12 1  
    13    5   13 1  
    14    5   14 1  
