# Name:          seed_class_5_508_27/34898
# Creation time: Fri May 21 00:57:19 2010


@<TRIPOS>MOLECULE
seed_class_5_508_27/34898
   15    15     1     1     1
SMALL
USER_CHARGES


@<TRIPOS>ATOM
      1 H          -1.9468   -1.6716    0.7007 H.spc      1 <1>        0.000
      2 O          -2.8165   -0.5423    0.5856 O.3        1 <1>        0.000
      3 C          -4.1674   -0.7622    0.6457 C.ar       1 <1>        0.000
      4 C          -4.6582   -2.0623    0.8156 C.ar       1 <1>        0.000
      5 C          -6.0387   -2.2869    0.8770 C.ar       1 <1>        0.000
      6 C          -6.9284   -1.2115    0.7686 C.ar       1 <1>        0.000
      7 C          -6.4376    0.0886    0.5987 C.ar       1 <1>        0.000
      8 C          -5.0571    0.3133    0.5373 C.ar       1 <1>        0.000
      9 C          -8.3878   -1.4490    0.8335 C.2        1 <1>        0.000
     10 O          -8.8844   -1.9552    1.8385 O.2        1 <1>        0.000
     11 H          -9.2671   -1.0698   -0.3340 H.spc      1 <1>        0.000
     12 H          -3.9655   -2.8996    0.9001 H.spc      1 <1>        0.000
     13 H          -6.4208   -3.2991    1.0092 H.spc      1 <1>        0.000
     14 H          -7.1303    0.9259    0.5142 H.spc      1 <1>        0.000
     15 H          -4.6750    1.3255    0.4051 H.spc      1 <1>        0.000
@<TRIPOS>BOND
     1    1    2 1  
     2    2    3 1  
     3    3    4 ar 
     4    4    5 ar 
     5    5    6 ar 
     6    6    7 ar 
     7    7    8 ar 
     8    8    3 ar 
     9    6    9 1  
    10    9   10 2  
    11    9   11 1  
    12    4   12 1  
    13    5   13 1  
    14    7   14 1  
    15    8   15 1  
