# Name:          seed_class_4_279_36/38664
# Creation time: Fri May 21 00:57:16 2010


@<TRIPOS>MOLECULE
seed_class_4_279_36/38664
   19    19     1     1     1
SMALL
USER_CHARGES


@<TRIPOS>ATOM
      1 H          -3.0520   -2.1946   -2.2667 H.spc      1 <1>        0.000
      2 N          -4.4754   -2.4657   -2.0190 N.am       1 <1>        0.000
      3 C          -4.7733   -3.6495   -1.1999 C.3        1 <1>        0.000
      4 C          -5.6782   -3.3931    0.0194 C.3        1 <1>        0.000
      5 C          -7.1445   -3.1098   -0.3567 C.3        1 <1>        0.000
      6 C          -7.3962   -1.7477   -1.0297 C.3        1 <1>        0.000
      7 C          -6.8415   -1.6581   -2.4636 C.3        1 <1>        0.000
      8 C          -5.3356   -1.6098   -2.5634 C.2        1 <1>        0.000
      9 O          -4.8551   -0.6838   -3.2150 O.2        1 <1>        0.000
     10 H          -3.8203   -4.0092   -0.8120 H.spc      1 <1>        0.000
     11 H          -5.3066   -4.3490   -1.8436 H.spc      1 <1>        0.000
     12 H          -5.2947   -2.5121    0.5340 H.spc      1 <1>        0.000
     13 H          -5.6645   -4.2931    0.6341 H.spc      1 <1>        0.000
     14 H          -7.7122   -3.1092    0.5738 H.spc      1 <1>        0.000
     15 H          -7.4365   -3.8740   -1.0771 H.spc      1 <1>        0.000
     16 H          -6.8878   -0.9895   -0.4341 H.spc      1 <1>        0.000
     17 H          -8.4753   -1.6053   -1.0867 H.spc      1 <1>        0.000
     18 H          -7.2150   -0.7261   -2.8878 H.spc      1 <1>        0.000
     19 H          -7.1624   -2.5615   -2.9822 H.spc      1 <1>        0.000
@<TRIPOS>BOND
     1    1    2 1  
     2    2    3 1  
     3    3    4 1  
     4    4    5 1  
     5    5    6 1  
     6    6    7 1  
     7    7    8 1  
     8    8    2 am 
     9    8    9 2  
    10    3   10 1  
    11    3   11 1  
    12    4   12 1  
    13    4   13 1  
    14    5   14 1  
    15    5   15 1  
    16    6   16 1  
    17    6   17 1  
    18    7   18 1  
    19    7   19 1  
