#	Name:			imine
#	Creating user name:	becker
#	Creation time:		Thu Dec 19 02:54:46 2002

#	Modifying user name:	zmliu
#	Modification time:	Thu Mar 11 20:51:53 2004

@<TRIPOS>MOLECULE
imine
    5     4     1     1     0
SMALL
GAST_HUCK


@<TRIPOS>ATOM
      1 N1         -0.7465   -0.4965    0.0000 N.2       1 IMINE      -0.1929 
      2 C1          0.4252   -0.0014    0.0000 C.2       1 IMINE       0.1929 
      3 H1         -1.5625    0.0983    0.0000 H.spc     1 IMINE      -1.0000 
      4 H2          1.2805   -0.6755    0.0000 H.spc     1 IMINE      -1.0000 
      5 H3          0.6033    1.0751    0.0000 H.spc     1 IMINE      -1.0000 
@<TRIPOS>BOND
     1    1    2 2    
     2    1    3 1    
     3    2    4 1    
     4    2    5 1    
@<TRIPOS>SUBSTRUCTURE
     1 IMINE       1 PERM              0 ****  ****    0 ROOT 
@<TRIPOS>NORMAL
@<TRIPOS>FF_PBC
FORCE_FIELD_SETUP_FEATURE Force Field Setup information
v1.0  0 0.000000 0.000000 0.000000 0.000000 0.000000 0.000000 NONE 2 0 0 0 0 0 0 0 0 0 0 0 0
