# Name:          seed_class_4_353_22/38664
# Creation time: Fri May 21 00:57:18 2010


@<TRIPOS>MOLECULE
seed_class_4_353_22/38664
   14    14     1     1     1
SMALL
USER_CHARGES


@<TRIPOS>ATOM
      1 H          -3.5063   -0.1477   -3.6699 H.spc      1 <1>        0.000
      2 C          -2.4154    0.8282   -3.4513 C.2        1 <1>        0.000
      3 C          -2.0681    1.6067   -4.4852 C.2        1 <1>        0.000
      4 C          -0.9634    2.6250   -4.3347 C.3        1 <1>        0.000
      5 C          -0.4116    2.7194   -2.9000 C.3        1 <1>        0.000
      6 C          -0.4954    1.3475   -2.2055 C.3        1 <1>        0.000
      7 O          -1.8411    0.8637   -2.2080 O.3        1 <1>        0.000
      8 H          -0.0152    1.4495   -0.8624 H.spc      1 <1>        0.000
      9 H           0.9545    3.1393   -2.9484 H.spc      1 <1>        0.000
     10 H           0.1048    2.2906   -5.2247 H.spc      1 <1>        0.000
     11 H          -2.5854    1.5044   -5.4392 H.spc      1 <1>        0.000
     12 H          -1.3925    3.5976   -4.5754 H.spc      1 <1>        0.000
     13 H          -1.0052    3.4398   -2.3372 H.spc      1 <1>        0.000
     14 H           0.1274    0.6421   -2.7556 H.spc      1 <1>        0.000
@<TRIPOS>BOND
     1    1    2 1  
     2    2    3 2  
     3    3    4 1  
     4    4    5 1  
     5    5    6 1  
     6    6    7 1  
     7    7    2 1  
     8    6    8 1  
     9    5    9 1  
    10    4   10 1  
    11    3   11 1  
    12    4   12 1  
    13    5   13 1  
    14    6   14 1  
