# Name:          seed_class_4_268_40/38664
# Creation time: Fri May 21 00:57:16 2010


@<TRIPOS>MOLECULE
seed_class_4_268_40/38664
   14    14     1     1     1
SMALL
USER_CHARGES


@<TRIPOS>ATOM
      1 H           2.6700    3.0266   -2.8239 H.spc      1 <1>        0.000
      2 C           3.8532    2.0979   -2.9569 C.3        1 <1>        0.000
      3 S           5.4285    2.9742   -2.7059 S.3        1 <1>        0.000
      4 C           6.1331    1.7815   -1.5255 C.3        1 <1>        0.000
      5 C           5.2127    0.5610   -1.7116 C.3        1 <1>        0.000
      6 N           3.8439    1.0538   -1.9222 N.am       1 <1>        0.000
      7 C           2.7642    0.6220   -1.2766 C.2        1 <1>        0.000
      8 O           2.5439   -0.5846   -1.1850 O.2        1 <1>        0.000
      9 H           1.8088    1.6132   -0.6562 H.spc      1 <1>        0.000
     10 H           5.2629   -0.3161   -0.4834 H.spc      1 <1>        0.000
     11 H           3.7715    1.6810   -3.9607 H.spc      1 <1>        0.000
     12 H           6.1555    2.1518   -0.5006 H.spc      1 <1>        0.000
     13 H           7.1841    1.5608   -1.7118 H.spc      1 <1>        0.000
     14 H           5.5376   -0.0308   -2.5674 H.spc      1 <1>        0.000
@<TRIPOS>BOND
     1    1    2 1  
     2    2    3 1  
     3    3    4 1  
     4    4    5 1  
     5    5    6 1  
     6    6    2 1  
     7    6    7 am 
     8    7    8 2  
     9    7    9 1  
    10    5   10 1  
    11    2   11 1  
    12    4   12 1  
    13    4   13 1  
    14    5   14 1  
