# Name:          seed_class_3_103_69/26467
# Creation time: Fri May 21 00:57:14 2010


@<TRIPOS>MOLECULE
seed_class_3_103_69/26467
    8     7     1     1     1
SMALL
USER_CHARGES


@<TRIPOS>ATOM
      1 H          -6.7538   -1.1162   -1.5891 H.spc      1 <1>        0.000
      2 C          -7.1533    0.2886   -1.9727 C.2        1 <1>        0.000
      3 O          -7.0405    1.2040   -1.1590 O.2        1 <1>        0.000
      4 N          -7.6272    0.5360   -3.1906 N.am       1 <1>        0.000
      5 N          -7.9905    1.8593   -3.5557 N.3        1 <1>        0.000
      6 H          -7.7297   -0.2248   -3.8623 H.spc      1 <1>        0.000
      7 H          -8.3309    1.8641   -4.5172 H.spc      1 <1>        0.000
      8 H          -8.7252    2.1932   -2.9320 H.spc      1 <1>        0.000
@<TRIPOS>BOND
     1    1    2 1  
     2    2    3 2  
     3    2    4 am 
     4    4    5 1  
     5    4    6 1  
     6    5    7 1  
     7    5    8 1  
