# Name:          seed_class_4_235_59/38664
# Creation time: Fri May 21 00:57:16 2010


@<TRIPOS>MOLECULE
seed_class_4_235_59/38664
   19    20     1     1     1
SMALL
USER_CHARGES


@<TRIPOS>ATOM
      1 H           0.0791    0.1966   -2.1623 H.spc      1 <1>        0.000
      2 C          -0.2604    0.8693   -0.9001 C.3        1 <1>        0.000
      3 C          -0.2066   -0.1006    0.2949 C.3        1 <1>        0.000
      4 C           0.8398    0.5171    1.2409 C.3        1 <1>        0.000
      5 C           1.7661    1.0138    0.1154 C.3        1 <1>        0.000
      6 C           0.7582    1.9698   -0.5492 C.3        1 <1>        0.000
      7 C           0.2225    2.7936    0.6371 C.3        1 <1>        0.000
      8 C           0.2776    1.8234    1.8319 C.3        1 <1>        0.000
      9 H          -1.5692   -0.2406    0.9720 H.spc      1 <1>        0.000
     10 H          -1.2612    1.2717   -1.0568 H.spc      1 <1>        0.000
     11 H           0.0598   -1.1131   -0.0085 H.spc      1 <1>        0.000
     12 H           1.2088   -0.1239    2.0416 H.spc      1 <1>        0.000
     13 H           2.1919    0.2443   -0.5285 H.spc      1 <1>        0.000
     14 H           2.7093    1.4582    0.4331 H.spc      1 <1>        0.000
     15 H           1.0534    2.6361   -1.3597 H.spc      1 <1>        0.000
     16 H          -0.7865    3.1641    0.4563 H.spc      1 <1>        0.000
     17 H           0.8135    3.6927    0.8117 H.spc      1 <1>        0.000
     18 H          -0.7025    1.6781    2.2862 H.spc      1 <1>        0.000
     19 H           0.8988    2.2066    2.6415 H.spc      1 <1>        0.000
@<TRIPOS>BOND
     1    2    1 1  
     2    2    3 1  
     3    3    4 1  
     4    4    5 1  
     5    5    6 1  
     6    6    2 1  
     7    6    7 1  
     8    7    8 1  
     9    8    4 1  
    10    3    9 1  
    11    2   10 1  
    12    3   11 1  
    13    4   12 1  
    14    5   13 1  
    15    5   14 1  
    16    6   15 1  
    17    7   16 1  
    18    7   17 1  
    19    8   18 1  
    20    8   19 1  
