#	Name:			<unnamed>
#	Creating user name:	zmliu
#	Creation time:		Thu Mar 11 22:09:44 2004

#	Modifying user name:	zmliu
#	Modification time:	Thu Mar 11 22:10:37 2004

@<TRIPOS>MOLECULE
****
    5     4     1     0     0
SMALL
GAST_HUCK


@<TRIPOS>ATOM
      1 C1         -0.8631   -1.4210    1.6799 N.2       1 <1>        -0.1929 
      2 C2         -0.2605   -0.7799    0.6760 C.2       1 <1>         0.1929 
      3 H1         -0.7488   -1.0951    2.6269 H.spc     1 <1>        -1.0000 
      4 H2         -0.3840   -1.1320   -0.3471 H.spc     1 <1>        -1.0000 
      5 H3          0.3547    0.0952    0.8801 H.spc     1 <1>        -1.0000 
@<TRIPOS>BOND
     1    2    1 2    
     2    1    3 1    
     3    2    4 1    
     4    2    5 1    
@<TRIPOS>SUBSTRUCTURE
     1 ****        2 TEMP              0 ****  ****    0 ROOT 
