# Name:          seed_class_4_231_63/38664
# Creation time: Fri May 21 00:57:16 2010


@<TRIPOS>MOLECULE
seed_class_4_231_63/38664
   25    27     1     1     1
SMALL
USER_CHARGES


@<TRIPOS>ATOM
      1 H           2.5455    2.7272   -1.4034 H.spc      1 <1>        0.000
      2 C           2.5436    1.7708   -0.4225 C.ar       1 <1>        0.000
      3 C           1.3302    1.2833    0.0775 C.ar       1 <1>        0.000
      4 C           1.3283    0.3060    1.0799 C.ar       1 <1>        0.000
      5 C           2.5397   -0.1839    1.5823 C.ar       1 <1>        0.000
      6 C           3.7531    0.3036    1.0823 C.ar       1 <1>        0.000
      7 C           3.7551    1.2809    0.0799 C.ar       1 <1>        0.000
      8 C           0.0139   -0.2130    1.6121 C.3        1 <1>        0.000
      9 C          -1.2626    0.3502    1.0346 C.ar       1 <1>        0.000
     10 C          -1.2189    1.3270    0.0326 C.ar       1 <1>        0.000
     11 C          -2.4089    1.8419   -0.4954 C.ar       1 <1>        0.000
     12 C          -3.6426    1.3798   -0.0215 C.ar       1 <1>        0.000
     13 C          -3.6862    0.4030    0.9804 C.ar       1 <1>        0.000
     14 C          -2.4962   -0.1119    1.5084 C.ar       1 <1>        0.000
     15 H          -2.3661    2.7978   -1.4758 H.spc      1 <1>        0.000
     16 C           0.0741    1.8297   -0.4830 C.2        1 <1>        0.000
     17 O           0.1043    2.6881   -1.3634 O.2        1 <1>        0.000
     18 H          -0.0090   -1.7147    1.4560 H.spc      1 <1>        0.000
     19 H           2.5382   -0.9449    2.3627 H.spc      1 <1>        0.000
     20 H           4.6963   -0.0778    1.4735 H.spc      1 <1>        0.000
     21 H           4.6998    1.6604   -0.3094 H.spc      1 <1>        0.000
     22 H           0.0017    0.1299    2.6467 H.spc      1 <1>        0.000
     23 H          -4.5691    1.7806   -0.4326 H.spc      1 <1>        0.000
     24 H          -4.6467    0.0433    1.3494 H.spc      1 <1>        0.000
     25 H          -2.5302   -0.8726    2.2884 H.spc      1 <1>        0.000
@<TRIPOS>BOND
     1    1    2 1  
     2    2    3 ar 
     3    3    4 ar 
     4    4    5 ar 
     5    5    6 ar 
     6    6    7 ar 
     7    7    2 ar 
     8    4    8 1  
     9    8    9 1  
    10    9   10 ar 
    11   10   11 ar 
    12   11   12 ar 
    13   12   13 ar 
    14   13   14 ar 
    15   14    9 ar 
    16   11   15 1  
    17   10   16 1  
    18   16    3 1  
    19   16   17 2  
    20    8   18 1  
    21    5   19 1  
    22    6   20 1  
    23    7   21 1  
    24    8   22 1  
    25   12   23 1  
    26   13   24 1  
    27   14   25 1  
