# Name:          seed_class_4_175_239/38664
# Creation time: Fri May 21 00:57:15 2010


@<TRIPOS>MOLECULE
seed_class_4_175_239/38664
   15    15     1     1     1
SMALL
USER_CHARGES


@<TRIPOS>ATOM
      1 H          -0.7522    2.0022    1.1662 H.spc      1 <1>        0.000
      2 N          -1.4199    2.4866   -0.0506 N.3        1 <1>        0.000
      3 C          -0.5345    3.4255   -0.7545 C.3        1 <1>        0.000
      4 C          -1.2453    4.0780   -1.9538 C.3        1 <1>        0.000
      5 O          -2.4645    4.7049   -1.5469 O.3        1 <1>        0.000
      6 C          -3.3540    3.7801   -0.9158 C.3        1 <1>        0.000
      7 C          -2.6975    3.1181    0.3099 C.3        1 <1>        0.000
      8 H           0.3306    2.8744   -1.1234 H.spc      1 <1>        0.000
      9 H          -0.2397    4.2107   -0.0583 H.spc      1 <1>        0.000
     10 H          -1.4768    3.3048   -2.6864 H.spc      1 <1>        0.000
     11 H          -0.5878    4.8354   -2.3806 H.spc      1 <1>        0.000
     12 H          -3.6112    3.0015   -1.6340 H.spc      1 <1>        0.000
     13 H          -4.2395    4.3223   -0.5841 H.spc      1 <1>        0.000
     14 H          -3.3698    2.3508    0.6938 H.spc      1 <1>        0.000
     15 H          -2.5079    3.8851    1.0608 H.spc      1 <1>        0.000
@<TRIPOS>BOND
     1    1    2 1  
     2    2    3 1  
     3    3    4 1  
     4    4    5 1  
     5    5    6 1  
     6    6    7 1  
     7    7    2 1  
     8    3    8 1  
     9    3    9 1  
    10    4   10 1  
    11    4   11 1  
    12    6   12 1  
    13    6   13 1  
    14    7   14 1  
    15    7   15 1  
