# Name:          seed_class_3_133_29/26467
# Creation time: Fri May 21 00:57:15 2010


@<TRIPOS>MOLECULE
seed_class_3_133_29/26467
   11    10     1     1     1
SMALL
USER_CHARGES


@<TRIPOS>ATOM
      1 H           1.6367   -0.7555   -0.0638 H.spc      1 <1>        0.000
      2 C           2.8508   -1.5847   -0.2334 C.2        1 <1>        0.000
      3 O           2.7970   -2.6283   -0.8822 O.2        1 <1>        0.000
      4 N           3.9999   -1.2016    0.3158 N.am       1 <1>        0.000
      5 C           5.1017   -1.9915    0.2083 C.2        1 <1>        0.000
      6 N           5.0178   -3.1628   -0.3945 N.2        1 <1>        0.000
      7 N           6.2900   -1.5746    0.7219 N.pl3      1 <1>        0.000
      8 H           4.0548   -0.3153    0.8177 H.spc      1 <1>        0.000
      9 H           4.1266   -3.4755   -0.7797 H.spc      1 <1>        0.000
     10 H           7.1164   -2.1670    0.6413 H.spc      1 <1>        0.000
     11 H           6.3548   -0.6695    1.1877 H.spc      1 <1>        0.000
@<TRIPOS>BOND
     1    1    2 1  
     2    2    3 2  
     3    2    4 am 
     4    4    5 1  
     5    5    6 2  
     6    5    7 1  
     7    4    8 1  
     8    6    9 1  
     9    7   10 1  
    10    7   11 1  
