# Name:          seed_class_5_390_180/34898
# Creation time: Fri May 21 00:57:18 2010


@<TRIPOS>MOLECULE
seed_class_5_390_180/34898
   14    14     1     1     1
SMALL
USER_CHARGES


@<TRIPOS>ATOM
      1 N           1.1533    5.4405    5.8114 N.2        1 <1>        0.000
      2 O           0.2892    6.1751    5.3700 O.2        1 <1>        0.000
      3 O           0.9842    4.8718    6.8739 O.2        1 <1>        0.000
      4 C           2.4013    5.2401    5.0609 C.ar       1 <1>        0.000
      5 C           3.3798    4.3666    5.5503 C.ar       1 <1>        0.000
      6 C           4.5685    4.1758    4.8356 C.ar       1 <1>        0.000
      7 C           4.7786    4.8584    3.6316 C.ar       1 <1>        0.000
      8 C           3.8001    5.7320    3.1422 C.ar       1 <1>        0.000
      9 C           2.6115    5.9228    3.8569 C.ar       1 <1>        0.000
     10 H           6.0606    4.6526    2.8607 H.spc      1 <1>        0.000
     11 H           3.2162    3.8351    6.4877 H.spc      1 <1>        0.000
     12 H           5.3304    3.4958    5.2167 H.spc      1 <1>        0.000
     13 H           3.9637    6.2636    2.2048 H.spc      1 <1>        0.000
     14 H           1.8497    6.6029    3.4759 H.spc      1 <1>        0.000
@<TRIPOS>BOND
     1    1    2 2  
     2    1    3 2  
     3    1    4 1  
     4    4    5 ar 
     5    5    6 ar 
     6    6    7 ar 
     7    7    8 ar 
     8    8    9 ar 
     9    9    4 ar 
    10    7   10 1  
    11    5   11 1  
    12    6   12 1  
    13    8   13 1  
    14    9   14 1  
