#	Name:			1,2,3,4-tetrahydronaphthalene
#	Creating user name:	becker
#	Creation time:		Thu Dec 19 02:54:37 2002

#	Modifying user name:	zmliu
#	Modification time:	Thu Mar 11 16:43:41 2004

@<TRIPOS>MOLECULE
1,2,3,4-tetrahydronaphthalene
   22    23     1     1     1
SMALL
GAST_HUCK


@<TRIPOS>ATOM
      1 C1          0.9226    1.5094   -0.0679 C.3       1 TETRAHYDRONAPHTHALENE   -0.0611 
      2 C2          2.1488    0.6746    0.3758 C.3       1 TETRAHYDRONAPHTHALENE   -0.0631 
      3 C3          2.1469   -0.6751   -0.3789 C.3       1 TETRAHYDRONAPHTHALENE   -0.0631 
      4 C4          0.9228   -1.5093    0.0713 C.3       1 TETRAHYDRONAPHTHALENE   -0.0611 
      5 C5         -1.5986   -1.3911    0.0526 C.ar      1 TETRAHYDRONAPHTHALENE    0.0677 
      6 C6         -2.8112   -0.6977    0.0240 C.ar      1 TETRAHYDRONAPHTHALENE    0.0890 
      7 C7         -2.8112    0.6979   -0.0251 C.ar      1 TETRAHYDRONAPHTHALENE    0.0890 
      8 C8         -1.5985    1.3912   -0.0517 C.ar      1 TETRAHYDRONAPHTHALENE    0.0677 
      9 C9         -0.3811    0.7005   -0.0267 C.ar      1 TETRAHYDRONAPHTHALENE   -0.0325 
     10 C10        -0.3811   -0.7005    0.0290 C.ar      1 TETRAHYDRONAPHTHALENE   -0.0325 
     11 H1          1.0608    1.8474   -1.1075 H.spc     1 TETRAHYDRONAPHTHALENE   -1.0000 
     12 H2          0.8396    2.3993    0.5773 H.spc     1 TETRAHYDRONAPHTHALENE   -1.0000 
     13 H3          2.1070    0.4909    1.4622 H.spc     1 TETRAHYDRONAPHTHALENE   -1.0000 
     14 H4          3.0743    1.2330    0.1560 H.spc     1 TETRAHYDRONAPHTHALENE   -1.0000 
     15 H5          3.0737   -1.2338   -0.1646 H.spc     1 TETRAHYDRONAPHTHALENE   -1.0000 
     16 H6          2.0989   -0.4916   -1.4651 H.spc     1 TETRAHYDRONAPHTHALENE   -1.0000 
     17 H7          1.0637   -1.8437    1.1116 H.spc     1 TETRAHYDRONAPHTHALENE   -1.0000 
     18 H8          0.8388   -2.4013   -0.5707 H.spc     1 TETRAHYDRONAPHTHALENE   -1.0000 
     19 H9         -1.6076   -2.4758    0.0955 H.spc     1 TETRAHYDRONAPHTHALENE   -1.0000 
     20 H10        -3.7505   -1.2418    0.0405 H.spc     1 TETRAHYDRONAPHTHALENE   -1.0000 
     21 H11        -3.7507    1.2418   -0.0432 H.spc     1 TETRAHYDRONAPHTHALENE   -1.0000 
     22 H12        -1.6072    2.4758   -0.0945 H.spc     1 TETRAHYDRONAPHTHALENE   -1.0000 
@<TRIPOS>BOND
     1    2    1 1    
     2    1    9 1    
     3    3    2 1    
     4    4    3 1    
     5   10    4 1    
     6    5    6 ar   
     7    5   10 ar   
     8    6    7 ar   
     9    7    8 ar   
    10    8    9 ar   
    11    9   10 ar   
    12    1   11 1    
    13    1   12 1    
    14    2   13 1    
    15    2   14 1    
    16    3   15 1    
    17    3   16 1    
    18    4   17 1    
    19    4   18 1    
    20    5   19 1    
    21    6   20 1    
    22    7   21 1    
    23    8   22 1    
@<TRIPOS>SUBSTRUCTURE
     1 TETRAHYDRONAPHTHALENE     5 PERM              0 ****  ****    0 ROOT 
@<TRIPOS>SET
LAB$A_TYPE      STATIC     ATOMS    LABELGROUP SYSTEM 
22 1 2 3 4 5 6 7 8 9 10 11 12 13 14 15 16 17 18 19 \
 20 21 22
@<TRIPOS>NORMAL
@<TRIPOS>FF_PBC
FORCE_FIELD_SETUP_FEATURE Force Field Setup information
v1.0  0 0.000000 0.000000 0.000000 0.000000 0.000000 0.000000 NONE 2 0 0 0 0 0 0 0 0 0 0 0 0
