# Name:          seed_class_4_250_47/38664
# Creation time: Fri May 21 00:57:16 2010


@<TRIPOS>MOLECULE
seed_class_4_250_47/38664
   10    10     1     1     1
SMALL
USER_CHARGES


@<TRIPOS>ATOM
      1 H          -0.0909   -1.7537   -0.8621 H.spc      1 <1>        0.000
      2 C           0.6697   -0.4568   -1.0024 C.2        1 <1>        0.000
      3 N           1.3280    0.1690   -0.0446 N.2        1 <1>        0.000
      4 C           2.0126    1.4283   -0.3707 C.3        1 <1>        0.000
      5 C           1.5871    1.9868   -1.7413 C.3        1 <1>        0.000
      6 S           0.8409    0.5010   -2.4815 S.3        1 <1>        0.000
      7 H           1.7452    2.4521    0.7066 H.spc      1 <1>        0.000
      8 H           3.0802    1.2146   -0.4233 H.spc      1 <1>        0.000
      9 H           2.4036    2.4145   -2.3231 H.spc      1 <1>        0.000
     10 H           0.9164    2.8442   -1.6863 H.spc      1 <1>        0.000
@<TRIPOS>BOND
     1    1    2 1  
     2    2    3 2  
     3    3    4 1  
     4    4    5 1  
     5    5    6 1  
     6    6    2 1  
     7    4    7 1  
     8    4    8 1  
     9    5    9 1  
    10    5   10 1  
