# Name:          seed_class_5_532_24/34898
# Creation time: Fri May 21 00:57:20 2010


@<TRIPOS>MOLECULE
seed_class_5_532_24/34898
   30    32     1     1     1
SMALL
USER_CHARGES


@<TRIPOS>ATOM
      1 F          -0.4632    1.6280   -4.8904 F          1 <1>        0.000
      2 C          -1.7562    1.3238   -4.6494 C.ar       1 <1>        0.000
      3 C          -2.1003    0.5789   -3.5150 C.ar       1 <1>        0.000
      4 C          -3.4412    0.2634   -3.2651 C.ar       1 <1>        0.000
      5 C          -4.4380    0.6927   -4.1495 C.ar       1 <1>        0.000
      6 C          -4.0938    1.4376   -5.2838 C.ar       1 <1>        0.000
      7 C          -2.7529    1.7531   -5.5337 C.ar       1 <1>        0.000
      8 C          -1.0466    0.1250   -2.5801 C.2        1 <1>        0.000
      9 N          -0.4568   -1.0323   -2.8152 N.2        1 <1>        0.000
     10 C           0.6023   -1.5955   -1.9655 C.3        1 <1>        0.000
     11 C           1.7622   -0.6463   -2.1489 C.2        1 <1>        0.000
     12 N           1.7191    0.6119   -1.7200 N.am       1 <1>        0.000
     13 C           0.6233    1.2141   -1.0576 C.ar       1 <1>        0.000
     14 C          -0.7080    0.9917   -1.4292 C.ar       1 <1>        0.000
     15 C          -1.7454    1.6073   -0.7186 C.ar       1 <1>        0.000
     16 C          -1.4514    2.4453    0.3637 C.ar       1 <1>        0.000
     17 C          -0.1201    2.6677    0.7353 C.ar       1 <1>        0.000
     18 C           0.9172    2.0521    0.0247 C.ar       1 <1>        0.000
     19 Cl         -2.7407    3.2103    1.2469 Cl         1 <1>        0.000
     20 H           2.9073    1.4454   -1.9532 H.spc      1 <1>        0.000
     21 O           2.7785   -1.0492   -2.7125 O.2        1 <1>        0.000
     22 H           0.9502   -2.9160   -2.3898 H.spc      1 <1>        0.000
     23 H          -3.7091   -0.3165   -2.3819 H.spc      1 <1>        0.000
     24 H          -5.4820    0.4470   -3.9549 H.spc      1 <1>        0.000
     25 H          -4.8698    1.7719   -5.9724 H.spc      1 <1>        0.000
     26 H          -2.4850    2.3330   -6.4169 H.spc      1 <1>        0.000
     27 H           0.2978   -1.6879   -0.9230 H.spc      1 <1>        0.000
     28 H          -2.7819    1.4341   -1.0080 H.spc      1 <1>        0.000
     29 H           0.1088    3.3202    1.5779 H.spc      1 <1>        0.000
     30 H           1.9537    2.2253    0.3141 H.spc      1 <1>        0.000
@<TRIPOS>BOND
     1    1    2 1  
     2    2    3 ar 
     3    3    4 ar 
     4    4    5 ar 
     5    5    6 ar 
     6    6    7 ar 
     7    7    2 ar 
     8    3    8 1  
     9    8    9 2  
    10    9   10 1  
    11   10   11 1  
    12   11   12 am 
    13   12   13 1  
    14   13   14 ar 
    15   14    8 1  
    16   14   15 ar 
    17   15   16 ar 
    18   16   17 ar 
    19   17   18 ar 
    20   18   13 ar 
    21   16   19 1  
    22   12   20 1  
    23   11   21 2  
    24   10   22 1  
    25    4   23 1  
    26    5   24 1  
    27    6   25 1  
    28    7   26 1  
    29   10   27 1  
    30   15   28 1  
    31   17   29 1  
    32   18   30 1  
