# Name:          seed_class_2_18_1393/95646
# Creation time: Fri May 21 00:57:12 2010


@<TRIPOS>MOLECULE
seed_class_2_18_1393/95646
    5     4     1     1     1
SMALL
USER_CHARGES


@<TRIPOS>ATOM
      1 P          -4.5057    0.1687   -0.5329 P.3        1 <1>        0.000
      2 O          -4.7206    0.4188   -1.9551 O.2        1 <1>        0.000
      3 H          -5.7579   -0.5663    0.0643 H.spc      1 <1>        0.000
      4 H          -4.2955    1.5343    0.2127 H.spc      1 <1>        0.000
      5 H          -3.0460   -0.8625   -0.3189 H.spc      1 <1>        0.000
@<TRIPOS>BOND
     1    1    2 2  
     2    1    3 1  
     3    1    4 1  
     4    1    5 1  
