# Name:          seed_class_5_432_59/34898
# Creation time: Fri May 21 00:57:18 2010


@<TRIPOS>MOLECULE
seed_class_5_432_59/34898
   15    15     1     1     1
SMALL
USER_CHARGES


@<TRIPOS>ATOM
      1 H          -1.4547   -1.4594   -0.2532 H.spc      1 <1>        0.000
      2 C          -2.7947   -0.9060    0.1689 C.ar       1 <1>        0.000
      3 C          -3.3322    0.2057   -0.4908 C.ar       1 <1>        0.000
      4 C          -4.5746    0.7188   -0.0994 C.ar       1 <1>        0.000
      5 C          -5.2796    0.1201    0.9516 C.ar       1 <1>        0.000
      6 C          -4.7421   -0.9916    1.6113 C.ar       1 <1>        0.000
      7 C          -3.4997   -1.5046    1.2200 C.ar       1 <1>        0.000
      8 O          -6.4953    0.6222    1.3346 O.3        1 <1>        0.000
      9 C          -7.3624    0.9899    0.3674 C.2        1 <1>        0.000
     10 O          -7.2736    0.5042   -0.7482 O.2        1 <1>        0.000
     11 H          -8.4420    2.0024    0.6663 H.spc      1 <1>        0.000
     12 H          -2.7834    0.6718   -1.3092 H.spc      1 <1>        0.000
     13 H          -4.9930    1.5844   -0.6129 H.spc      1 <1>        0.000
     14 H          -5.2910   -1.4577    2.4296 H.spc      1 <1>        0.000
     15 H          -3.0812   -2.3701    1.7337 H.spc      1 <1>        0.000
@<TRIPOS>BOND
     1    1    2 1  
     2    2    3 ar 
     3    3    4 ar 
     4    4    5 ar 
     5    5    6 ar 
     6    6    7 ar 
     7    7    2 ar 
     8    5    8 1  
     9    8    9 1  
    10    9   10 2  
    11    9   11 1  
    12    3   12 1  
    13    4   13 1  
    14    6   14 1  
    15    7   15 1  
