# Name:          seed_class_5_490_32/34898
# Creation time: Fri May 21 00:57:19 2010


@<TRIPOS>MOLECULE
seed_class_5_490_32/34898
   17    17     1     1     1
SMALL
USER_CHARGES


@<TRIPOS>ATOM
      1 O          -1.3652    2.4922   -0.3499 O.3        1 <1>        0.000
      2 C          -0.1031    2.2472    0.1235 C.2        1 <1>        0.000
      3 C           0.7419    1.4878   -0.5870 C.2        1 <1>        0.000
      4 C           2.1176    1.1848   -0.1330 C.2        1 <1>        0.000
      5 C           2.5479    1.7581    1.1618 C.2        1 <1>        0.000
      6 C           1.7371    2.5228    1.9058 C.2        1 <1>        0.000
      7 C           0.3331    2.8334    1.4449 C.3        1 <1>        0.000
      8 H          -0.6493    2.3946    2.5270 H.spc      1 <1>        0.000
      9 H           0.1546    4.3481    1.3950 H.spc      1 <1>        0.000
     10 O           2.1868    3.0282    3.0972 O.3        1 <1>        0.000
     11 C           3.9165    1.4779    1.6503 C.2        1 <1>        0.000
     12 O           4.4238    2.2004    2.5068 O.2        1 <1>        0.000
     13 H           4.6903    0.3051    1.0972 H.spc      1 <1>        0.000
     14 O           2.8732    0.4845   -0.8049 O.2        1 <1>        0.000
     15 H           0.2716    0.9181   -1.9040 H.spc      1 <1>        0.000
     16 H          -1.8375    3.0482    0.2742 H.spc      1 <1>        0.000
     17 H           1.4919    3.5503    3.5047 H.spc      1 <1>        0.000
@<TRIPOS>BOND
     1    1    2 1  
     2    2    3 2  
     3    3    4 1  
     4    4    5 1  
     5    5    6 2  
     6    6    7 1  
     7    7    2 1  
     8    7    8 1  
     9    7    9 1  
    10    6   10 1  
    11    5   11 1  
    12   11   12 2  
    13   11   13 1  
    14    4   14 2  
    15    3   15 1  
    16    1   16 1  
    17   10   17 1  
