# Name:          seed_class_5_530_24/34898
# Creation time: Fri May 21 00:57:20 2010


@<TRIPOS>MOLECULE
seed_class_5_530_24/34898
   13    13     1     1     1
SMALL
USER_CHARGES


@<TRIPOS>ATOM
      1 H          -0.6890    1.1323   -1.7305 H.spc      1 <1>        0.000
      2 C           0.4886    0.5964   -0.9521 C.ar       1 <1>        0.000
      3 C           1.7867    1.0123   -1.2716 C.ar       1 <1>        0.000
      4 C           2.8786    0.5153   -0.5499 C.ar       1 <1>        0.000
      5 C           2.6724   -0.3975    0.4914 C.ar       1 <1>        0.000
      6 C           1.3743   -0.8134    0.8109 C.ar       1 <1>        0.000
      7 C           0.2825   -0.3165    0.0892 C.ar       1 <1>        0.000
      8 C           4.2230    0.9461   -0.8808 C.1        1 <1>        0.000
      9 N           5.2985    1.2907   -1.1455 N.1        1 <1>        0.000
     10 H           1.9472    1.7231   -2.0822 H.spc      1 <1>        0.000
     11 H           3.5225   -0.7844    1.0534 H.spc      1 <1>        0.000
     12 H           1.2138   -1.5241    1.6216 H.spc      1 <1>        0.000
     13 H          -0.7281   -0.6404    0.3380 H.spc      1 <1>        0.000
@<TRIPOS>BOND
     1    1    2 1  
     2    2    3 ar 
     3    3    4 ar 
     4    4    5 ar 
     5    5    6 ar 
     6    6    7 ar 
     7    7    2 ar 
     8    4    8 1  
     9    8    9 3  
    10    3   10 1  
    11    5   11 1  
    12    6   12 1  
    13    7   13 1  
