# Name:          seed_class_4_254_45/38664
# Creation time: Fri May 21 00:57:16 2010


@<TRIPOS>MOLECULE
seed_class_4_254_45/38664
   23    25     1     1     1
SMALL
USER_CHARGES


@<TRIPOS>ATOM
      1 H          -0.2446    0.3888   -1.7295 H.spc      1 <1>        0.000
      2 C           0.9465   -0.5578   -1.5880 C.3        1 <1>        0.000
      3 C           2.1779    0.2220   -1.1937 C.ar       1 <1>        0.000
      4 C           2.6046   -0.2544    0.0517 C.ar       1 <1>        0.000
      5 C           3.7378    0.2970    0.6614 C.ar       1 <1>        0.000
      6 C           4.4444    1.3249    0.0256 C.ar       1 <1>        0.000
      7 C           4.0178    1.8013   -1.2198 C.ar       1 <1>        0.000
      8 C           2.8845    1.2498   -1.8294 C.ar       1 <1>        0.000
      9 C           1.6960   -1.3311    0.5053 C.ar       1 <1>        0.000
     10 C           0.6994   -1.5284   -0.4580 C.ar       1 <1>        0.000
     11 C          -0.2866   -2.5015   -0.2559 C.ar       1 <1>        0.000
     12 C          -0.2761   -3.2773    0.9095 C.ar       1 <1>        0.000
     13 C           0.7205   -3.0799    1.8728 C.ar       1 <1>        0.000
     14 C           1.7065   -2.1068    1.6707 C.ar       1 <1>        0.000
     15 H           1.0791   -1.0703   -2.5408 H.spc      1 <1>        0.000
     16 H           4.0699   -0.0739    1.6310 H.spc      1 <1>        0.000
     17 H           5.3267    1.7543    0.5003 H.spc      1 <1>        0.000
     18 H           4.5680    2.6015   -1.7148 H.spc      1 <1>        0.000
     19 H           2.5523    1.6207   -2.7990 H.spc      1 <1>        0.000
     20 H          -1.0625   -2.6551   -1.0059 H.spc      1 <1>        0.000
     21 H          -1.0438   -4.0349    1.0668 H.spc      1 <1>        0.000
     22 H           0.7287   -3.6839    2.7801 H.spc      1 <1>        0.000
     23 H           2.4824   -1.9531    2.4207 H.spc      1 <1>        0.000
@<TRIPOS>BOND
     1    1    2 1  
     2    2    3 1  
     3    3    4 ar 
     4    4    5 ar 
     5    5    6 ar 
     6    6    7 ar 
     7    7    8 ar 
     8    8    3 ar 
     9    4    9 1  
    10    9   10 ar 
    11   10    2 1  
    12   10   11 ar 
    13   11   12 ar 
    14   12   13 ar 
    15   13   14 ar 
    16   14    9 ar 
    17    2   15 1  
    18    5   16 1  
    19    6   17 1  
    20    7   18 1  
    21    8   19 1  
    22   11   20 1  
    23   12   21 1  
    24   13   22 1  
    25   14   23 1  
