#	Name:			benzopyrazine
#	Creating user name:	becker
#	Creation time:		Thu Dec 19 02:54:41 2002

#	Modifying user name:	zmliu
#	Modification time:	Thu Mar 11 20:31:26 2004

@<TRIPOS>MOLECULE
benzopyrazine
   16    17     1     1     0
SMALL
GAST_HUCK


@<TRIPOS>ATOM
      1 N1          1.3481    1.3655   -0.0025 N.ar      1 BENZOPYRAZINE   -0.2555 
      2 C1          2.5204    0.6989    0.0014 C.ar      1 BENZOPYRAZINE    0.1250 
      3 C2          2.5204   -0.6989    0.0009 C.ar      1 BENZOPYRAZINE    0.1250 
      4 N2          1.3481   -1.3655   -0.0044 N.ar      1 BENZOPYRAZINE   -0.2555 
      5 C3         -1.0347   -1.3992   -0.0022 C.ar      1 BENZOPYRAZINE    0.0280 
      6 C4         -2.2450   -0.6992    0.0024 C.ar      1 BENZOPYRAZINE    0.0164 
      7 C5         -2.2450    0.6992    0.0017 C.ar      1 BENZOPYRAZINE    0.0164 
      8 C6         -1.0347    1.3992   -0.0022 C.ar      1 BENZOPYRAZINE    0.0280 
      9 C7          0.1751    0.6995   -0.0028 C.ar      1 BENZOPYRAZINE    0.0860 
     10 C8          0.1750   -0.6995   -0.0032 C.ar      1 BENZOPYRAZINE    0.0860 
     11 H1          3.4541    1.2509    0.0048 H.spc     1 BENZOPYRAZINE   -1.0000 
     12 H2          3.4541   -1.2509    0.0049 H.spc     1 BENZOPYRAZINE   -1.0000 
     13 H3         -1.0326   -2.4844   -0.0045 H.spc     1 BENZOPYRAZINE   -1.0000 
     14 H4         -3.1854   -1.2418    0.0063 H.spc     1 BENZOPYRAZINE   -1.0000 
     15 H5         -3.1854    1.2418    0.0042 H.spc     1 BENZOPYRAZINE   -1.0000 
     16 H6         -1.0326    2.4845   -0.0046 H.spc     1 BENZOPYRAZINE   -1.0000 
@<TRIPOS>BOND
     1    2    1 ar   
     2    1    9 ar   
     3    3    2 ar   
     4    4    3 ar   
     5   10    4 ar   
     6    5    6 ar   
     7    5   10 ar   
     8    6    7 ar   
     9    7    8 ar   
    10    8    9 ar   
    11    9   10 ar   
    12    2   11 1    
    13    3   12 1    
    14    5   13 1    
    15    6   14 1    
    16    7   15 1    
    17    8   16 1    
@<TRIPOS>SUBSTRUCTURE
     1 BENZOPYRAZINE     5 PERM              0 ****  ****    0 ROOT 
@<TRIPOS>NORMAL
@<TRIPOS>FF_PBC
FORCE_FIELD_SETUP_FEATURE Force Field Setup information
v1.0  0 0.000000 0.000000 0.000000 0.000000 0.000000 0.000000 NONE 2 0 0 0 0 0 0 0 0 0 0 0 0
