# Name:          seed_class_4_153_1544/38664
# Creation time: Fri May 21 00:57:15 2010


@<TRIPOS>MOLECULE
seed_class_4_153_1544/38664
   13    13     1     1     1
SMALL
USER_CHARGES


@<TRIPOS>ATOM
      1 H           1.2442    1.8722    1.9138 H.spc      1 <1>        0.000
      2 C           0.5026    0.6841    2.3600 C.3        1 <1>        0.000
      3 O           1.4105   -0.3957    2.5935 O.3        1 <1>        0.000
      4 C           0.6212   -1.5857    2.5182 C.3        1 <1>        0.000
      5 C          -0.3625   -1.3359    1.3599 C.3        1 <1>        0.000
      6 C          -0.4308    0.1975    1.2359 C.3        1 <1>        0.000
      7 H          -1.7655    0.6712    1.4337 H.spc      1 <1>        0.000
      8 H          -1.6505   -1.8803    1.6595 H.spc      1 <1>        0.000
      9 H           1.4859   -2.8200    2.2662 H.spc      1 <1>        0.000
     10 H          -0.0490    0.9559    3.2600 H.spc      1 <1>        0.000
     11 H           0.1019   -1.7879    3.4550 H.spc      1 <1>        0.000
     12 H          -0.0406   -1.8120    0.4337 H.spc      1 <1>        0.000
     13 H          -0.1370    0.5594    0.2506 H.spc      1 <1>        0.000
@<TRIPOS>BOND
     1    1    2 1  
     2    2    3 1  
     3    3    4 1  
     4    4    5 1  
     5    5    6 1  
     6    6    2 1  
     7    6    7 1  
     8    5    8 1  
     9    4    9 1  
    10    2   10 1  
    11    4   11 1  
    12    5   12 1  
    13    6   13 1  
