# Name:          seed_class_4_346_23/38664
# Creation time: Fri May 21 00:57:17 2010


@<TRIPOS>MOLECULE
seed_class_4_346_23/38664
   19    20     1     1     1
SMALL
USER_CHARGES


@<TRIPOS>ATOM
      1 P           5.4190    4.3423    2.1252 P.3        1 <1>        0.000
      2 O           4.8130    2.9793    1.6351 O.3        1 <1>        0.000
      3 C           3.3872    3.0357    1.5416 C.3        1 <1>        0.000
      4 C           2.7611    3.4173    2.8958 C.3        1 <1>        0.000
      5 O           1.3798    3.0726    2.7616 O.3        1 <1>        0.000
      6 C           1.3518    1.8360    2.0440 C.3        1 <1>        0.000
      7 C           2.5114    1.8762    1.0314 C.3        1 <1>        0.000
      8 H           3.2376    0.6443    1.0314 H.spc      1 <1>        0.000
      9 H           0.0714    1.6953    1.3358 H.spc      1 <1>        0.000
     10 C           3.2475    4.7950    3.3828 C.3        1 <1>        0.000
     11 O           4.6756    4.8648    3.4055 O.3        1 <1>        0.000
     12 O           5.3346    5.3436    1.0523 O.2        1 <1>        0.000
     13 H           6.9500    4.1703    2.4272 H.spc      1 <1>        0.000
     14 H           3.3582    3.7590    0.7267 H.spc      1 <1>        0.000
     15 H           3.0890    2.8711    3.7803 H.spc      1 <1>        0.000
     16 H           1.4566    0.9895    2.7227 H.spc      1 <1>        0.000
     17 H           2.1753    2.0161    0.0040 H.spc      1 <1>        0.000
     18 H           2.8765    4.9556    4.3951 H.spc      1 <1>        0.000
     19 H           2.8742    5.5563    2.6979 H.spc      1 <1>        0.000
@<TRIPOS>BOND
     1    1    2 1  
     2    2    3 1  
     3    3    4 1  
     4    4    5 1  
     5    5    6 1  
     6    6    7 1  
     7    7    3 1  
     8    7    8 1  
     9    6    9 1  
    10    4   10 1  
    11   10   11 1  
    12   11    1 1  
    13    1   12 2  
    14    1   13 1  
    15    3   14 1  
    16    4   15 1  
    17    6   16 1  
    18    7   17 1  
    19   10   18 1  
    20   10   19 1  
