# Name:          seed_class_5_438_48/34898
# Creation time: Fri May 21 00:57:19 2010


@<TRIPOS>MOLECULE
seed_class_5_438_48/34898
   17    17     1     1     1
SMALL
USER_CHARGES


@<TRIPOS>ATOM
      1 N           0.8866   -0.9614    0.3745 N.pl3      1 <1>        0.000
      2 H           1.4428   -0.0182    1.3553 H.spc      1 <1>        0.000
      3 C          -0.5066   -0.9867    0.1286 C.ar       1 <1>        0.000
      4 C          -1.3551   -0.1120    0.8177 C.ar       1 <1>        0.000
      5 C          -2.7336   -0.1370    0.5744 C.ar       1 <1>        0.000
      6 C          -3.2636   -1.0368   -0.3581 C.ar       1 <1>        0.000
      7 C          -2.4151   -1.9115   -1.0473 C.ar       1 <1>        0.000
      8 C          -1.0366   -1.8865   -0.8039 C.ar       1 <1>        0.000
      9 C          -4.7208   -1.0632   -0.6154 C.2        1 <1>        0.000
     10 O          -5.1863   -1.8686   -1.4047 O.2        1 <1>        0.000
     11 O          -5.5348   -0.1962    0.0234 O.3        1 <1>        0.000
     12 H          -6.9386   -0.2770   -0.2370 H.spc      1 <1>        0.000
     13 H           1.5050   -1.5976   -0.1288 H.spc      1 <1>        0.000
     14 H          -0.9425    0.5885    1.5437 H.spc      1 <1>        0.000
     15 H          -3.3942    0.5441    1.1110 H.spc      1 <1>        0.000
     16 H          -2.8277   -2.6120   -1.7734 H.spc      1 <1>        0.000
     17 H          -0.3760   -2.5676   -1.3404 H.spc      1 <1>        0.000
@<TRIPOS>BOND
     1    1    2 1  
     2    1    3 1  
     3    3    4 ar 
     4    4    5 ar 
     5    5    6 ar 
     6    6    7 ar 
     7    7    8 ar 
     8    8    3 ar 
     9    6    9 1  
    10    9   10 2  
    11    9   11 1  
    12   11   12 1  
    13    1   13 1  
    14    4   14 1  
    15    5   15 1  
    16    7   16 1  
    17    8   17 1  
