# Name:          seed_class_4_157_614/38664
# Creation time: Fri May 21 00:57:15 2010


@<TRIPOS>MOLECULE
seed_class_4_157_614/38664
    9     9     1     1     1
SMALL
USER_CHARGES


@<TRIPOS>ATOM
      1 H           1.8695   -0.1370   -0.0832 H.spc      1 <1>        0.000
      2 C           1.5063   -1.1618   -1.1311 C.3        1 <1>        0.000
      3 C           2.5729   -1.6408   -2.0547 C.3        1 <1>        0.000
      4 C           1.4975   -0.7422   -2.5607 C.3        1 <1>        0.000
      5 H           0.7906   -1.6428   -0.4644 H.spc      1 <1>        0.000
      6 H           3.0524   -2.5792   -2.3331 H.spc      1 <1>        0.000
      7 H           3.6604   -1.7102   -2.0818 H.spc      1 <1>        0.000
      8 H           0.7969   -0.6946   -3.3944 H.spc      1 <1>        0.000
      9 H           1.4049    0.1745   -3.1430 H.spc      1 <1>        0.000
@<TRIPOS>BOND
     1    1    2 1  
     2    2    3 1  
     3    3    4 1  
     4    4    2 1  
     5    2    5 1  
     6    3    6 1  
     7    3    7 1  
     8    4    8 1  
     9    4    9 1  
