# Name:          seed_class_2_54_75/95646
# Creation time: Fri May 21 00:57:14 2010


@<TRIPOS>MOLECULE
seed_class_2_54_75/95646
   21    23     1     1     1
SMALL
USER_CHARGES


@<TRIPOS>ATOM
      1 N          -1.5691    2.5703   -2.4116 N.pl3      1 <1>        0.000
      2 C          -2.3976    1.6444   -1.7344 C.ar       1 <1>        0.000
      3 C          -3.7777    1.4110   -1.7639 C.ar       1 <1>        0.000
      4 N          -4.3212    0.4489   -1.0060 N.ar       1 <1>        0.000
      5 C          -3.5784   -0.3207   -0.1987 C.ar       1 <1>        0.000
      6 C          -2.1921   -0.1420   -0.1198 C.ar       1 <1>        0.000
      7 C          -1.5961    0.8558   -0.9003 C.ar       1 <1>        0.000
      8 C          -0.2014    1.3200   -1.0725 C.ar       1 <1>        0.000
      9 C          -0.2300    2.3662   -2.0024 C.ar       1 <1>        0.000
     10 C           0.9580    3.0099   -2.3686 C.ar       1 <1>        0.000
     11 C           2.1747    2.6075   -1.8050 C.ar       1 <1>        0.000
     12 C           2.2034    1.5613   -0.8751 C.ar       1 <1>        0.000
     13 C           1.0153    0.9176   -0.5088 C.ar       1 <1>        0.000
     14 H           3.3940    1.1675   -0.3235 H.spc      1 <1>        0.000
     15 H          -1.3554   -1.0094    0.7899 H.spc      1 <1>        0.000
     16 H          -4.2298   -1.3695    0.6174 H.spc      1 <1>        0.000
     17 H          -1.8850    3.2694   -3.0838 H.spc      1 <1>        0.000
     18 H          -4.4150    2.0166   -2.4083 H.spc      1 <1>        0.000
     19 H           0.9357    3.8244   -3.0926 H.spc      1 <1>        0.000
     20 H           3.0997    3.1087   -2.0902 H.spc      1 <1>        0.000
     21 H           1.0376    0.1031    0.2153 H.spc      1 <1>        0.000
@<TRIPOS>BOND
     1    1    2 ar 
     2    2    3 ar 
     3    3    4 ar 
     4    4    5 ar 
     5    5    6 ar 
     6    6    7 ar 
     7    7    2 ar 
     8    7    8 ar 
     9    8    9 ar 
    10    9    1 ar 
    11    9   10 ar 
    12   10   11 ar 
    13   11   12 ar 
    14   12   13 ar 
    15   13    8 ar 
    16   12   14 1  
    17    6   15 1  
    18    5   16 1  
    19    1   17 1  
    20    3   18 1  
    21   10   19 1  
    22   11   20 1  
    23   13   21 1  
