# Name:          seed_class_5_561_21/34898
# Creation time: Fri May 21 00:57:20 2010


@<TRIPOS>MOLECULE
seed_class_5_561_21/34898
   24    25     1     1     1
SMALL
USER_CHARGES


@<TRIPOS>ATOM
      1 H           0.7046   -1.9696   -2.3563 H.spc      1 <1>        0.000
      2 C           1.6012   -0.8920   -1.9136 C.3        1 <1>        0.000
      3 C           3.0387   -1.4268   -1.7755 C.3        1 <1>        0.000
      4 C           3.9987   -0.2884   -1.3830 C.3        1 <1>        0.000
      5 C           3.4708    0.5881   -0.2725 C.ar       1 <1>        0.000
      6 C           2.1228    0.5752    0.1052 C.ar       1 <1>        0.000
      7 C           1.6782    1.4054    1.1411 C.ar       1 <1>        0.000
      8 C           2.5815    2.2486    1.7991 C.ar       1 <1>        0.000
      9 C           3.9295    2.2615    1.4213 C.ar       1 <1>        0.000
     10 C           4.3742    1.4312    0.3855 C.ar       1 <1>        0.000
     11 O           5.6933    1.4439    0.0158 O.3        1 <1>        0.000
     12 H           6.5748    2.3354    0.7036 H.spc      1 <1>        0.000
     13 O           4.8135    3.0866    2.0653 O.3        1 <1>        0.000
     14 H           4.3188    3.8965    3.1349 H.spc      1 <1>        0.000
     15 C           1.1096   -0.3156   -0.5729 C.3        1 <1>        0.000
     16 H           1.5963   -0.0953   -2.6575 H.spc      1 <1>        0.000
     17 H           3.3555   -1.8452   -2.7309 H.spc      1 <1>        0.000
     18 H           3.0599   -2.1927   -1.0002 H.spc      1 <1>        0.000
     19 H           4.1357    0.3423   -2.2614 H.spc      1 <1>        0.000
     20 H           4.9222   -0.7461   -1.0284 H.spc      1 <1>        0.000
     21 H           0.6287    1.3953    1.4353 H.spc      1 <1>        0.000
     22 H           2.2353    2.8951    2.6055 H.spc      1 <1>        0.000
     23 H           0.2268    0.2894   -0.7796 H.spc      1 <1>        0.000
     24 H           0.9130   -1.1556    0.0933 H.spc      1 <1>        0.000
@<TRIPOS>BOND
     1    1    2 1  
     2    2    3 1  
     3    3    4 1  
     4    4    5 1  
     5    5    6 ar 
     6    6    7 ar 
     7    7    8 ar 
     8    8    9 ar 
     9    9   10 ar 
    10   10    5 ar 
    11   10   11 1  
    12   11   12 1  
    13    9   13 1  
    14   13   14 1  
    15    6   15 1  
    16   15    2 1  
    17    2   16 1  
    18    3   17 1  
    19    3   18 1  
    20    4   19 1  
    21    4   20 1  
    22    7   21 1  
    23    8   22 1  
    24   15   23 1  
    25   15   24 1  
