# Name:          seed_class_5_481_34/34898
# Creation time: Fri May 21 00:57:19 2010


@<TRIPOS>MOLECULE
seed_class_5_481_34/34898
   11    11     1     1     1
SMALL
USER_CHARGES


@<TRIPOS>ATOM
      1 H           2.4953    0.8122    2.6515 H.spc      1 <1>        0.000
      2 C           2.7488   -0.6664    2.4789 C.2        1 <1>        0.000
      3 C           3.9175   -1.1726    2.8955 C.2        1 <1>        0.000
      4 C           4.1797   -2.6201    2.7328 C.2        1 <1>        0.000
      5 C           3.1035   -3.4196    2.1059 C.2        1 <1>        0.000
      6 C           1.9690   -2.8183    1.7226 C.2        1 <1>        0.000
      7 O           1.7588   -1.4518    1.8927 O.3        1 <1>        0.000
      8 H           0.8819   -3.6499    1.0848 H.spc      1 <1>        0.000
      9 H           3.2828   -4.9046    1.8995 H.spc      1 <1>        0.000
     10 O           5.2366   -3.1317    3.0992 O.2        1 <1>        0.000
     11 H           4.9563   -0.2754    3.5247 H.spc      1 <1>        0.000
@<TRIPOS>BOND
     1    1    2 1  
     2    2    3 2  
     3    3    4 1  
     4    4    5 1  
     5    5    6 2  
     6    6    7 1  
     7    7    2 1  
     8    6    8 1  
     9    5    9 1  
    10    4   10 2  
    11    3   11 1  
