# Name:          seed_class_5_437_48/34898
# Creation time: Fri May 21 00:57:19 2010


@<TRIPOS>MOLECULE
seed_class_5_437_48/34898
   19    20     1     1     1
SMALL
USER_CHARGES


@<TRIPOS>ATOM
      1 H           1.5138   -0.1905    0.8006 H.spc      1 <1>        0.000
      2 O           2.6730   -0.9074    1.2334 O.3        1 <1>        0.000
      3 C           3.8878   -0.5354    0.7209 C.ar       1 <1>        0.000
      4 C           5.0485   -1.2165    1.1066 C.ar       1 <1>        0.000
      5 C           6.2900   -0.8363    0.5829 C.ar       1 <1>        0.000
      6 C           6.3707    0.2250   -0.3265 C.ar       1 <1>        0.000
      7 C           5.2100    0.9061   -0.7122 C.ar       1 <1>        0.000
      8 C           3.9685    0.5259   -0.1885 C.ar       1 <1>        0.000
      9 C           7.4507   -1.5175    0.9687 C.ar       1 <1>        0.000
     10 C           7.3699   -2.5788    1.8781 C.ar       1 <1>        0.000
     11 C           6.1285   -2.9590    2.4018 C.ar       1 <1>        0.000
     12 C           4.9678   -2.2779    2.0161 C.ar       1 <1>        0.000
     13 H           7.3372    0.5210   -0.7343 H.spc      1 <1>        0.000
     14 H           5.2729    1.7324   -1.4202 H.spc      1 <1>        0.000
     15 H           3.0648    1.0562   -0.4888 H.spc      1 <1>        0.000
     16 H           8.4173   -1.2215    0.5610 H.spc      1 <1>        0.000
     17 H           8.2736   -3.1091    2.1784 H.spc      1 <1>        0.000
     18 H           6.0657   -3.7853    3.1099 H.spc      1 <1>        0.000
     19 H           4.0013   -2.5739    2.4239 H.spc      1 <1>        0.000
@<TRIPOS>BOND
     1    1    2 1  
     2    2    3 1  
     3    3    4 ar 
     4    4    5 ar 
     5    5    6 ar 
     6    6    7 ar 
     7    7    8 ar 
     8    8    3 ar 
     9    5    9 ar 
    10    9   10 ar 
    11   10   11 ar 
    12   11   12 ar 
    13   12    4 ar 
    14    6   13 1  
    15    7   14 1  
    16    8   15 1  
    17    9   16 1  
    18   10   17 1  
    19   11   18 1  
    20   12   19 1  
