# Name:          seed_class_5_568_20/34898
# Creation time: Fri May 21 00:57:20 2010


@<TRIPOS>MOLECULE
seed_class_5_568_20/34898
   17    17     1     1     1
SMALL
USER_CHARGES


@<TRIPOS>ATOM
      1 S           4.0273   -0.4756   -0.4440 S.o2       1 <1>        0.000
      2 O           5.3799   -0.6922   -0.8545 O.2        1 <1>        0.000
      3 O           3.9526   -0.5016    0.9838 O.2        1 <1>        0.000
      4 N           3.4825    1.0813   -1.0284 N.am       1 <1>        0.000
      5 C           2.1833    1.5418   -0.7088 C.ar       1 <1>        0.000
      6 C           1.1014    1.2137   -1.5346 C.ar       1 <1>        0.000
      7 C          -0.1840    1.6693   -1.2184 C.ar       1 <1>        0.000
      8 C          -0.3876    2.4532   -0.0764 C.ar       1 <1>        0.000
      9 C           0.6942    2.7813    0.7494 C.ar       1 <1>        0.000
     10 C           1.9797    2.3257    0.4332 C.ar       1 <1>        0.000
     11 H          -1.3509    1.3154   -2.1091 H.spc      1 <1>        0.000
     12 H           2.9734   -1.7790   -1.1271 H.spc      1 <1>        0.000
     13 H           4.1015    1.6568   -1.5994 H.spc      1 <1>        0.000
     14 H           1.2599    0.6035   -2.4238 H.spc      1 <1>        0.000
     15 H          -1.3884    2.8080    0.1697 H.spc      1 <1>        0.000
     16 H           0.5356    3.3915    1.6386 H.spc      1 <1>        0.000
     17 H           2.8220    2.5813    1.0761 H.spc      1 <1>        0.000
@<TRIPOS>BOND
     1    1    2 2  
     2    1    3 2  
     3    1    4 1  
     4    4    5 1  
     5    5    6 ar 
     6    6    7 ar 
     7    7    8 ar 
     8    8    9 ar 
     9    9   10 ar 
    10   10    5 ar 
    11    7   11 1  
    12    1   12 1  
    13    4   13 1  
    14    6   14 1  
    15    8   15 1  
    16    9   16 1  
    17   10   17 1  
