# Name:          seed_class_5_557_21/34898
# Creation time: Fri May 21 00:57:20 2010


@<TRIPOS>MOLECULE
seed_class_5_557_21/34898
   30    32     1     1     1
SMALL
USER_CHARGES


@<TRIPOS>ATOM
      1 O          -1.7362    1.1182   -0.0973 O.3        1 <1>        0.000
      2 H          -2.4941    0.0729    0.5175 H.spc      1 <1>        0.000
      3 C          -0.5450    1.4731    0.4788 C.ar       1 <1>        0.000
      4 C           0.6442    0.8650    0.0592 C.ar       1 <1>        0.000
      5 C           1.8615    1.2277    0.6479 C.ar       1 <1>        0.000
      6 C           1.8897    2.1986    1.6562 C.ar       1 <1>        0.000
      7 C           3.1070    2.5613    2.2449 C.ar       1 <1>        0.000
      8 C           4.2962    1.9532    1.8253 C.ar       1 <1>        0.000
      9 C           4.2680    0.9824    0.8170 C.ar       1 <1>        0.000
     10 C           3.0507    0.6196    0.2283 C.ar       1 <1>        0.000
     11 C           5.5562    0.3325    0.3715 C.3        1 <1>        0.000
     12 C           6.6083    0.3067    1.4958 C.3        1 <1>        0.000
     13 C           6.8218    1.7316    2.0398 C.3        1 <1>        0.000
     14 C           5.5415    2.3899    2.4953 C.2        1 <1>        0.000
     15 O           5.5339    3.2458    3.3786 O.2        1 <1>        0.000
     16 H           7.8425   -0.2175    0.9991 H.spc      1 <1>        0.000
     17 H           6.1492   -0.6180    2.6196 H.spc      1 <1>        0.000
     18 O           3.1345    3.5113    3.2316 O.3        1 <1>        0.000
     19 C           0.7005    2.8067    2.0758 C.ar       1 <1>        0.000
     20 C          -0.5168    2.4440    1.4871 C.ar       1 <1>        0.000
     21 O           0.7280    3.7567    3.0625 O.3        1 <1>        0.000
     22 H           0.6223    0.1091   -0.7259 H.spc      1 <1>        0.000
     23 H           3.0288   -0.1363   -0.5567 H.spc      1 <1>        0.000
     24 H           5.9598    0.9105   -0.4598 H.spc      1 <1>        0.000
     25 H           5.3377   -0.6964    0.0855 H.spc      1 <1>        0.000
     26 H           7.2358    2.3357    1.2325 H.spc      1 <1>        0.000
     27 H           7.4832    1.6608    2.9033 H.spc      1 <1>        0.000
     28 H           2.2423    3.8240    3.3981 H.spc      1 <1>        0.000
     29 H          -1.4426    2.9175    1.8138 H.spc      1 <1>        0.000
     30 H          -0.1642    4.0694    3.2290 H.spc      1 <1>        0.000
@<TRIPOS>BOND
     1    1    2 1  
     2    1    3 1  
     3    3    4 ar 
     4    4    5 ar 
     5    5    6 ar 
     6    6    7 ar 
     7    7    8 ar 
     8    8    9 ar 
     9    9   10 ar 
    10   10    5 ar 
    11    9   11 1  
    12   11   12 1  
    13   12   13 1  
    14   13   14 1  
    15   14    8 1  
    16   14   15 2  
    17   12   16 1  
    18   12   17 1  
    19    7   18 1  
    20    6   19 ar 
    21   19   20 ar 
    22   20    3 ar 
    23   19   21 1  
    24    4   22 1  
    25   10   23 1  
    26   11   24 1  
    27   11   25 1  
    28   13   26 1  
    29   13   27 1  
    30   18   28 1  
    31   20   29 1  
    32   21   30 1  
