# Name:          seed_class_2_20_1280/95646
# Creation time: Fri May 21 00:57:13 2010


@<TRIPOS>MOLECULE
seed_class_2_20_1280/95646
   16    17     1     1     1
SMALL
USER_CHARGES


@<TRIPOS>ATOM
      1 N           1.0148   -0.1778   -1.2769 N.pl3      1 <1>        0.000
      2 C           2.0929    0.4841   -0.6429 C.ar       1 <1>        0.000
      3 C           1.5429    1.3497    0.3101 C.ar       1 <1>        0.000
      4 C           0.0768    1.1716    0.2138 C.ar       1 <1>        0.000
      5 C          -0.1557    0.2590   -0.7396 C.ar       1 <1>        0.000
      6 H          -1.4985   -0.2082   -1.1504 H.spc      1 <1>        0.000
      7 C           2.3815    2.1447    1.1004 C.ar       1 <1>        0.000
      8 C           3.7702    2.0741    0.9377 C.ar       1 <1>        0.000
      9 C           4.3203    1.2085   -0.0152 C.ar       1 <1>        0.000
     10 C           3.4816    0.4135   -0.8056 C.ar       1 <1>        0.000
     11 H           5.7884    1.1338   -0.1872 H.spc      1 <1>        0.000
     12 H           1.1018   -0.8722   -2.0190 H.spc      1 <1>        0.000
     13 H          -0.6760    1.6881    0.8093 H.spc      1 <1>        0.000
     14 H           1.9532    2.8186    1.8424 H.spc      1 <1>        0.000
     15 H           4.4232    2.6931    1.5530 H.spc      1 <1>        0.000
     16 H           3.9098   -0.2604   -1.5476 H.spc      1 <1>        0.000
@<TRIPOS>BOND
     1    1    2 ar 
     2    2    3 ar 
     3    3    4 ar 
     4    4    5 ar 
     5    5    1 ar 
     6    5    6 1  
     7    3    7 ar 
     8    7    8 ar 
     9    8    9 ar 
    10    9   10 ar 
    11   10    2 ar 
    12    9   11 1  
    13    1   12 1  
    14    4   13 1  
    15    7   14 1  
    16    8   15 1  
    17   10   16 1  
