# Name:          seed_class_4_335_24/38664
# Creation time: Fri May 21 00:57:17 2010


@<TRIPOS>MOLECULE
seed_class_4_335_24/38664
    9     9     1     1     1
SMALL
USER_CHARGES


@<TRIPOS>ATOM
      1 O           5.6381    1.7911   -0.3523 O.3        1 <1>        0.000
      2 C           4.2084    1.7637   -0.3418 C.3        1 <1>        0.000
      3 C           4.2413    2.6174   -1.6230 C.3        1 <1>        0.000
      4 C           5.7417    2.5383   -1.4719 C.2        1 <1>        0.000
      5 O           6.6820    2.9784   -2.1125 O.2        1 <1>        0.000
      6 H           3.6428    4.0173   -1.4930 H.spc      1 <1>        0.000
      7 H           3.5906    0.3762   -0.5094 H.spc      1 <1>        0.000
      8 H           3.6387    2.0726    0.5346 H.spc      1 <1>        0.000
      9 H           3.7189    2.3390   -2.5383 H.spc      1 <1>        0.000
@<TRIPOS>BOND
     1    1    2 1  
     2    2    3 1  
     3    3    4 1  
     4    4    1 1  
     5    4    5 2  
     6    3    6 1  
     7    2    7 1  
     8    2    8 1  
     9    3    9 1  
