# Name:          seed_class_5_379_310/34898
# Creation time: Fri May 21 00:57:18 2010


@<TRIPOS>MOLECULE
seed_class_5_379_310/34898
   10    10     1     1     1
SMALL
USER_CHARGES


@<TRIPOS>ATOM
      1 O           4.9423    1.6403    1.6974 O.3        1 <1>        0.000
      2 C           5.2705    0.3734    1.1209 C.3        1 <1>        0.000
      3 C           4.0990    0.0046    0.2425 C.2        1 <1>        0.000
      4 C           3.2013    0.9953    0.3339 C.2        1 <1>        0.000
      5 C           3.7293    2.0298    1.2511 C.2        1 <1>        0.000
      6 O           3.1609    3.0659    1.5543 O.2        1 <1>        0.000
      7 H           1.8719    1.0474   -0.3803 H.spc      1 <1>        0.000
      8 H           6.5342    0.4997    0.2750 H.spc      1 <1>        0.000
      9 H           5.4552   -0.3817    1.8849 H.spc      1 <1>        0.000
     10 H           4.0014   -0.9011   -0.3560 H.spc      1 <1>        0.000
@<TRIPOS>BOND
     1    1    2 1  
     2    2    3 1  
     3    3    4 2  
     4    4    5 1  
     5    5    1 1  
     6    5    6 2  
     7    4    7 1  
     8    2    8 1  
     9    2    9 1  
    10    3   10 1  
