# Name:          seed_class_4_311_28/38664
# Creation time: Fri May 21 00:57:17 2010


@<TRIPOS>MOLECULE
seed_class_4_311_28/38664
   25    28     1     1     1
SMALL
USER_CHARGES


@<TRIPOS>ATOM
      1 N           0.3912    0.8163    1.4353 N.pl3      1 <1>        0.000
      2 C           1.6038    1.3882    2.0383 C.3        1 <1>        0.000
      3 C           2.4833    1.8059    0.8451 C.3        1 <1>        0.000
      4 N           2.3077    3.0607    0.1991 N.3        1 <1>        0.000
      5 C           1.5528    1.9670   -0.3073 C.3        1 <1>        0.000
      6 C           0.1515    1.6382    0.2404 C.3        1 <1>        0.000
      7 C          -0.4706    0.6422   -0.7558 C.3        1 <1>        0.000
      8 C          -0.0389   -0.6912   -0.1940 C.2        1 <1>        0.000
      9 C           0.4316   -0.4855    1.0438 C.2        1 <1>        0.000
     10 C           0.9431   -1.5867    1.8899 C.2        1 <1>        0.000
     11 C           0.9196   -2.9513    1.3173 C.2        1 <1>        0.000
     12 C           0.4516   -3.1697    0.0808 C.2        1 <1>        0.000
     13 C          -0.0574   -2.0602   -0.7560 C.2        1 <1>        0.000
     14 O          -0.4850   -2.2705   -1.8899 O.2        1 <1>        0.000
     15 H           0.4443   -4.4361   -0.4150 H.spc      1 <1>        0.000
     16 H           1.4296   -4.1123    2.1370 H.spc      1 <1>        0.000
     17 O           1.3708   -1.3763    3.0238 O.2        1 <1>        0.000
     18 H          -1.9915    0.7723   -0.8265 H.spc      1 <1>        0.000
     19 H          -0.6518    2.7481    0.6501 H.spc      1 <1>        0.000
     20 H           3.4184    3.5519   -0.6290 H.spc      1 <1>        0.000
     21 H           2.1115    0.6706    2.6827 H.spc      1 <1>        0.000
     22 H           1.3727    2.2343    2.6855 H.spc      1 <1>        0.000
     23 H           3.3996    1.3063    1.1597 H.spc      1 <1>        0.000
     24 H           1.3824    1.6565   -1.3381 H.spc      1 <1>        0.000
     25 H          -0.1476    0.8021   -1.7845 H.spc      1 <1>        0.000
@<TRIPOS>BOND
     1    1    2 1  
     2    2    3 1  
     3    3    4 1  
     4    4    5 1  
     5    5    3 1  
     6    5    6 1  
     7    6    1 1  
     8    6    7 1  
     9    7    8 1  
    10    8    9 2  
    11    9    1 1  
    12    9   10 1  
    13   10   11 1  
    14   11   12 2  
    15   12   13 1  
    16   13    8 1  
    17   13   14 2  
    18   12   15 1  
    19   11   16 1  
    20   10   17 2  
    21    7   18 1  
    22    6   19 1  
    23    4   20 1  
    24    2   21 1  
    25    2   22 1  
    26    3   23 1  
    27    5   24 1  
    28    7   25 1  
