#	Name:			guanine
#	Creating user name:	becker
#	Creation time:		Thu Dec 19 02:55:01 2002

#	Modifying user name:	zmliu
#	Modification time:	Thu Mar 11 20:48:12 2004

@<TRIPOS>MOLECULE
guanine
   16    17     1     1     0
SMALL
GAST_HUCK


@<TRIPOS>ATOM
      1 N1         -1.4670    0.9550    0.0004 N.am      1 GUANINE    -0.0124 
      2 C1         -1.5211   -0.4150    0.0003 C.2       1 GUANINE     0.3275 
      3 N2         -0.4527   -1.1157    0.0009 N.2       1 GUANINE    -0.2674 
      4 C2          0.8431   -0.4871    0.0006 C.2       1 GUANINE     0.1505 
      5 C3          0.9190    0.8418    0.0000 C.2       1 GUANINE     0.0997 
      6 C4         -0.2994    1.6537    0.0006 C.2       1 GUANINE     0.2511 
      7 N3          2.3419    1.0412   -0.0014 N.2       1 GUANINE    -0.3090 
      8 C5          2.9190   -0.0807   -0.0009 C.2       1 GUANINE     0.2208 
      9 N4          2.0329   -1.0346    0.0009 N.pl3     1 GUANINE    -0.0893 
     10 N5         -2.6927   -0.9947   -0.0006 N.pl3     1 GUANINE     0.0342 
     11 O1         -0.2238    2.8720    0.0014 O.2       1 GUANINE    -0.4057 
     12 H1         -2.3100    1.4970    0.0001 H.spc     1 GUANINE    -1.0000 
     13 H2          3.9999   -0.2188   -0.0019 H.spc     1 GUANINE    -1.0000 
     14 H3          2.2308   -2.0462    0.0021 H.spc     1 GUANINE    -1.0000 
     15 H4         -2.7557   -2.0242   -0.0005 H.spc     1 GUANINE    -1.0000 
     16 H5         -3.5642   -0.4436   -0.0017 H.spc     1 GUANINE    -1.0000 
@<TRIPOS>BOND
     1    1    2 1    
     2    1    6 am   
     3    2    3 2    
     4    2   10 1    
     5    3    4 1    
     6    4    5 2    
     7    4    9 1    
     8    5    6 1    
     9    5    7 1    
    10    6   11 2    
    11    7    8 2    
    12    8    9 1    
    13    1   12 1    
    14    8   13 1    
    15    9   14 1    
    16   10   15 1    
    17   10   16 1    
@<TRIPOS>SUBSTRUCTURE
     1 GUANINE     1 PERM              0 ****  ****    0 ROOT 
@<TRIPOS>NORMAL
@<TRIPOS>FF_PBC
FORCE_FIELD_SETUP_FEATURE Force Field Setup information
v1.0  0 0.000000 0.000000 0.000000 0.000000 0.000000 0.000000 NONE 2 0 0 0 0 0 0 0 0 0 0 0 0
