# Name:          seed_class_3_142_22/26467
# Creation time: Fri May 21 00:57:15 2010


@<TRIPOS>MOLECULE
seed_class_3_142_22/26467
    9     8     1     1     1
SMALL
USER_CHARGES


@<TRIPOS>ATOM
      1 H          -0.2369   -0.6311   -0.5739 H.spc      1 <1>        0.000
      2 N          -1.6111   -0.7099   -0.9018 N.am       1 <1>        0.000
      3 C          -2.4965    0.0280   -0.2381 C.2        1 <1>        0.000
      4 O          -2.1197    0.7860    0.6543 O.2        1 <1>        0.000
      5 C          -3.9351   -0.0628   -0.5735 C.2        1 <1>        0.000
      6 O          -4.3124   -0.8371   -1.4374 O.2        1 <1>        0.000
      7 O          -4.8101    0.6940    0.0623 O.3        1 <1>        0.000
      8 H          -1.9227   -1.3326   -1.6472 H.spc      1 <1>        0.000
      9 H          -4.3516    1.2408    0.7045 H.spc      1 <1>        0.000
@<TRIPOS>BOND
     1    1    2 1  
     2    2    3 am 
     3    3    4 2  
     4    3    5 1  
     5    5    6 2  
     6    5    7 1  
     7    2    8 1  
     8    7    9 1  
