# Name:          seed_class_5_446_45/34898
# Creation time: Fri May 21 00:57:19 2010


@<TRIPOS>MOLECULE
seed_class_5_446_45/34898
   15    15     1     1     1
SMALL
USER_CHARGES


@<TRIPOS>ATOM
      1 H           5.8265    2.4609   -3.1841 H.spc      1 <1>        0.000
      2 C           7.1045    2.2228   -2.3810 C.3        1 <1>        0.000
      3 O           7.0883    3.0541   -1.2176 O.3        1 <1>        0.000
      4 C           8.1829    3.6692   -0.7215 C.2        1 <1>        0.000
      5 C           9.5297    3.5109   -1.3858 C.3        1 <1>        0.000
      6 C           9.6079    2.4133   -2.4631 C.3        1 <1>        0.000
      7 C           8.3219    2.3866   -3.3098 C.3        1 <1>        0.000
      8 O           8.0826    4.3625    0.2773 O.2        1 <1>        0.000
      9 H           7.1736    1.2038   -2.0003 H.spc      1 <1>        0.000
     10 H          10.2329    3.2293   -0.6020 H.spc      1 <1>        0.000
     11 H           9.7434    4.4552   -1.8866 H.spc      1 <1>        0.000
     12 H           9.7264    1.4470   -1.9728 H.spc      1 <1>        0.000
     13 H          10.4550    2.6216   -3.1166 H.spc      1 <1>        0.000
     14 H           8.3625    1.5513   -4.0089 H.spc      1 <1>        0.000
     15 H           8.2327    3.3189   -3.8674 H.spc      1 <1>        0.000
@<TRIPOS>BOND
     1    1    2 1  
     2    2    3 1  
     3    3    4 1  
     4    4    5 1  
     5    5    6 1  
     6    6    7 1  
     7    7    2 1  
     8    4    8 2  
     9    2    9 1  
    10    5   10 1  
    11    5   11 1  
    12    6   12 1  
    13    6   13 1  
    14    7   14 1  
    15    7   15 1  
