#	Name:			2-norbornene
#	Creating user name:	becker
#	Creation time:		Thu Dec 19 02:54:38 2002

#	Modifying user name:	zmliu
#	Modification time:	Thu Mar 11 20:15:45 2004

@<TRIPOS>MOLECULE
2-norbornene
   17    18     1     1     0
SMALL
GAST_HUCK


@<TRIPOS>ATOM
      1 C1         -0.1835   -1.1241   -0.2923 C.3       1 NORBORNENE    0.0121 
      2 C2         -1.3422   -0.6659    0.5531 C.2       1 NORBORNENE    0.0507 
      3 C3         -1.3411    0.6674    0.5538 C.2       1 NORBORNENE    0.0507 
      4 C4         -0.1820    1.1244   -0.2916 C.3       1 NORBORNENE    0.0121 
      5 C5          1.1038    0.7793    0.5059 C.3       1 NORBORNENE   -0.0357 
      6 C6          1.1023   -0.7810    0.5059 C.3       1 NORBORNENE   -0.0357 
      7 C7         -0.2093    0.0006   -1.3503 C.3       1 NORBORNENE   -0.0543 
      8 H1         -0.2619   -2.1505   -0.6849 H.spc     1 NORBORNENE   -1.0000 
      9 H2         -2.0467   -1.3093    1.0790 H.spc     1 NORBORNENE   -1.0000 
     10 H3         -2.0446    1.3113    1.0805 H.spc     1 NORBORNENE   -1.0000 
     11 H4         -0.2591    2.1512   -0.6835 H.spc     1 NORBORNENE   -1.0000 
     12 H5          1.0732    1.2077    1.5211 H.spc     1 NORBORNENE   -1.0000 
     13 H6          1.9881    1.1758   -0.0204 H.spc     1 NORBORNENE   -1.0000 
     14 H7          1.9864   -1.1793   -0.0193 H.spc     1 NORBORNENE   -1.0000 
     15 H8          1.0699   -1.2092    1.5213 H.spc     1 NORBORNENE   -1.0000 
     16 H9         -1.1257    0.0014   -1.9658 H.spc     1 NORBORNENE   -1.0000 
     17 H10         0.6725    0.0002   -2.0125 H.spc     1 NORBORNENE   -1.0000 
@<TRIPOS>BOND
     1    1    2 1    
     2    1    6 1    
     3    1    7 1    
     4    2    3 2    
     5    3    4 1    
     6    4    5 1    
     7    4    7 1    
     8    5    6 1    
     9    1    8 1    
    10    2    9 1    
    11    3   10 1    
    12    4   11 1    
    13    5   12 1    
    14    5   13 1    
    15    6   14 1    
    16    6   15 1    
    17    7   16 1    
    18    7   17 1    
@<TRIPOS>SUBSTRUCTURE
     1 NORBORNENE     1 PERM              0 ****  ****    0 ROOT 
@<TRIPOS>NORMAL
@<TRIPOS>FF_PBC
FORCE_FIELD_SETUP_FEATURE Force Field Setup information
v1.0  0 0.000000 0.000000 0.000000 0.000000 0.000000 0.000000 NONE 2 0 0 0 0 0 0 0 0 0 0 0 0
