# Name:          seed_class_5_484_33/34898
# Creation time: Fri May 21 00:57:19 2010


@<TRIPOS>MOLECULE
seed_class_5_484_33/34898
   16    16     1     1     1
SMALL
USER_CHARGES


@<TRIPOS>ATOM
      1 O           2.7186   -0.6581    0.6307 O.3        1 <1>        0.000
      2 H           3.0147   -1.6766    1.5898 H.spc      1 <1>        0.000
      3 C           1.4020   -0.3858    0.3674 C.ar       1 <1>        0.000
      4 C           1.0645    0.5974   -0.5704 C.ar       1 <1>        0.000
      5 C          -0.2809    0.8757   -0.8394 C.ar       1 <1>        0.000
      6 C          -1.2889    0.1709   -0.1706 C.ar       1 <1>        0.000
      7 C          -0.9514   -0.8123    0.7672 C.ar       1 <1>        0.000
      8 C           0.3941   -1.0906    1.0362 C.ar       1 <1>        0.000
      9 C          -2.7112    0.4651   -0.4550 C.2        1 <1>        0.000
     10 O          -3.0077    1.3096   -1.2987 O.2        1 <1>        0.000
     11 H          -3.7982   -0.2715    0.2905 H.spc      1 <1>        0.000
     12 O           2.0508    1.2872   -1.2248 O.3        1 <1>        0.000
     13 H          -0.5436    1.6411   -1.5696 H.spc      1 <1>        0.000
     14 H          -1.7361   -1.3611    1.2879 H.spc      1 <1>        0.000
     15 H           0.6569   -1.8560    1.7664 H.spc      1 <1>        0.000
     16 H           1.6519    1.9188   -1.8278 H.spc      1 <1>        0.000
@<TRIPOS>BOND
     1    1    2 1  
     2    1    3 1  
     3    3    4 ar 
     4    4    5 ar 
     5    5    6 ar 
     6    6    7 ar 
     7    7    8 ar 
     8    8    3 ar 
     9    6    9 1  
    10    9   10 2  
    11    9   11 1  
    12    4   12 1  
    13    5   13 1  
    14    7   14 1  
    15    8   15 1  
    16   12   16 1  
