# Name:          seed_class_5_491_32/34898
# Creation time: Fri May 21 00:57:19 2010


@<TRIPOS>MOLECULE
seed_class_5_491_32/34898
   30    32     1     1     1
SMALL
USER_CHARGES


@<TRIPOS>ATOM
      1 Cl          3.8895    3.6136   -0.2618 Cl         1 <1>        0.000
      2 C           2.8148    2.3818    0.3342 C.ar       1 <1>        0.000
      3 C           2.3678    1.3685   -0.5222 C.ar       1 <1>        0.000
      4 C           1.5031    0.3774   -0.0427 C.ar       1 <1>        0.000
      5 C           1.0853    0.3996    1.2933 C.ar       1 <1>        0.000
      6 C           1.5322    1.4129    2.1498 C.ar       1 <1>        0.000
      7 C           2.3969    2.4040    1.6703 C.ar       1 <1>        0.000
      8 N           0.2001   -0.5596    1.8399 N.am       1 <1>        0.000
      9 C          -0.8712   -1.0554    1.2272 C.2        1 <1>        0.000
     10 C          -1.2664   -0.6288   -0.1663 C.3        1 <1>        0.000
     11 N          -0.1806   -1.1384   -1.0162 N.2        1 <1>        0.000
     12 C           1.0605   -0.6919   -0.9652 C.2        1 <1>        0.000
     13 C           2.0604   -1.2911   -1.8771 C.ar       1 <1>        0.000
     14 C           2.0131   -1.0125   -3.2482 C.ar       1 <1>        0.000
     15 C           2.9590   -1.5793   -4.1108 C.ar       1 <1>        0.000
     16 C           3.9522   -2.4247   -3.6021 C.ar       1 <1>        0.000
     17 C           3.9996   -2.7033   -2.2310 C.ar       1 <1>        0.000
     18 C           3.0537   -2.1365   -1.3684 C.ar       1 <1>        0.000
     19 H          -2.5212   -1.2036   -0.5404 H.spc      1 <1>        0.000
     20 O          -1.5615   -1.8873    1.8140 O.2        1 <1>        0.000
     21 H           0.4883   -1.0481    3.1960 H.spc      1 <1>        0.000
     22 H           2.6931    1.3512   -1.5624 H.spc      1 <1>        0.000
     23 H           1.2069    1.4301    3.1900 H.spc      1 <1>        0.000
     24 H           2.7448    3.1929    2.3371 H.spc      1 <1>        0.000
     25 H          -1.3950    0.4501   -0.2533 H.spc      1 <1>        0.000
     26 H           1.2398   -0.3543   -3.6442 H.spc      1 <1>        0.000
     27 H           2.9221   -1.3624   -5.1784 H.spc      1 <1>        0.000
     28 H           4.6886   -2.8660   -4.2736 H.spc      1 <1>        0.000
     29 H           4.7729   -3.3615   -1.8350 H.spc      1 <1>        0.000
     30 H           3.0906   -2.3534   -0.3008 H.spc      1 <1>        0.000
@<TRIPOS>BOND
     1    1    2 1  
     2    2    3 ar 
     3    3    4 ar 
     4    4    5 ar 
     5    5    6 ar 
     6    6    7 ar 
     7    7    2 ar 
     8    5    8 1  
     9    8    9 am 
    10    9   10 1  
    11   10   11 1  
    12   11   12 2  
    13   12    4 1  
    14   12   13 1  
    15   13   14 ar 
    16   14   15 ar 
    17   15   16 ar 
    18   16   17 ar 
    19   17   18 ar 
    20   18   13 ar 
    21   10   19 1  
    22    9   20 2  
    23    8   21 1  
    24    3   22 1  
    25    6   23 1  
    26    7   24 1  
    27   10   25 1  
    28   14   26 1  
    29   15   27 1  
    30   16   28 1  
    31   17   29 1  
    32   18   30 1  
