# Name:          seed_class_3_99_92/26467
# Creation time: Fri May 21 00:57:14 2010


@<TRIPOS>MOLECULE
seed_class_3_99_92/26467
    6     5     1     1     1
SMALL
USER_CHARGES


@<TRIPOS>ATOM
      1 H          -3.4856   -0.5743    3.8980 H.spc      1 <1>        0.000
      2 C          -4.8154   -0.7647    3.2084 C.2        1 <1>        0.000
      3 N          -5.7355   -1.5399    3.7515 N.2        1 <1>        0.000
      4 O          -6.9884   -1.7605    3.1671 O.3        1 <1>        0.000
      5 H          -7.9210   -2.5859    3.8699 H.spc      1 <1>        0.000
      6 H          -5.0155   -0.2620    2.2622 H.spc      1 <1>        0.000
@<TRIPOS>BOND
     1    1    2 1  
     2    2    3 2  
     3    3    4 1  
     4    4    5 1  
     5    2    6 1  
