#	Name:			acenaphthene
#	Creating user name:	becker
#	Creation time:		Thu Dec 19 02:54:40 2002

#	Modifying user name:	zmliu
#	Modification time:	Thu Mar 11 20:22:46 2004

@<TRIPOS>MOLECULE
acenaphthene
   22    24     1     1     0
SMALL
GAST_HUCK


@<TRIPOS>ATOM
      1 C1         -0.7857    2.2112   -0.0027 C.3       1 ACENAPHTHENE   -0.1813 
      2 C2          0.7814    2.2128    0.0009 C.3       1 ACENAPHTHENE   -0.1813 
      3 C3          2.3896    0.0967    0.0018 C.ar      1 ACENAPHTHENE    0.0501 
      4 C4          2.4275   -1.3056    0.0000 C.ar      1 ACENAPHTHENE    0.0709 
      5 C5          1.2511   -2.0722   -0.0011 C.ar      1 ACENAPHTHENE    0.0763 
      6 C6         -1.2472   -2.0745   -0.0008 C.ar      1 ACENAPHTHENE    0.0763 
      7 C7         -2.4251   -1.3101    0.0018 C.ar      1 ACENAPHTHENE    0.0709 
      8 C8         -2.3897    0.0923    0.0012 C.ar      1 ACENAPHTHENE    0.0501 
      9 C9         -1.1448    0.7242   -0.0005 C.ar      1 ACENAPHTHENE   -0.0572 
     10 C10         1.1436    0.7264    0.0009 C.ar      1 ACENAPHTHENE   -0.0572 
     11 C11         0.0014   -1.4410   -0.0007 C.ar      1 ACENAPHTHENE    0.0728 
     12 C12         0.0000   -0.0517   -0.0001 C.ar      1 ACENAPHTHENE    0.0096 
     13 H1         -1.1983    2.6890   -0.9052 H.spc     1 ACENAPHTHENE   -1.0000 
     14 H2         -1.2029    2.6936    0.8951 H.spc     1 ACENAPHTHENE   -1.0000 
     15 H3          1.1931    2.6931    0.9025 H.spc     1 ACENAPHTHENE   -1.0000 
     16 H4          1.1977    2.6944   -0.8979 H.spc     1 ACENAPHTHENE   -1.0000 
     17 H5          3.3024    0.6829    0.0038 H.spc     1 ACENAPHTHENE   -1.0000 
     18 H6          3.3893   -1.8092   -0.0006 H.spc     1 ACENAPHTHENE   -1.0000 
     19 H7          1.3116   -3.1558   -0.0021 H.spc     1 ACENAPHTHENE   -1.0000 
     20 H8         -1.3056   -3.1583   -0.0029 H.spc     1 ACENAPHTHENE   -1.0000 
     21 H9         -3.3860   -1.8152    0.0044 H.spc     1 ACENAPHTHENE   -1.0000 
     22 H10        -3.3033    0.6771    0.0023 H.spc     1 ACENAPHTHENE   -1.0000 
@<TRIPOS>BOND
     1    2    1 1    
     2    1    9 1    
     3   10    2 1    
     4    4    3 ar   
     5    3   10 ar   
     6    5    4 ar   
     7   11    5 ar   
     8    6    7 ar   
     9    6   11 ar   
    10    7    8 ar   
    11    8    9 ar   
    12    9   12 ar   
    13   10   12 ar   
    14   11   12 ar   
    15    1   13 1    
    16    1   14 1    
    17    2   15 1    
    18    2   16 1    
    19    3   17 1    
    20    4   18 1    
    21    5   19 1    
    22    6   20 1    
    23    7   21 1    
    24    8   22 1    
@<TRIPOS>SUBSTRUCTURE
     1 ACENAPHTHENE     6 PERM              0 ****  ****    0 ROOT 
@<TRIPOS>NORMAL
@<TRIPOS>FF_PBC
FORCE_FIELD_SETUP_FEATURE Force Field Setup information
v1.0  0 0.000000 0.000000 0.000000 0.000000 0.000000 0.000000 NONE 2 0 0 0 0 0 0 0 0 0 0 0 0
