#	Name:			oxazole
#	Creating user name:	becker
#	Creation time:		Thu Dec 19 02:54:58 2002

#	Modifying user name:	zmliu
#	Modification time:	Thu Mar 11 21:03:56 2004

@<TRIPOS>MOLECULE
oxazole
    8     8     1     1     0
SMALL
GAST_HUCK


@<TRIPOS>ATOM
      1 O1          0.6019    1.0810   -0.0001 O.3       1 OXAZOLE    -0.2076 
      2 C1          1.3207   -0.0578    0.0000 C.2       1 OXAZOLE     0.2687 
      3 N1          0.5111   -1.0298    0.0000 N.2       1 OXAZOLE    -0.2905 
      4 C2         -0.8699   -0.6522    0.0000 C.2       1 OXAZOLE     0.0464 
      5 C3         -0.6823    0.6683    0.0000 C.2       1 OXAZOLE     0.1830 
      6 H1          2.4072   -0.1295    0.0000 H.spc     1 OXAZOLE    -1.0000 
      7 H2         -1.7773   -1.2549    0.0000 H.spc     1 OXAZOLE    -1.0000 
      8 H3         -1.5114    1.3748    0.0001 H.spc     1 OXAZOLE    -1.0000 
@<TRIPOS>BOND
     1    1    2 1    
     2    1    5 1    
     3    2    3 2    
     4    3    4 1    
     5    4    5 2    
     6    2    6 1    
     7    4    7 1    
     8    5    8 1    
@<TRIPOS>SUBSTRUCTURE
     1 OXAZOLE     1 PERM              0 ****  ****    0 ROOT 
@<TRIPOS>NORMAL
@<TRIPOS>FF_PBC
FORCE_FIELD_SETUP_FEATURE Force Field Setup information
v1.0  0 0.000000 0.000000 0.000000 0.000000 0.000000 0.000000 NONE 2 0 0 0 0 0 0 0 0 0 0 0 0
