# Name:          seed_class_4_272_38/38664
# Creation time: Fri May 21 00:57:16 2010


@<TRIPOS>MOLECULE
seed_class_4_272_38/38664
   18    19     1     1     1
SMALL
USER_CHARGES


@<TRIPOS>ATOM
      1 H          -1.4021   -0.0094   -1.4963 H.spc      1 <1>        0.000
      2 N          -2.7609   -0.5673   -1.4380 N.am       1 <1>        0.000
      3 C          -2.9836   -1.7699   -1.9605 C.2        1 <1>        0.000
      4 N          -4.1813   -2.3481   -1.9505 N.am       1 <1>        0.000
      5 C          -5.2906   -1.6893   -1.3694 C.ar       1 <1>        0.000
      6 C          -5.0890   -0.4215   -0.8107 C.ar       1 <1>        0.000
      7 C          -6.1603    0.2642   -0.2258 C.ar       1 <1>        0.000
      8 C          -7.4333   -0.3179   -0.1997 C.ar       1 <1>        0.000
      9 C          -7.6349   -1.5857   -0.7584 C.ar       1 <1>        0.000
     10 C          -6.5636   -2.2713   -1.3433 C.ar       1 <1>        0.000
     11 H          -8.9097   -2.1686   -0.7322 H.spc      1 <1>        0.000
     12 C          -3.7242    0.1484   -0.8646 C.2        1 <1>        0.000
     13 O          -3.4863    1.2581   -0.3903 O.2        1 <1>        0.000
     14 O          -2.0272   -2.3824   -2.4828 O.2        1 <1>        0.000
     15 H          -4.3010   -3.2726   -2.3645 H.spc      1 <1>        0.000
     16 H          -6.0033    1.2512    0.2092 H.spc      1 <1>        0.000
     17 H          -8.2675    0.2159    0.2556 H.spc      1 <1>        0.000
     18 H          -6.7206   -3.2583   -1.7784 H.spc      1 <1>        0.000
@<TRIPOS>BOND
     1    1    2 1  
     2    2    3 am 
     3    3    4 am 
     4    4    5 1  
     5    5    6 ar 
     6    6    7 ar 
     7    7    8 ar 
     8    8    9 ar 
     9    9   10 ar 
    10   10    5 ar 
    11    9   11 1  
    12    6   12 1  
    13   12    2 am 
    14   12   13 2  
    15    3   14 2  
    16    4   15 1  
    17    7   16 1  
    18    8   17 1  
    19   10   18 1  
