# Name:          seed_class_5_511_27/34898
# Creation time: Fri May 21 00:57:20 2010


@<TRIPOS>MOLECULE
seed_class_5_511_27/34898
   29    30     1     1     1
SMALL
USER_CHARGES


@<TRIPOS>ATOM
      1 H          -1.3578    0.1195    0.8263 H.spc      1 <1>        0.000
      2 C          -2.8328   -0.2506    0.9751 C.3        1 <1>        0.000
      3 C          -3.6996    1.0218    0.9407 C.3        1 <1>        0.000
      4 C          -5.2002    0.6831    1.0125 C.3        1 <1>        0.000
      5 C          -5.6078   -0.3062   -0.0951 C.3        1 <1>        0.000
      6 C          -4.7410   -1.5786   -0.0607 C.3        1 <1>        0.000
      7 C          -3.2404   -1.2399   -0.1325 C.3        1 <1>        0.000
      8 H          -2.9036   -0.6561   -1.5015 H.spc      1 <1>        0.000
      9 C          -6.0853    1.9065    1.0140 C.2        1 <1>        0.000
     10 C          -5.6880    2.9634    2.0169 C.3        1 <1>        0.000
     11 C          -4.1881    3.3059    1.9476 C.3        1 <1>        0.000
     12 C          -3.3192    2.0370    2.0344 C.3        1 <1>        0.000
     13 C          -7.1360    2.0430    0.1936 C.2        1 <1>        0.000
     14 H          -5.5138   -0.0237    2.3280 H.spc      1 <1>        0.000
     15 H          -2.9477   -0.9219    2.3407 H.spc      1 <1>        0.000
     16 H          -3.4971    1.4982   -0.0185 H.spc      1 <1>        0.000
     17 H          -5.4698    0.1801   -1.0608 H.spc      1 <1>        0.000
     18 H          -6.6478   -0.5921    0.0623 H.spc      1 <1>        0.000
     19 H          -4.9978   -2.1952   -0.9220 H.spc      1 <1>        0.000
     20 H          -4.9328   -2.1023    0.8758 H.spc      1 <1>        0.000
     21 H          -2.6799   -2.1626    0.0180 H.spc      1 <1>        0.000
     22 H          -5.8997    2.5779    3.0142 H.spc      1 <1>        0.000
     23 H          -6.2511    3.8693    1.7925 H.spc      1 <1>        0.000
     24 H          -3.9410    3.9536    2.7887 H.spc      1 <1>        0.000
     25 H          -3.9885    3.7985    0.9960 H.spc      1 <1>        0.000
     26 H          -3.4783    1.5737    3.0081 H.spc      1 <1>        0.000
     27 H          -2.2759    2.3210    1.8962 H.spc      1 <1>        0.000
     28 H          -7.3819    1.2507   -0.5134 H.spc      1 <1>        0.000
     29 H          -7.7447    2.9463    0.2333 H.spc      1 <1>        0.000
@<TRIPOS>BOND
     1    2    1 1  
     2    2    3 1  
     3    3    4 1  
     4    4    5 1  
     5    5    6 1  
     6    6    7 1  
     7    7    2 1  
     8    7    8 1  
     9    4    9 1  
    10    9   10 1  
    11   10   11 1  
    12   11   12 1  
    13   12    3 1  
    14    9   13 2  
    15    4   14 1  
    16    2   15 1  
    17    3   16 1  
    18    5   17 1  
    19    5   18 1  
    20    6   19 1  
    21    6   20 1  
    22    7   21 1  
    23   10   22 1  
    24   10   23 1  
    25   11   24 1  
    26   11   25 1  
    27   12   26 1  
    28   12   27 1  
    29   13   28 1  
    30   13   29 1  
