# Name:          seed_class_4_202_103/38664
# Creation time: Fri May 21 00:57:15 2010


@<TRIPOS>MOLECULE
seed_class_4_202_103/38664
   26    27     1     1     1
SMALL
USER_CHARGES


@<TRIPOS>ATOM
      1 H           3.5977    1.0474    2.7644 H.spc      1 <1>        0.000
      2 C           2.1330    1.0941    2.5571 C.2        1 <1>        0.000
      3 C           1.6204    1.8280    1.5600 C.2        1 <1>        0.000
      4 C           0.1372    1.9206    1.2915 C.3        1 <1>        0.000
      5 C          -0.2295    1.6669   -0.1825 C.3        1 <1>        0.000
      6 C          -1.7678    1.5955   -0.2012 C.3        1 <1>        0.000
      7 C          -2.1350    0.9479    1.1469 C.3        1 <1>        0.000
      8 C          -0.9339    1.1530    2.0887 C.3        1 <1>        0.000
      9 H          -2.2822    0.7743   -1.3826 H.spc      1 <1>        0.000
     10 C           0.6072    2.5664   -1.1105 C.3        1 <1>        0.000
     11 C           2.1159    2.3790   -0.8642 C.3        1 <1>        0.000
     12 C           2.4781    2.6307    0.6113 C.3        1 <1>        0.000
     13 H           0.2234    0.2709   -0.6007 H.spc      1 <1>        0.000
     14 H           1.4712    0.5315    3.2156 H.spc      1 <1>        0.000
     15 H           0.0686    2.9437    1.6611 H.spc      1 <1>        0.000
     16 H          -2.2243    2.5776   -0.3244 H.spc      1 <1>        0.000
     17 H          -2.3473   -0.1136    1.0191 H.spc      1 <1>        0.000
     18 H          -3.0327    1.4058    1.5623 H.spc      1 <1>        0.000
     19 H          -0.5455    0.1945    2.4328 H.spc      1 <1>        0.000
     20 H          -1.2303    1.7135    2.9754 H.spc      1 <1>        0.000
     21 H           0.3501    3.6062   -0.9087 H.spc      1 <1>        0.000
     22 H           0.3889    2.2960   -2.1436 H.spc      1 <1>        0.000
     23 H           2.6595    3.0942   -1.4816 H.spc      1 <1>        0.000
     24 H           2.3837    1.3531   -1.1169 H.spc      1 <1>        0.000
     25 H           2.3161    3.6877    0.8226 H.spc      1 <1>        0.000
     26 H           3.5156    2.3313    0.7595 H.spc      1 <1>        0.000
@<TRIPOS>BOND
     1    1    2 1  
     2    2    3 2  
     3    3    4 1  
     4    4    5 1  
     5    5    6 1  
     6    6    7 1  
     7    7    8 1  
     8    8    4 1  
     9    6    9 1  
    10    5   10 1  
    11   10   11 1  
    12   11   12 1  
    13   12    3 1  
    14    5   13 1  
    15    2   14 1  
    16    4   15 1  
    17    6   16 1  
    18    7   17 1  
    19    7   18 1  
    20    8   19 1  
    21    8   20 1  
    22   10   21 1  
    23   10   22 1  
    24   11   23 1  
    25   11   24 1  
    26   12   25 1  
    27   12   26 1  
