# Name:          seed_class_5_449_44/34898
# Creation time: Fri May 21 00:57:19 2010


@<TRIPOS>MOLECULE
seed_class_5_449_44/34898
   13    13     1     1     1
SMALL
USER_CHARGES


@<TRIPOS>ATOM
      1 Br          2.8044   -1.6486   -2.6159 Br         1 <1>        0.000
      2 C           4.2928   -0.7697   -1.8272 C.ar       1 <1>        0.000
      3 C           4.0995    0.1071   -0.7530 C.ar       1 <1>        0.000
      4 C           5.1962    0.7547   -0.1719 C.ar       1 <1>        0.000
      5 C           6.4863    0.5256   -0.6649 C.ar       1 <1>        0.000
      6 C           6.6797   -0.3512   -1.7391 C.ar       1 <1>        0.000
      7 C           5.5830   -0.9988   -2.3203 C.ar       1 <1>        0.000
      8 H           8.0712   -0.5984   -2.2709 H.spc      1 <1>        0.000
      9 Br          4.9338    1.9446    1.2860 Br         1 <1>        0.000
     10 O           2.8370    0.3313   -0.2705 O.3        1 <1>        0.000
     11 H           1.7490   -0.3594   -0.8902 H.spc      1 <1>        0.000
     12 H           7.3402    1.0299   -0.2124 H.spc      1 <1>        0.000
     13 H           5.7336   -1.6814   -3.1567 H.spc      1 <1>        0.000
@<TRIPOS>BOND
     1    1    2 1  
     2    2    3 ar 
     3    3    4 ar 
     4    4    5 ar 
     5    5    6 ar 
     6    6    7 ar 
     7    7    2 ar 
     8    6    8 1  
     9    4    9 1  
    10    3   10 1  
    11   10   11 1  
    12    5   12 1  
    13    7   13 1  
