#	Name:			furan
#	Creating user name:	becker
#	Creation time:		Thu Dec 19 02:54:55 2002

#	Modifying user name:	zmliu
#	Modification time:	Thu Mar 11 20:47:21 2004

@<TRIPOS>MOLECULE
furan
    9     9     1     1     0
SMALL
GAST_HUCK


@<TRIPOS>ATOM
      1 O1          0.0000    1.4441    0.0000 O.3       1 FURAN      -0.2500 
      2 C1          1.0326    0.5942   -0.0001 C.2       1 FURAN       0.1538 
      3 C2          0.7302   -0.7054    0.0002 C.2       1 FURAN      -0.0288 
      4 C3         -0.7303   -0.7053   -0.0002 C.2       1 FURAN      -0.0288 
      5 C4         -1.0325    0.5943    0.0001 C.2       1 FURAN       0.1538 
      6 H1          2.0620    0.9515   -0.0005 H.spc     1 FURAN      -1.0000 
      7 H2          1.4029   -1.5624    0.0007 H.spc     1 FURAN      -1.0000 
      8 H3         -1.4029   -1.5625   -0.0007 H.spc     1 FURAN      -1.0000 
      9 H4         -2.0619    0.9515    0.0005 H.spc     1 FURAN      -1.0000 
@<TRIPOS>BOND
     1    1    2 1    
     2    1    5 1    
     3    2    3 2    
     4    3    4 1    
     5    4    5 2    
     6    2    6 1    
     7    3    7 1    
     8    4    8 1    
     9    5    9 1    
@<TRIPOS>SUBSTRUCTURE
     1 FURAN       1 PERM              0 ****  ****    0 ROOT 
@<TRIPOS>NORMAL
@<TRIPOS>FF_PBC
FORCE_FIELD_SETUP_FEATURE Force Field Setup information
v1.0  0 0.000000 0.000000 0.000000 0.000000 0.000000 0.000000 NONE 2 0 0 0 0 0 0 0 0 0 0 0 0
