# Name:          seed_class_3_141_23/26467
# Creation time: Fri May 21 00:57:15 2010


@<TRIPOS>MOLECULE
seed_class_3_141_23/26467
    8     7     1     1     1
SMALL
USER_CHARGES


@<TRIPOS>ATOM
      1 S          -1.5821   -0.2567   -0.4014 S.3        1 <1>        0.000
      2 P          -3.4703   -1.2605   -0.4839 P.3        1 <1>        0.000
      3 S          -3.5581   -2.6051    0.9394 S.2        1 <1>        0.000
      4 O          -3.6286   -1.9636   -1.8787 O.3        1 <1>        0.000
      5 H          -2.6432   -2.9799   -2.0812 H.spc      1 <1>        0.000
      6 O          -4.6268   -0.2166   -0.2897 O.3        1 <1>        0.000
      7 H          -5.9151   -0.7977   -0.5078 H.spc      1 <1>        0.000
      8 H          -0.6630   -1.0906    0.9298 H.spc      1 <1>        0.000
@<TRIPOS>BOND
     1    1    2 1  
     2    2    3 2  
     3    2    4 1  
     4    4    5 1  
     5    2    6 1  
     6    6    7 1  
     7    1    8 1  
