# Name:          seed_class_5_406_93/34898
# Creation time: Fri May 21 00:57:18 2010


@<TRIPOS>MOLECULE
seed_class_5_406_93/34898
   18    18     1     1     1
SMALL
USER_CHARGES


@<TRIPOS>ATOM
      1 H           1.9690    0.7399   -2.2941 H.spc      1 <1>        0.000
      2 N           1.5886    0.2650   -0.9560 N.pl3      1 <1>        0.000
      3 C           0.3584   -0.4082   -0.7673 C.ar       1 <1>        0.000
      4 C          -0.5473   -0.5219   -1.8288 C.ar       1 <1>        0.000
      5 C          -1.7644   -1.1880   -1.6422 C.ar       1 <1>        0.000
      6 C          -2.0759   -1.7404   -0.3940 C.ar       1 <1>        0.000
      7 C          -1.1703   -1.6266    0.6675 C.ar       1 <1>        0.000
      8 C           0.0469   -0.9605    0.4808 C.ar       1 <1>        0.000
      9 C          -3.3627   -2.4445   -0.1967 C.2        1 <1>        0.000
     10 O          -3.8820   -2.4757    0.9178 O.2        1 <1>        0.000
     11 N          -3.9573   -3.0435   -1.2246 N.am       1 <1>        0.000
     12 H          -5.3408   -3.5235   -1.0955 H.spc      1 <1>        0.000
     13 H           2.2115    0.4208   -0.1634 H.spc      1 <1>        0.000
     14 H          -0.3048   -0.0918   -2.8006 H.spc      1 <1>        0.000
     15 H          -2.4695   -1.2766   -2.4687 H.spc      1 <1>        0.000
     16 H          -1.4128   -2.0566    1.6393 H.spc      1 <1>        0.000
     17 H           0.7520   -0.8719    1.3073 H.spc      1 <1>        0.000
     18 H          -3.4534   -3.1698   -2.1024 H.spc      1 <1>        0.000
@<TRIPOS>BOND
     1    1    2 1  
     2    2    3 1  
     3    3    4 ar 
     4    4    5 ar 
     5    5    6 ar 
     6    6    7 ar 
     7    7    8 ar 
     8    8    3 ar 
     9    6    9 1  
    10    9   10 2  
    11    9   11 am 
    12   11   12 1  
    13    2   13 1  
    14    4   14 1  
    15    5   15 1  
    16    7   16 1  
    17    8   17 1  
    18   11   18 1  
