# Name:          seed_class_4_285_34/38664
# Creation time: Fri May 21 00:57:16 2010


@<TRIPOS>MOLECULE
seed_class_4_285_34/38664
   13    13     1     1     1
SMALL
USER_CHARGES


@<TRIPOS>ATOM
      1 H           7.6636    1.3711    1.1783 H.spc      1 <1>        0.000
      2 C           9.0090    0.9772    0.8961 C.3        1 <1>        0.000
      3 O           9.5788    0.3384    2.0415 O.3        1 <1>        0.000
      4 C          10.9160   -0.0893    1.7697 C.3        1 <1>        0.000
      5 C          11.8150    1.0533    1.3620 C.2        1 <1>        0.000
      6 C          11.1289    2.1738    0.6808 C.2        1 <1>        0.000
      7 C           9.8100    2.1746    0.4436 C.2        1 <1>        0.000
      8 H           9.2115    3.2215   -0.1853 H.spc      1 <1>        0.000
      9 O          13.0257    1.0529    1.5796 O.2        1 <1>        0.000
     10 H          10.9076   -1.1572    0.6796 H.spc      1 <1>        0.000
     11 H           9.0229    0.2527    0.0819 H.spc      1 <1>        0.000
     12 H          11.3179   -0.5037    2.6943 H.spc      1 <1>        0.000
     13 H          11.7194    3.0318    0.3595 H.spc      1 <1>        0.000
@<TRIPOS>BOND
     1    2    1 1  
     2    2    3 1  
     3    3    4 1  
     4    4    5 1  
     5    5    6 1  
     6    6    7 2  
     7    7    2 1  
     8    7    8 1  
     9    5    9 2  
    10    4   10 1  
    11    2   11 1  
    12    4   12 1  
    13    6   13 1  
