# Name:          seed_class_3_101_74/26467
# Creation time: Fri May 21 00:57:14 2010


@<TRIPOS>MOLECULE
seed_class_3_101_74/26467
   18    17     1     1     1
SMALL
USER_CHARGES


@<TRIPOS>ATOM
      1 P          -4.4639   -1.3933    0.2424 P.3        1 <1>        0.000
      2 O          -4.8320   -0.8368    1.5522 O.2        1 <1>        0.000
      3 O          -3.2857   -0.5554   -0.3698 O.3        1 <1>        0.000
      4 P          -2.0185   -0.5580    0.5570 P.3        1 <1>        0.000
      5 O          -2.4141   -0.2079    1.9288 O.2        1 <1>        0.000
      6 O          -0.9804    0.4938    0.0271 O.3        1 <1>        0.000
      7 H           0.2152    0.5086    0.8115 H.spc      1 <1>        0.000
      8 O          -1.3670   -1.9864    0.5487 O.3        1 <1>        0.000
      9 O          -5.7037   -1.3330   -0.7190 O.3        1 <1>        0.000
     10 P          -6.9934   -1.9324   -0.0538 P.3        1 <1>        0.000
     11 O          -7.3057   -1.1835    1.1719 O.2        1 <1>        0.000
     12 O          -6.7451   -3.4409    0.3035 O.3        1 <1>        0.000
     13 O          -8.1977   -1.8230   -1.0551 O.3        1 <1>        0.000
     14 O          -4.0091   -2.8858    0.4170 O.3        1 <1>        0.000
     15 H          -1.1090   -2.2140   -0.3475 H.spc      1 <1>        0.000
     16 H          -6.5413   -3.9290   -0.4976 H.spc      1 <1>        0.000
     17 H          -7.9927   -2.3124   -1.8551 H.spc      1 <1>        0.000
     18 H          -3.7690   -3.2482   -0.4389 H.spc      1 <1>        0.000
@<TRIPOS>BOND
     1    1    2 2  
     2    1    3 1  
     3    3    4 1  
     4    4    5 2  
     5    4    6 1  
     6    6    7 1  
     7    4    8 1  
     8    1    9 1  
     9    9   10 1  
    10   10   11 2  
    11   10   12 1  
    12   10   13 1  
    13    1   14 1  
    14    8   15 1  
    15   12   16 1  
    16   13   17 1  
    17   14   18 1  
