# Name:          seed_class_3_119_38/26467
# Creation time: Fri May 21 00:57:15 2010


@<TRIPOS>MOLECULE
seed_class_3_119_38/26467
    6     5     1     1     1
SMALL
USER_CHARGES


@<TRIPOS>ATOM
      1 Cl          5.5877    2.4454    1.0154 Cl         1 <1>        0.000
      2 C           3.9719    1.9636    0.6754 C.2        1 <1>        0.000
      3 C           3.7253    1.1020   -0.3208 C.2        1 <1>        0.000
      4 H           2.3349    0.6874   -0.6134 H.spc      1 <1>        0.000
      5 H           4.8431    0.5650   -1.1286 H.spc      1 <1>        0.000
      6 H           2.8541    2.5005    1.4832 H.spc      1 <1>        0.000
@<TRIPOS>BOND
     1    1    2 1  
     2    2    3 2  
     3    3    4 1  
     4    3    5 1  
     5    2    6 1  
