#	Name:			piperazine
#	Creating user name:	becker
#	Creation time:		Thu Dec 19 02:55:00 2002

#	Modifying user name:	zmliu
#	Modification time:	Thu Mar 11 21:20:11 2004

@<TRIPOS>MOLECULE
piperazine
   16    16     1     1     0
SMALL
GAST_HUCK


@<TRIPOS>ATOM
      1 N1          0.0012    1.3389    0.4801 N.3       1 PIPERAZINE   -0.2150 
      2 C1          1.2326    0.7662   -0.1039 C.3       1 PIPERAZINE    0.1075 
      3 C2          1.2319   -0.7674    0.1037 C.3       1 PIPERAZINE    0.1075 
      4 N2         -0.0003   -1.3393   -0.4794 N.3       1 PIPERAZINE   -0.2150 
      5 C3         -1.2328   -0.7664    0.1023 C.3       1 PIPERAZINE    0.1075 
      6 C4         -1.2317    0.7677   -0.1024 C.3       1 PIPERAZINE    0.1075 
      7 H1          0.0019    2.4187    0.3820 H.spc     1 PIPERAZINE   -1.0000 
      8 H2          2.1166    1.2045    0.3886 H.spc     1 PIPERAZINE   -1.0000 
      9 H3          1.2853    0.9925   -1.1822 H.spc     1 PIPERAZINE   -1.0000 
     10 H4          1.2849   -0.9936    1.1821 H.spc     1 PIPERAZINE   -1.0000 
     11 H5          2.1152   -1.2066   -0.3893 H.spc     1 PIPERAZINE   -1.0000 
     12 H6         -0.0009   -2.4191   -0.3803 H.spc     1 PIPERAZINE   -1.0000 
     13 H7         -1.2882   -0.9946    1.1801 H.spc     1 PIPERAZINE   -1.0000 
     14 H8         -2.1156   -1.2036   -0.3933 H.spc     1 PIPERAZINE   -1.0000 
     15 H9         -2.1143    1.2062    0.3923 H.spc     1 PIPERAZINE   -1.0000 
     16 H10        -1.2859    0.9960   -1.1802 H.spc     1 PIPERAZINE   -1.0000 
@<TRIPOS>BOND
     1    1    2 1    
     2    2    3 1    
     3    3    4 1    
     4    4    5 1    
     5    5    6 1    
     6    1    6 1    
     7    1    7 1    
     8    2    8 1    
     9    2    9 1    
    10    3   10 1    
    11    3   11 1    
    12    4   12 1    
    13    5   13 1    
    14    5   14 1    
    15    6   15 1    
    16    6   16 1    
@<TRIPOS>SUBSTRUCTURE
     1 PIPERAZINE     1 PERM              0 ****  ****    0 ROOT 
@<TRIPOS>NORMAL
@<TRIPOS>FF_PBC
FORCE_FIELD_SETUP_FEATURE Force Field Setup information
v1.0  0 0.000000 0.000000 0.000000 0.000000 0.000000 0.000000 NONE 2 0 0 0 0 0 0 0 0 0 0 0 0
