# Name:          seed_class_5_393_173/34898
# Creation time: Fri May 21 00:57:18 2010


@<TRIPOS>MOLECULE
seed_class_5_393_173/34898
   12    12     1     1     1
SMALL
USER_CHARGES


@<TRIPOS>ATOM
      1 N           2.9268    1.0161    0.0874 N.am       1 <1>        0.000
      2 C           1.7440    1.2855   -0.4579 C.2        1 <1>        0.000
      3 N           1.2190    0.5013   -1.3951 N.am       1 <1>        0.000
      4 C           1.8775   -0.6069   -1.8285 C.2        1 <1>        0.000
      5 C           3.0730   -0.9307   -1.3170 C.2        1 <1>        0.000
      6 C           3.6407   -0.0459   -0.2752 C.2        1 <1>        0.000
      7 O           4.7334   -0.2841    0.2368 O.2        1 <1>        0.000
      8 H           3.8163   -2.1578   -1.7879 H.spc      1 <1>        0.000
      9 H          -0.0914    0.8372   -1.9705 H.spc      1 <1>        0.000
     10 O           1.1127    2.2967   -0.0817 O.2        1 <1>        0.000
     11 H           3.2966    1.6413    0.8035 H.spc      1 <1>        0.000
     12 H           1.4296   -1.2363   -2.5975 H.spc      1 <1>        0.000
@<TRIPOS>BOND
     1    1    2 am 
     2    2    3 am 
     3    3    4 1  
     4    4    5 2  
     5    5    6 1  
     6    6    1 am 
     7    6    7 2  
     8    5    8 1  
     9    3    9 1  
    10    2   10 2  
    11    1   11 1  
    12    4   12 1  
