# Name:          seed_class_4_169_303/38664
# Creation time: Fri May 21 00:57:15 2010


@<TRIPOS>MOLECULE
seed_class_4_169_303/38664
   20    21     1     1     1
SMALL
USER_CHARGES


@<TRIPOS>ATOM
      1 H           0.0366   -1.7296    0.5386 H.spc      1 <1>        0.000
      2 C           1.1920   -0.8466    0.7539 C.3        1 <1>        0.000
      3 C           2.4567   -1.6961    0.9785 C.3        1 <1>        0.000
      4 C           3.7109   -0.8766    0.6218 C.3        1 <1>        0.000
      5 O           3.6594   -0.4425   -0.7397 O.3        1 <1>        0.000
      6 C           2.5291    0.2626   -1.0594 C.ar       1 <1>        0.000
      7 C           1.3050    0.1286   -0.3934 C.ar       1 <1>        0.000
      8 C           0.2031    0.8942   -0.7932 C.ar       1 <1>        0.000
      9 C           0.3254    1.7937   -1.8590 C.ar       1 <1>        0.000
     10 C           1.5495    1.9276   -2.5250 C.ar       1 <1>        0.000
     11 C           2.6513    1.1621   -2.1252 C.ar       1 <1>        0.000
     12 H          -0.8159    2.5866   -2.2730 H.spc      1 <1>        0.000
     13 H           4.9643   -1.7181    0.8443 H.spc      1 <1>        0.000
     14 H           3.8271    0.3293    1.5496 H.spc      1 <1>        0.000
     15 H           2.5242   -2.0846    2.3531 H.spc      1 <1>        0.000
     16 H           1.0616   -0.2467    1.6546 H.spc      1 <1>        0.000
     17 H           2.4128   -2.5804    0.3428 H.spc      1 <1>        0.000
     18 H          -0.7500    0.7899   -0.2747 H.spc      1 <1>        0.000
     19 H           1.6447    2.6279   -3.3548 H.spc      1 <1>        0.000
     20 H           3.6044    1.2664   -2.6437 H.spc      1 <1>        0.000
@<TRIPOS>BOND
     1    1    2 1  
     2    2    3 1  
     3    3    4 1  
     4    4    5 1  
     5    5    6 1  
     6    6    7 ar 
     7    7    2 1  
     8    7    8 ar 
     9    8    9 ar 
    10    9   10 ar 
    11   10   11 ar 
    12   11    6 ar 
    13    9   12 1  
    14    4   13 1  
    15    4   14 1  
    16    3   15 1  
    17    2   16 1  
    18    3   17 1  
    19    8   18 1  
    20   10   19 1  
    21   11   20 1  
