#	Name:			triazine
#	Creating user name:	becker
#	Creation time:		Thu Dec 19 02:54:37 2002

#	Modifying user name:	zmliu
#	Modification time:	Thu Mar 11 21:41:43 2004

@<TRIPOS>MOLECULE
triazine
    9     9     1     1     0
SMALL
GAST_HUCK


@<TRIPOS>ATOM
      1 N1          1.1737   -0.6634   -0.0002 N.ar      1 TRIAZINE   -0.1996 
      2 C1          1.1612    0.6846    0.0000 C.ar      1 TRIAZINE    0.1996 
      3 N2         -0.0123    1.3482    0.0000 N.ar      1 TRIAZINE   -0.1996 
      4 C2         -1.1735    0.6633    0.0000 C.ar      1 TRIAZINE    0.1996 
      5 N3         -1.1613   -0.6847    0.0000 N.ar      1 TRIAZINE   -0.1996 
      6 C3          0.0122   -1.3479    0.0000 C.ar      1 TRIAZINE    0.1996 
      7 H1          2.0949    1.2349    0.0001 H.spc     1 TRIAZINE   -1.0000 
      8 H2         -2.1170    1.1966    0.0000 H.spc     1 TRIAZINE   -1.0000 
      9 H3          0.0221   -2.4317    0.0001 H.spc     1 TRIAZINE   -1.0000 
@<TRIPOS>BOND
     1    1    2 ar   
     2    1    6 ar   
     3    2    3 ar   
     4    3    4 ar   
     5    4    5 ar   
     6    5    6 ar   
     7    2    7 1    
     8    4    8 1    
     9    6    9 1    
@<TRIPOS>SUBSTRUCTURE
     1 TRIAZINE     1 PERM              0 ****  ****    0 ROOT 
@<TRIPOS>NORMAL
@<TRIPOS>FF_PBC
FORCE_FIELD_SETUP_FEATURE Force Field Setup information
v1.0  0 0.000000 0.000000 0.000000 0.000000 0.000000 0.000000 NONE 2 0 0 0 0 0 0 0 0 0 0 0 0
