#	Name:			phthalazine
#	Creating user name:	becker
#	Creation time:		Thu Dec 19 02:55:00 2002

#	Modifying user name:	zmliu
#	Modification time:	Thu Mar 11 21:19:23 2004

@<TRIPOS>MOLECULE
phthalazine
   16    17     1     1     0
SMALL
GAST_HUCK


@<TRIPOS>ATOM
      1 C1          1.6456    1.3729    0.0003 C.ar      1 PHTHALAZINE    0.1164 
      2 N1          2.7933    0.6661    0.0005 N.ar      1 PHTHALAZINE   -0.2223 
      3 N2          2.7932   -0.6662   -0.0004 N.ar      1 PHTHALAZINE   -0.2223 
      4 C2          1.6455   -1.3730   -0.0003 C.ar      1 PHTHALAZINE    0.1164 
      5 C3         -0.7942   -1.3978    0.0001 C.ar      1 PHTHALAZINE    0.0281 
      6 C4         -2.0045   -0.6987    0.0003 C.ar      1 PHTHALAZINE    0.0238 
      7 C5         -2.0045    0.6987   -0.0003 C.ar      1 PHTHALAZINE    0.0238 
      8 C6         -0.7942    1.3978   -0.0001 C.ar      1 PHTHALAZINE    0.0281 
      9 C7          0.4191    0.6999    0.0000 C.ar      1 PHTHALAZINE    0.0540 
     10 C8          0.4191   -0.6999    0.0000 C.ar      1 PHTHALAZINE    0.0540 
     11 H1          1.6910    2.4568    0.0002 H.spc     1 PHTHALAZINE   -1.0000 
     12 H2          1.6909   -2.4568   -0.0002 H.spc     1 PHTHALAZINE   -1.0000 
     13 H3         -0.8053   -2.4834   -0.0002 H.spc     1 PHTHALAZINE   -1.0000 
     14 H4         -2.9450   -1.2412    0.0010 H.spc     1 PHTHALAZINE   -1.0000 
     15 H5         -2.9450    1.2412   -0.0010 H.spc     1 PHTHALAZINE   -1.0000 
     16 H6         -0.8052    2.4834    0.0001 H.spc     1 PHTHALAZINE   -1.0000 
@<TRIPOS>BOND
     1    2    1 ar   
     2    1    9 ar   
     3    3    2 ar   
     4    4    3 ar   
     5   10    4 ar   
     6    5    6 ar   
     7    5   10 ar   
     8    6    7 ar   
     9    7    8 ar   
    10    8    9 ar   
    11    9   10 ar   
    12    1   11 1    
    13    4   12 1    
    14    5   13 1    
    15    6   14 1    
    16    7   15 1    
    17    8   16 1    
@<TRIPOS>SUBSTRUCTURE
     1 PHTHALAZINE     5 PERM              0 ****  ****    0 ROOT 
@<TRIPOS>NORMAL
@<TRIPOS>FF_PBC
FORCE_FIELD_SETUP_FEATURE Force Field Setup information
v1.0  0 0.000000 0.000000 0.000000 0.000000 0.000000 0.000000 NONE 2 0 0 0 0 0 0 0 0 0 0 0 0
