# Name:          seed_class_2_53_76/95646
# Creation time: Fri May 21 00:57:14 2010


@<TRIPOS>MOLECULE
seed_class_2_53_76/95646
    7     7     1     1     1
SMALL
USER_CHARGES


@<TRIPOS>ATOM
      1 N           2.0755    0.0981   -2.8120 N.ar       1 <1>        0.000
      2 O           3.3985    0.0960   -3.2698 O.3        1 <1>        0.000
      3 C           4.2111    0.0362   -2.1400 C.ar       1 <1>        0.000
      4 N           3.4329    0.0043   -1.0743 N.ar       1 <1>        0.000
      5 C           2.0976    0.0430   -1.4934 C.ar       1 <1>        0.000
      6 H           0.9118    0.0252   -0.6079 H.spc      1 <1>        0.000
      7 H           5.6909    0.0124   -2.1353 H.spc      1 <1>        0.000
@<TRIPOS>BOND
     1    1    2 ar 
     2    2    3 ar 
     3    3    4 ar 
     4    4    5 ar 
     5    5    1 ar 
     6    5    6 1  
     7    3    7 1  
