# Name:          seed_class_4_320_26/38664
# Creation time: Fri May 21 00:57:17 2010


@<TRIPOS>MOLECULE
seed_class_4_320_26/38664
   11    11     1     1     1
SMALL
USER_CHARGES


@<TRIPOS>ATOM
      1 N           2.0972    0.3341    0.2047 N.am       1 <1>        0.000
      2 N           1.9442   -0.1509   -1.0890 N.am       1 <1>        0.000
      3 C           0.6664   -0.3811   -1.3770 C.2        1 <1>        0.000
      4 C          -0.1335   -0.0139   -0.1501 C.3        1 <1>        0.000
      5 C           0.9254    0.4440    0.8241 C.2        1 <1>        0.000
      6 O           0.7395    0.8430    1.9727 O.2        1 <1>        0.000
      7 H          -1.1569    1.0829   -0.4408 H.spc      1 <1>        0.000
      8 H          -0.9326   -1.1998    0.3885 H.spc      1 <1>        0.000
      9 O           0.2212   -0.8110   -2.4400 O.2        1 <1>        0.000
     10 H           3.0147   -0.3722   -1.9875 H.spc      1 <1>        0.000
     11 H           3.3419    0.6685    0.7886 H.spc      1 <1>        0.000
@<TRIPOS>BOND
     1    1    2 1  
     2    2    3 am 
     3    3    4 1  
     4    4    5 1  
     5    5    1 am 
     6    5    6 2  
     7    4    7 1  
     8    4    8 1  
     9    3    9 2  
    10    2   10 1  
    11    1   11 1  
