# Name:          seed_class_3_128_32/26467
# Creation time: Fri May 21 00:57:15 2010


@<TRIPOS>MOLECULE
seed_class_3_128_32/26467
   11    10     1     1     1
SMALL
USER_CHARGES


@<TRIPOS>ATOM
      1 H           1.2895    0.7485   -1.3216 H.spc      1 <1>        0.000
      2 C           0.1613    0.2613   -2.1462 C.2        1 <1>        0.000
      3 N          -1.0041    0.8796   -2.1016 N.2        1 <1>        0.000
      4 N          -1.2507    2.0407   -1.2689 N.am       1 <1>        0.000
      5 C          -2.4220    2.1518   -0.5867 C.2        1 <1>        0.000
      6 S          -3.6027    0.9210   -0.7088 S.2        1 <1>        0.000
      7 N          -2.6542    3.2419    0.1927 N.am       1 <1>        0.000
      8 H           0.3433   -0.9432   -3.0385 H.spc      1 <1>        0.000
      9 H          -0.5457    2.7741   -1.1948 H.spc      1 <1>        0.000
     10 H          -3.5326    3.3252    0.7044 H.spc      1 <1>        0.000
     11 H          -1.9499    3.9761    0.2656 H.spc      1 <1>        0.000
@<TRIPOS>BOND
     1    1    2 1  
     2    2    3 2  
     3    3    4 1  
     4    4    5 am 
     5    5    6 2  
     6    5    7 am 
     7    2    8 1  
     8    4    9 1  
     9    7   10 1  
    10    7   11 1  
