# Name:          seed_class_4_198_120/38664
# Creation time: Fri May 21 00:57:15 2010


@<TRIPOS>MOLECULE
seed_class_4_198_120/38664
   43    46     1     1     1
SMALL
USER_CHARGES


@<TRIPOS>ATOM
      1 H           6.6858   -3.8910   -1.7713 H.spc      1 <1>        0.000
      2 C           5.6494   -2.9150   -1.6372 C.3        1 <1>        0.000
      3 C           4.3071   -3.5414   -2.0587 C.3        1 <1>        0.000
      4 C           3.1394   -2.5600   -1.8468 C.3        1 <1>        0.000
      5 C           3.0870   -2.0688   -0.3882 C.3        1 <1>        0.000
      6 C           1.9606   -1.0189   -0.3608 C.3        1 <1>        0.000
      7 C           1.9958   -0.2127    0.9508 C.3        1 <1>        0.000
      8 C           0.8414    0.8045    1.0178 C.3        1 <1>        0.000
      9 C          -0.5236    0.1215    0.8129 C.3        1 <1>        0.000
     10 C          -1.5638    1.1998    1.1684 C.3        1 <1>        0.000
     11 C          -0.9015    2.0090    2.2990 C.3        1 <1>        0.000
     12 C           0.6153    1.7598    2.2042 C.3        1 <1>        0.000
     13 H          -2.8733    0.5906    1.6090 H.spc      1 <1>        0.000
     14 C          -0.5587   -0.6848   -0.4987 C.3        1 <1>        0.000
     15 C           0.5956   -1.7019   -0.5656 C.3        1 <1>        0.000
     16 H          -0.7230   -0.9717    1.8588 H.spc      1 <1>        0.000
     17 C           3.3527    0.5009    1.0964 C.3        1 <1>        0.000
     18 C           4.5350   -0.3733    0.7529 C.2        1 <1>        0.000
     19 C           4.4153   -1.5290    0.0852 C.2        1 <1>        0.000
     20 C           5.6021   -2.4246   -0.1783 C.3        1 <1>        0.000
     21 H           2.6544   -3.2378    0.4922 H.spc      1 <1>        0.000
     22 H           5.8467   -2.0584   -2.2817 H.spc      1 <1>        0.000
     23 H           4.1309   -4.4269   -1.4480 H.spc      1 <1>        0.000
     24 H           4.3598   -3.7939   -3.1177 H.spc      1 <1>        0.000
     25 H           2.2057   -3.0736   -2.0760 H.spc      1 <1>        0.000
     26 H           3.2837   -1.6994   -2.5000 H.spc      1 <1>        0.000
     27 H           2.1149   -0.3161   -1.1795 H.spc      1 <1>        0.000
     28 H           1.8696   -0.9097    1.7793 H.spc      1 <1>        0.000
     29 H           1.2199    1.4499    0.2252 H.spc      1 <1>        0.000
     30 H          -1.8206    1.8229    0.3117 H.spc      1 <1>        0.000
     31 H          -1.2832    1.6963    3.2709 H.spc      1 <1>        0.000
     32 H          -1.1246    3.0708    2.1944 H.spc      1 <1>        0.000
     33 H           0.9928    1.3227    3.1286 H.spc      1 <1>        0.000
     34 H           1.1513    2.6967    2.0525 H.spc      1 <1>        0.000
     35 H          -0.4573    0.0086   -1.3336 H.spc      1 <1>        0.000
     36 H          -1.5020   -1.2290   -0.5448 H.spc      1 <1>        0.000
     37 H           0.5874   -2.1698   -1.5500 H.spc      1 <1>        0.000
     38 H           0.4547   -2.4373    0.2265 H.spc      1 <1>        0.000
     39 H           3.4566    0.7958    2.1406 H.spc      1 <1>        0.000
     40 H           3.3557    1.3421    0.4032 H.spc      1 <1>        0.000
     41 H           5.5292   -0.0502    1.0615 H.spc      1 <1>        0.000
     42 H           5.5187   -3.2970    0.4698 H.spc      1 <1>        0.000
     43 H           6.5087   -1.8516    0.0161 H.spc      1 <1>        0.000
@<TRIPOS>BOND
     1    1    2 1  
     2    2    3 1  
     3    3    4 1  
     4    4    5 1  
     5    5    6 1  
     6    6    7 1  
     7    7    8 1  
     8    8    9 1  
     9    9   10 1  
    10   10   11 1  
    11   11   12 1  
    12   12    8 1  
    13   10   13 1  
    14    9   14 1  
    15   14   15 1  
    16   15    6 1  
    17    9   16 1  
    18    7   17 1  
    19   17   18 1  
    20   18   19 2  
    21   19    5 1  
    22   19   20 1  
    23   20    2 1  
    24    5   21 1  
    25    2   22 1  
    26    3   23 1  
    27    3   24 1  
    28    4   25 1  
    29    4   26 1  
    30    6   27 1  
    31    7   28 1  
    32    8   29 1  
    33   10   30 1  
    34   11   31 1  
    35   11   32 1  
    36   12   33 1  
    37   12   34 1  
    38   14   35 1  
    39   14   36 1  
    40   15   37 1  
    41   15   38 1  
    42   17   39 1  
    43   17   40 1  
    44   18   41 1  
    45   20   42 1  
    46   20   43 1  
