# Name:          seed_class_5_382_242/34898
# Creation time: Fri May 21 00:57:18 2010


@<TRIPOS>MOLECULE
seed_class_5_382_242/34898
   15    16     1     1     1
SMALL
USER_CHARGES


@<TRIPOS>ATOM
      1 N           9.0113    1.2813    4.7101 N.pl3      1 <1>        0.000
      2 C           9.9166    2.0289    3.9204 C.ar       1 <1>        0.000
      3 N          10.0206    2.2956    2.6113 N.ar       1 <1>        0.000
      4 C          11.0141    3.0582    2.1348 C.ar       1 <1>        0.000
      5 N          11.9339    3.5764    2.9600 N.ar       1 <1>        0.000
      6 C          11.8883    3.3489    4.2798 C.ar       1 <1>        0.000
      7 C          10.8624    2.5560    4.8078 C.ar       1 <1>        0.000
      8 N          10.5051    2.1172    6.0883 N.ar       1 <1>        0.000
      9 C           9.4183    1.3727    6.0046 C.ar       1 <1>        0.000
     10 N          12.8698    3.9058    5.1333 N.pl3      1 <1>        0.000
     11 H          13.2161    5.2560    4.6665 H.spc      1 <1>        0.000
     12 H          14.0711    3.0587    5.1171 H.spc      1 <1>        0.000
     13 H           7.8411    0.5391    4.2196 H.spc      1 <1>        0.000
     14 H          11.0746    3.2590    1.0652 H.spc      1 <1>        0.000
     15 H           8.9193    0.8997    6.8504 H.spc      1 <1>        0.000
@<TRIPOS>BOND
     1    1    2 ar 
     2    2    3 ar 
     3    3    4 ar 
     4    4    5 ar 
     5    5    6 ar 
     6    6    7 ar 
     7    7    2 ar 
     8    7    8 ar 
     9    8    9 ar 
    10    9    1 ar 
    11    6   10 1  
    12   10   11 1  
    13   10   12 1  
    14    1   13 1  
    15    4   14 1  
    16    9   15 1  
