# Name:          seed_class_4_248_48/38664
# Creation time: Fri May 21 00:57:16 2010


@<TRIPOS>MOLECULE
seed_class_4_248_48/38664
   13    13     1     1     1
SMALL
USER_CHARGES


@<TRIPOS>ATOM
      1 N           4.1035   -1.1942   -2.2155 N.am       1 <1>        0.000
      2 N           3.0116   -0.4599   -1.6065 N.2        1 <1>        0.000
      3 C           2.3081   -0.9310   -0.5938 C.2        1 <1>        0.000
      4 C           2.6124   -2.2883   -0.0062 C.3        1 <1>        0.000
      5 C           3.7711   -3.0735   -0.6484 C.3        1 <1>        0.000
      6 C           4.4798   -2.4001   -1.7992 C.2        1 <1>        0.000
      7 O           5.4145   -2.9726   -2.3574 O.2        1 <1>        0.000
      8 H           1.2078   -0.1191   -0.0275 H.spc      1 <1>        0.000
      9 H           4.6039   -0.7683   -2.9956 H.spc      1 <1>        0.000
     10 H           1.7177   -2.8911   -0.1617 H.spc      1 <1>        0.000
     11 H           2.9067   -2.1095    1.0280 H.spc      1 <1>        0.000
     12 H           3.3317   -3.9847   -1.0543 H.spc      1 <1>        0.000
     13 H           4.5190   -3.2042    0.1337 H.spc      1 <1>        0.000
@<TRIPOS>BOND
     1    1    2 1  
     2    2    3 2  
     3    3    4 1  
     4    4    5 1  
     5    5    6 1  
     6    6    1 am 
     7    6    7 2  
     8    3    8 1  
     9    1    9 1  
    10    4   10 1  
    11    4   11 1  
    12    5   12 1  
    13    5   13 1  
