# Name:          seed_class_5_460_40/34898
# Creation time: Fri May 21 00:57:19 2010


@<TRIPOS>MOLECULE
seed_class_5_460_40/34898
   16    17     1     1     1
SMALL
USER_CHARGES


@<TRIPOS>ATOM
      1 H           1.7772    0.5563   -0.4252 H.spc      1 <1>        0.000
      2 N           0.3090    0.4874   -0.4062 N.am       1 <1>        0.000
      3 C          -0.4834    1.2433   -1.1610 C.2        1 <1>        0.000
      4 C          -1.8885    0.8869   -0.8627 C.ar       1 <1>        0.000
      5 C          -1.8300   -0.1189    0.1094 C.ar       1 <1>        0.000
      6 C          -3.0118   -0.6779    0.6103 C.ar       1 <1>        0.000
      7 C          -4.2521   -0.2310    0.1392 C.ar       1 <1>        0.000
      8 C          -4.3106    0.7747   -0.8329 C.ar       1 <1>        0.000
      9 C          -3.1288    1.3337   -1.3339 C.ar       1 <1>        0.000
     10 C          -0.3894   -0.3385    0.3678 C.2        1 <1>        0.000
     11 O           0.0825   -1.1483    1.1643 O.2        1 <1>        0.000
     12 O          -0.1119    2.0932   -1.9688 O.2        1 <1>        0.000
     13 H          -2.9662   -1.4611    1.3671 H.spc      1 <1>        0.000
     14 H          -5.1722   -0.6661    0.5293 H.spc      1 <1>        0.000
     15 H          -5.2763    1.1226   -1.1997 H.spc      1 <1>        0.000
     16 H          -3.1744    2.1167   -2.0908 H.spc      1 <1>        0.000
@<TRIPOS>BOND
     1    1    2 1  
     2    2    3 am 
     3    3    4 1  
     4    4    5 ar 
     5    5    6 ar 
     6    6    7 ar 
     7    7    8 ar 
     8    8    9 ar 
     9    9    4 ar 
    10    5   10 1  
    11   10    2 am 
    12   10   11 2  
    13    3   12 2  
    14    6   13 1  
    15    7   14 1  
    16    8   15 1  
    17    9   16 1  
