# Name:          seed_class_4_215_76/38664
# Creation time: Fri May 21 00:57:16 2010


@<TRIPOS>MOLECULE
seed_class_4_215_76/38664
   11    11     1     1     1
SMALL
USER_CHARGES


@<TRIPOS>ATOM
      1 H          -0.0708   -0.4277   -0.7207 H.spc      1 <1>        0.000
      2 C          -1.4536   -0.9657   -0.4407 C.3        1 <1>        0.000
      3 O          -1.4830   -2.3948   -0.4845 O.3        1 <1>        0.000
      4 C          -2.8589   -2.7290   -0.6847 C.3        1 <1>        0.000
      5 C          -3.4607   -1.5027   -1.3959 C.3        1 <1>        0.000
      6 O          -2.3926   -0.5528   -1.4371 O.3        1 <1>        0.000
      7 H          -1.8291   -0.4358    0.9424 H.spc      1 <1>        0.000
      8 H          -3.3662   -2.9425    0.2561 H.spc      1 <1>        0.000
      9 H          -2.9745   -3.6382   -1.2748 H.spc      1 <1>        0.000
     10 H          -4.3334   -1.1137   -0.8713 H.spc      1 <1>        0.000
     11 H          -3.8281   -1.7478   -2.3924 H.spc      1 <1>        0.000
@<TRIPOS>BOND
     1    1    2 1  
     2    2    3 1  
     3    3    4 1  
     4    4    5 1  
     5    5    6 1  
     6    6    2 1  
     7    2    7 1  
     8    4    8 1  
     9    4    9 1  
    10    5   10 1  
    11    5   11 1  
