# Name:          seed_class_4_199_112/38664
# Creation time: Fri May 21 00:57:15 2010


@<TRIPOS>MOLECULE
seed_class_4_199_112/38664
   20    20     1     1     1
SMALL
USER_CHARGES


@<TRIPOS>ATOM
      1 H           4.1014   -2.0628    0.6103 H.spc      1 <1>        0.000
      2 C           4.1669   -2.4828    1.9757 C.3        1 <1>        0.000
      3 C           5.6427   -2.6467    2.3843 C.3        1 <1>        0.000
      4 C           6.3917   -1.3022    2.3304 C.3        1 <1>        0.000
      5 C           5.6789   -0.2255    3.1149 C.2        1 <1>        0.000
      6 C           4.2171   -0.1323    2.9059 C.2        1 <1>        0.000
      7 C           3.4611   -1.4387    2.8606 C.3        1 <1>        0.000
      8 C           3.5977    1.0474    2.7644 C.2        1 <1>        0.000
      9 H           2.1330    1.0941    2.5571 H.spc      1 <1>        0.000
     10 C           6.3311    0.5954    3.9494 C.2        1 <1>        0.000
     11 H           7.7074   -1.4768    2.8626 H.spc      1 <1>        0.000
     12 H           3.6638   -3.4414    2.1029 H.spc      1 <1>        0.000
     13 H           6.1201   -3.3376    1.6895 H.spc      1 <1>        0.000
     14 H           5.6796   -3.0234    3.4065 H.spc      1 <1>        0.000
     15 H           6.4345   -0.9845    1.2886 H.spc      1 <1>        0.000
     16 H           2.4738   -1.2469    2.4403 H.spc      1 <1>        0.000
     17 H           3.4031   -1.8344    3.8746 H.spc      1 <1>        0.000
     18 H           4.1726    1.9727    2.8020 H.spc      1 <1>        0.000
     19 H           5.7837    1.3611    4.4992 H.spc      1 <1>        0.000
     20 H           7.4090    0.4975    4.0784 H.spc      1 <1>        0.000
@<TRIPOS>BOND
     1    1    2 1  
     2    2    3 1  
     3    3    4 1  
     4    4    5 1  
     5    5    6 1  
     6    6    7 1  
     7    7    2 1  
     8    6    8 2  
     9    8    9 1  
    10    5   10 2  
    11    4   11 1  
    12    2   12 1  
    13    3   13 1  
    14    3   14 1  
    15    4   15 1  
    16    7   16 1  
    17    7   17 1  
    18    8   18 1  
    19   10   19 1  
    20   10   20 1  
