# Name:          seed_class_5_505_28/34898
# Creation time: Fri May 21 00:57:19 2010


@<TRIPOS>MOLECULE
seed_class_5_505_28/34898
   16    16     1     1     1
SMALL
USER_CHARGES


@<TRIPOS>ATOM
      1 H           2.9342    1.0069    1.2833 H.spc      1 <1>        0.000
      2 N           3.8998    0.8588    2.3816 N.am       1 <1>        0.000
      3 C           3.4687    0.7263    3.6328 C.2        1 <1>        0.000
      4 O           2.2617    0.6912    3.8669 O.2        1 <1>        0.000
      5 C           4.4412    0.6210    4.7434 C.ar       1 <1>        0.000
      6 N           5.6590    0.1044    4.5295 N.ar       1 <1>        0.000
      7 C           6.5494    0.0031    5.5257 C.ar       1 <1>        0.000
      8 N           6.2511    0.4145    6.7656 N.ar       1 <1>        0.000
      9 C           5.0509    0.9404    7.0460 C.ar       1 <1>        0.000
     10 C           4.0977    1.0603    6.0276 C.ar       1 <1>        0.000
     11 H           2.7351    1.6480    6.3068 H.spc      1 <1>        0.000
     12 N           4.7523    1.3668    8.3478 N.pl3      1 <1>        0.000
     13 H           7.9120   -0.5846    5.2464 H.spc      1 <1>        0.000
     14 H           4.9005    0.8576    2.1842 H.spc      1 <1>        0.000
     15 H           5.4501    1.2774    9.0864 H.spc      1 <1>        0.000
     16 H           3.8373    1.7665    8.5563 H.spc      1 <1>        0.000
@<TRIPOS>BOND
     1    1    2 1  
     2    2    3 am 
     3    3    4 2  
     4    3    5 1  
     5    5    6 ar 
     6    6    7 ar 
     7    7    8 ar 
     8    8    9 ar 
     9    9   10 ar 
    10   10    5 ar 
    11   10   11 1  
    12    9   12 1  
    13    7   13 1  
    14    2   14 1  
    15   12   15 1  
    16   12   16 1  
