#	Name:			phenothiazine
#	Creating user name:	becker
#	Creation time:		Thu Dec 19 02:54:59 2002

#	Modifying user name:	zmliu
#	Modification time:	Thu Mar 11 21:16:22 2004

@<TRIPOS>MOLECULE
phenothiazine
   23    25     1     1     0
SMALL
GAST_HUCK


@<TRIPOS>ATOM
      1 C1          2.5213    1.4928   -0.0267 C.ar      1 PHENOTHIAZINE   -0.0104 
      2 C2          3.5857    0.7056    0.4204 C.ar      1 PHENOTHIAZINE   -0.0272 
      3 C3          3.4672   -0.6869    0.4245 C.ar      1 PHENOTHIAZINE   -0.0263 
      4 C4          2.2861   -1.2922   -0.0148 C.ar      1 PHENOTHIAZINE   -0.0002 
      5 N1         -0.0002   -1.0905   -0.9015 N.3       1 PHENOTHIAZINE   -0.1123 
      6 C5         -2.2889   -1.2914   -0.0215 C.ar      1 PHENOTHIAZINE   -0.0002 
      7 C6         -3.4680   -0.6854    0.4227 C.ar      1 PHENOTHIAZINE   -0.0263 
      8 C7         -3.5836    0.7074    0.4241 C.ar      1 PHENOTHIAZINE   -0.0272 
      9 C8         -2.5193    1.4941   -0.0244 C.ar      1 PHENOTHIAZINE   -0.0104 
     10 S1          0.0006    1.8905   -1.0572 S.3       1 PHENOTHIAZINE   -0.0532 
     11 C9          1.3410    0.8873   -0.4672 C.ar      1 PHENOTHIAZINE    0.0572 
     12 C10         1.2154   -0.5056   -0.4597 C.ar      1 PHENOTHIAZINE    0.0896 
     13 C11        -1.2162   -0.5050   -0.4620 C.ar      1 PHENOTHIAZINE    0.0896 
     14 C12        -1.3403    0.8880   -0.4674 C.ar      1 PHENOTHIAZINE    0.0572 
     15 H1          2.6115    2.5743   -0.0322 H.spc     1 PHENOTHIAZINE   -1.0000 
     16 H2          4.5027    1.1748    0.7634 H.spc     1 PHENOTHIAZINE   -1.0000 
     17 H3          4.2947   -1.2992    0.7698 H.spc     1 PHENOTHIAZINE   -1.0000 
     18 H4          2.2132   -2.3749   -0.0052 H.spc     1 PHENOTHIAZINE   -1.0000 
     19 H5         -0.0006   -2.1649   -0.7773 H.spc     1 PHENOTHIAZINE   -1.0000 
     20 H6         -2.2194   -2.3743   -0.0190 H.spc     1 PHENOTHIAZINE   -1.0000 
     21 H7         -4.2959   -1.2974    0.7674 H.spc     1 PHENOTHIAZINE   -1.0000 
     22 H8         -4.4983    1.1771    0.7724 H.spc     1 PHENOTHIAZINE   -1.0000 
     23 H9         -2.6086    2.5757   -0.0288 H.spc     1 PHENOTHIAZINE   -1.0000 
@<TRIPOS>BOND
     1    2    1 ar   
     2    1   11 ar   
     3    3    2 ar   
     4    4    3 ar   
     5   12    4 ar   
     6    5   12 1    
     7   13    5 1    
     8    6    7 ar   
     9    6   13 ar   
    10    7    8 ar   
    11    8    9 ar   
    12    9   14 ar   
    13   11   10 1    
    14   10   14 1    
    15   11   12 ar   
    16   13   14 ar   
    17    1   15 1    
    18    2   16 1    
    19    3   17 1    
    20    4   18 1    
    21    5   19 1    
    22    6   20 1    
    23    7   21 1    
    24    8   22 1    
    25    9   23 1    
@<TRIPOS>SUBSTRUCTURE
     1 PHENOTHIAZINE     6 PERM              0 ****  ****    0 ROOT 
@<TRIPOS>NORMAL
@<TRIPOS>FF_PBC
FORCE_FIELD_SETUP_FEATURE Force Field Setup information
v1.0  0 0.000000 0.000000 0.000000 0.000000 0.000000 0.000000 NONE 2 0 0 0 0 0 0 0 0 0 0 0 0
