# Name:          seed_class_5_577_20/34898
# Creation time: Fri May 21 00:57:20 2010


@<TRIPOS>MOLECULE
seed_class_5_577_20/34898
   16    16     1     1     1
SMALL
USER_CHARGES


@<TRIPOS>ATOM
      1 H          -1.6713   -1.6134    3.5307 H.spc      1 <1>        0.000
      2 N          -2.4579   -2.8370    3.3182 N.am       1 <1>        0.000
      3 C          -2.5013   -3.3988    2.1135 C.2        1 <1>        0.000
      4 O          -1.8544   -2.9153    1.1858 O.2        1 <1>        0.000
      5 C          -3.3279   -4.6058    1.8892 C.ar       1 <1>        0.000
      6 N          -4.0621   -5.1044    2.8932 N.ar       1 <1>        0.000
      7 C          -4.8248   -6.1948    2.7350 C.ar       1 <1>        0.000
      8 C          -4.8794   -6.8550    1.5017 C.ar       1 <1>        0.000
      9 C          -4.1235   -6.3582    0.4331 C.ar       1 <1>        0.000
     10 C          -3.3365   -5.2172    0.6298 C.ar       1 <1>        0.000
     11 O          -2.5854   -4.7062   -0.3957 O.3        1 <1>        0.000
     12 H          -2.9704   -3.2551    4.0947 H.spc      1 <1>        0.000
     13 H          -5.4085   -6.5715    3.5749 H.spc      1 <1>        0.000
     14 H          -5.5006   -7.7417    1.3754 H.spc      1 <1>        0.000
     15 H          -4.1474   -6.8527   -0.5380 H.spc      1 <1>        0.000
     16 H          -2.7091   -5.2448   -1.1807 H.spc      1 <1>        0.000
@<TRIPOS>BOND
     1    1    2 1  
     2    2    3 am 
     3    3    4 2  
     4    3    5 1  
     5    5    6 ar 
     6    6    7 ar 
     7    7    8 ar 
     8    8    9 ar 
     9    9   10 ar 
    10   10    5 ar 
    11   10   11 1  
    12    2   12 1  
    13    7   13 1  
    14    8   14 1  
    15    9   15 1  
    16   11   16 1  
