# Name:          seed_class_5_376_892/34898
# Creation time: Fri May 21 00:57:18 2010


@<TRIPOS>MOLECULE
seed_class_5_376_892/34898
   14    14     1     1     1
SMALL
USER_CHARGES


@<TRIPOS>ATOM
      1 H           4.6813   -0.7494    2.4631 H.spc      1 <1>        0.000
      2 C           6.0602   -1.3641    2.4317 C.ar       1 <1>        0.000
      3 C           7.1910   -0.5429    2.3499 C.ar       1 <1>        0.000
      4 C           8.4694   -1.1129    2.3208 C.ar       1 <1>        0.000
      5 C           8.6169   -2.5041    2.3735 C.ar       1 <1>        0.000
      6 C           7.4861   -3.3253    2.4552 C.ar       1 <1>        0.000
      7 C           6.2077   -2.7554    2.4844 C.ar       1 <1>        0.000
      8 O           9.8679   -3.0618    2.3450 O.3        1 <1>        0.000
      9 O           9.5761   -0.3092    2.2408 O.3        1 <1>        0.000
     10 H           7.0762    0.5403    2.3089 H.spc      1 <1>        0.000
     11 H           7.6010   -4.4085    2.4961 H.spc      1 <1>        0.000
     12 H           5.3272   -3.3948    2.5482 H.spc      1 <1>        0.000
     13 H           9.7919   -4.0178    2.3886 H.spc      1 <1>        0.000
     14 H           9.3012    0.6102    2.2133 H.spc      1 <1>        0.000
@<TRIPOS>BOND
     1    1    2 1  
     2    2    3 ar 
     3    3    4 ar 
     4    4    5 ar 
     5    5    6 ar 
     6    6    7 ar 
     7    7    2 ar 
     8    5    8 1  
     9    4    9 1  
    10    3   10 1  
    11    6   11 1  
    12    7   12 1  
    13    8   13 1  
    14    9   14 1  
