# Name:          seed_class_3_137_25/26467
# Creation time: Fri May 21 00:57:15 2010


@<TRIPOS>MOLECULE
seed_class_3_137_25/26467
   10     9     1     1     1
SMALL
USER_CHARGES


@<TRIPOS>ATOM
      1 H           6.9990    0.1552    2.2081 H.spc      1 <1>        0.000
      2 C           5.9031   -0.7353    1.6731 C.2        1 <1>        0.000
      3 O           5.0047   -1.1209    2.4195 O.2        1 <1>        0.000
      4 N           5.9093   -1.1027    0.3949 N.am       1 <1>        0.000
      5 N           4.8880   -1.9032   -0.1032 N.am       1 <1>        0.000
      6 C           4.8996   -2.2791   -1.3789 C.2        1 <1>        0.000
      7 O           5.8274   -1.9397   -2.1116 O.2        1 <1>        0.000
      8 H           3.7739   -3.1226   -1.9278 H.spc      1 <1>        0.000
      9 H           6.6636   -0.7970   -0.2199 H.spc      1 <1>        0.000
     10 H           4.1296   -2.2024    0.5097 H.spc      1 <1>        0.000
@<TRIPOS>BOND
     1    1    2 1  
     2    2    3 2  
     3    2    4 am 
     4    4    5 1  
     5    5    6 am 
     6    6    7 2  
     7    8    6 1  
     8    4    9 1  
     9    5   10 1  
