# Name:          seed_class_5_420_72/34898
# Creation time: Fri May 21 00:57:18 2010


@<TRIPOS>MOLECULE
seed_class_5_420_72/34898
   27    29     1     1     1
SMALL
USER_CHARGES


@<TRIPOS>ATOM
      1 N          -4.4987    1.6956   -3.0604 N.pl3      1 <1>        0.000
      2 N          -4.0237    3.0066   -3.4580 N.ar       1 <1>        0.000
      3 N          -4.0663    3.7662   -2.4662 N.ar       1 <1>        0.000
      4 N          -4.5733    3.0174   -1.3327 N.ar       1 <1>        0.000
      5 C          -4.8162    1.7859   -1.7411 C.ar       1 <1>        0.000
      6 C          -5.3456    0.6869   -0.9030 C.ar       1 <1>        0.000
      7 C          -4.4672   -0.1200   -0.1700 C.ar       1 <1>        0.000
      8 C          -4.9680   -1.1596    0.6227 C.ar       1 <1>        0.000
      9 C          -6.3473   -1.3923    0.6824 C.ar       1 <1>        0.000
     10 C          -7.2257   -0.5855   -0.0507 C.ar       1 <1>        0.000
     11 C          -6.7249    0.4541   -0.8434 C.ar       1 <1>        0.000
     12 C          -3.0092    0.1261   -0.2330 C.ar       1 <1>        0.000
     13 C          -2.4006    0.9700    0.7037 C.ar       1 <1>        0.000
     14 C          -1.0213    1.2028    0.6441 C.ar       1 <1>        0.000
     15 C          -0.2507    0.5917   -0.3523 C.ar       1 <1>        0.000
     16 C          -0.8594   -0.2522   -1.2890 C.ar       1 <1>        0.000
     17 C          -2.2386   -0.4850   -1.2294 C.ar       1 <1>        0.000
     18 H           1.2369    0.8427   -0.4166 H.spc      1 <1>        0.000
     19 H          -4.5788    0.8692   -3.6529 H.spc      1 <1>        0.000
     20 H          -4.2841   -1.7878    1.1934 H.spc      1 <1>        0.000
     21 H          -6.7372   -2.2016    1.2997 H.spc      1 <1>        0.000
     22 H          -8.2995   -0.7668   -0.0043 H.spc      1 <1>        0.000
     23 H          -7.4088    1.0823   -1.4142 H.spc      1 <1>        0.000
     24 H          -3.0006    1.4458    1.4794 H.spc      1 <1>        0.000
     25 H          -0.5474    1.8598    1.3734 H.spc      1 <1>        0.000
     26 H          -0.2594   -0.7280   -2.0647 H.spc      1 <1>        0.000
     27 H          -2.7124   -1.1420   -1.9587 H.spc      1 <1>        0.000
@<TRIPOS>BOND
     1    1    2 ar 
     2    2    3 ar 
     3    3    4 ar 
     4    4    5 ar 
     5    5    1 ar 
     6    5    6 1  
     7    6    7 ar 
     8    7    8 ar 
     9    8    9 ar 
    10    9   10 ar 
    11   10   11 ar 
    12   11    6 ar 
    13    7   12 1  
    14   12   13 ar 
    15   13   14 ar 
    16   14   15 ar 
    17   15   16 ar 
    18   16   17 ar 
    19   17   12 ar 
    20   15   18 1  
    21    1   19 1  
    22    8   20 1  
    23    9   21 1  
    24   10   22 1  
    25   11   23 1  
    26   13   24 1  
    27   14   25 1  
    28   16   26 1  
    29   17   27 1  
