# Name:          seed_class_5_551_22/34898
# Creation time: Fri May 21 00:57:20 2010


@<TRIPOS>MOLECULE
seed_class_5_551_22/34898
   18    19     1     1     1
SMALL
USER_CHARGES


@<TRIPOS>ATOM
      1 S          -9.7408   -5.5542   -1.5835 S.3        1 <1>        0.000
      2 C          -8.3957   -4.4240   -1.3684 C.ar       1 <1>        0.000
      3 N          -8.7918   -3.5951   -0.4205 N.ar       1 <1>        0.000
      4 C         -10.0629   -3.7960    0.1310 C.ar       1 <1>        0.000
      5 C         -10.7789   -4.8206   -0.3518 C.ar       1 <1>        0.000
      6 C         -10.5914   -2.9170    1.1980 C.ar       1 <1>        0.000
      7 S         -11.5319   -1.4306    1.0009 S.3        1 <1>        0.000
      8 C         -11.6980   -1.1028    2.7324 C.ar       1 <1>        0.000
      9 C         -11.0498   -2.1099    3.3335 C.ar       1 <1>        0.000
     10 N         -10.4634   -3.0720    2.5026 N.ar       1 <1>        0.000
     11 C         -10.9582   -2.2008    4.8079 C.2        1 <1>        0.000
     12 O         -11.4841   -1.3395    5.5111 O.2        1 <1>        0.000
     13 N         -10.3071   -3.2139    5.3724 N.am       1 <1>        0.000
     14 H          -7.0798   -4.4109   -2.1089 H.spc      1 <1>        0.000
     15 H         -11.7793   -5.1331   -0.0523 H.spc      1 <1>        0.000
     16 H         -12.2135   -0.2668    3.2051 H.spc      1 <1>        0.000
     17 H         -10.2439   -3.2766    6.3885 H.spc      1 <1>        0.000
     18 H          -9.8710   -3.9281    4.7892 H.spc      1 <1>        0.000
@<TRIPOS>BOND
     1    1    2 ar 
     2    2    3 ar 
     3    3    4 ar 
     4    4    5 ar 
     5    5    1 ar 
     6    4    6 1  
     7    6    7 ar 
     8    7    8 ar 
     9    8    9 ar 
    10    9   10 ar 
    11   10    6 ar 
    12    9   11 1  
    13   11   12 2  
    14   11   13 am 
    15    2   14 1  
    16    5   15 1  
    17    8   16 1  
    18   13   17 1  
    19   13   18 1  
