#	Name:			1-benzothiophene
#	Creating user name:	becker
#	Creation time:		Thu Dec 19 02:54:37 2002

#	Modifying user name:	zmliu
#	Modification time:	Thu Mar 11 17:13:09 2004

@<TRIPOS>MOLECULE
1-benzothiophene
   15    16     1     1     0
SMALL
GAST_HUCK


@<TRIPOS>ATOM
      1 S1          1.6627    1.9569    0.0026 S.3       1 BENZOTHIOPHENE   -0.0266 
      2 C1          2.6516    0.4515   -0.0009 C.2       1 BENZOTHIOPHENE    0.0594 
      3 C2          1.9619   -0.6966   -0.0012 C.2       1 BENZOTHIOPHENE   -0.0180 
      4 C3         -0.5706   -1.3685    0.0022 C.ar      1 BENZOTHIOPHENE   -0.0177 
      5 C4         -1.8816   -0.8778   -0.0001 C.ar      1 BENZOTHIOPHENE   -0.0163 
      6 C5         -2.1278    0.5020   -0.0020 C.ar      1 BENZOTHIOPHENE   -0.0150 
      7 C6         -1.0688    1.4179    0.0012 C.ar      1 BENZOTHIOPHENE   -0.0005 
      8 C7          0.2358    0.9213    0.0017 C.ar      1 BENZOTHIOPHENE    0.0466 
      9 C8          0.4758   -0.4454    0.0010 C.ar      1 BENZOTHIOPHENE   -0.0119 
     10 H1          3.7406    0.4842   -0.0026 H.spc     1 BENZOTHIOPHENE   -1.0000 
     11 H2          2.4101   -1.6898   -0.0031 H.spc     1 BENZOTHIOPHENE   -1.0000 
     12 H3         -0.3690   -2.4344    0.0047 H.spc     1 BENZOTHIOPHENE   -1.0000 
     13 H4         -2.7149   -1.5737   -0.0005 H.spc     1 BENZOTHIOPHENE   -1.0000 
     14 H5         -3.1508    0.8656   -0.0061 H.spc     1 BENZOTHIOPHENE   -1.0000 
     15 H6         -1.2549    2.4868    0.0031 H.spc     1 BENZOTHIOPHENE   -1.0000 
@<TRIPOS>BOND
     1    2    1 1    
     2    1    8 1    
     3    3    2 2    
     4    9    3 1    
     5    4    5 ar   
     6    4    9 ar   
     7    5    6 ar   
     8    6    7 ar   
     9    7    8 ar   
    10    8    9 ar   
    11    2   10 1    
    12    3   11 1    
    13    4   12 1    
    14    5   13 1    
    15    6   14 1    
    16    7   15 1    
@<TRIPOS>SUBSTRUCTURE
     1 BENZOTHIOPHENE     4 PERM              0 ****  ****    0 ROOT 
@<TRIPOS>NORMAL
@<TRIPOS>FF_PBC
FORCE_FIELD_SETUP_FEATURE Force Field Setup information
v1.0  0 0.000000 0.000000 0.000000 0.000000 0.000000 0.000000 NONE 2 0 0 0 0 0 0 0 0 0 0 0 0
