# Name:          seed_class_5_427_64/34898
# Creation time: Fri May 21 00:57:18 2010


@<TRIPOS>MOLECULE
seed_class_5_427_64/34898
   17    18     1     1     1
SMALL
USER_CHARGES


@<TRIPOS>ATOM
      1 H          -1.0042    2.5088    0.6846 H.spc      1 <1>        0.000
      2 O          -0.2982    1.5495   -0.1067 O.3        1 <1>        0.000
      3 C           1.0702    1.5440   -0.0414 C.ar       1 <1>        0.000
      4 C           1.7237    0.7165    0.8796 C.ar       1 <1>        0.000
      5 C           3.1221    0.7109    0.9464 C.ar       1 <1>        0.000
      6 C           3.8670    1.5327    0.0921 C.ar       1 <1>        0.000
      7 N           5.2331    1.3131    0.3883 N.pl3      1 <1>        0.000
      8 C           5.3318    0.3931    1.3850 C.ar       1 <1>        0.000
      9 C           4.1148   -0.0136    1.7710 C.ar       1 <1>        0.000
     10 H           3.8117   -1.0258    2.8498 H.spc      1 <1>        0.000
     11 C           3.2135    2.3602   -0.8289 C.ar       1 <1>        0.000
     12 C           1.8151    2.3658   -0.8956 C.ar       1 <1>        0.000
     13 H           1.1437    0.0766    1.5446 H.spc      1 <1>        0.000
     14 H           6.0190    1.7719   -0.0725 H.spc      1 <1>        0.000
     15 H           6.2698    0.0364    1.8104 H.spc      1 <1>        0.000
     16 H           3.7934    3.0001   -1.4940 H.spc      1 <1>        0.000
     17 H           1.3063    3.0100   -1.6126 H.spc      1 <1>        0.000
@<TRIPOS>BOND
     1    1    2 1  
     2    2    3 1  
     3    3    4 ar 
     4    4    5 ar 
     5    5    6 ar 
     6    6    7 ar 
     7    7    8 ar 
     8    8    9 ar 
     9    9    5 ar 
    10    9   10 1  
    11    6   11 ar 
    12   11   12 ar 
    13   12    3 ar 
    14    4   13 1  
    15    7   14 1  
    16    8   15 1  
    17   11   16 1  
    18   12   17 1  
