# Name:          seed_class_4_296_32/38664
# Creation time: Fri May 21 00:57:17 2010


@<TRIPOS>MOLECULE
seed_class_4_296_32/38664
   29    32     1     1     1
SMALL
USER_CHARGES


@<TRIPOS>ATOM
      1 O           4.8068   -0.8605   -1.9136 O.3        1 <1>        0.000
      2 C           5.7790   -1.1534   -0.9066 C.3        1 <1>        0.000
      3 O           5.5311   -0.1803    0.1115 O.3        1 <1>        0.000
      4 C           4.2066    0.1506   -0.0024 C.ar       1 <1>        0.000
      5 C           3.7571   -0.2716   -1.2593 C.ar       1 <1>        0.000
      6 C           2.4264   -0.0543   -1.6361 C.ar       1 <1>        0.000
      7 C           1.5452    0.5853   -0.7561 C.ar       1 <1>        0.000
      8 C           1.9947    1.0075    0.5007 C.ar       1 <1>        0.000
      9 C           3.3254    0.7902    0.8776 C.ar       1 <1>        0.000
     10 C           1.0835    1.7014    1.4848 C.3        1 <1>        0.000
     11 C          -0.4121    1.5563    1.1475 C.3        1 <1>        0.000
     12 C          -0.6487    1.8200   -0.3512 C.3        1 <1>        0.000
     13 C           0.1200    0.7969   -1.2079 C.3        1 <1>        0.000
     14 H          -0.6159   -0.5216   -1.2125 H.spc      1 <1>        0.000
     15 C          -2.1107    2.1729   -0.4863 C.2        1 <1>        0.000
     16 O          -2.6153    2.4204    0.7412 O.3        1 <1>        0.000
     17 C          -1.6271    2.2738    1.7644 C.3        1 <1>        0.000
     18 O          -2.7341    2.2258   -1.5337 O.2        1 <1>        0.000
     19 H           6.7981   -1.0986   -1.2895 H.spc      1 <1>        0.000
     20 H           5.6899   -2.1732   -0.5322 H.spc      1 <1>        0.000
     21 H           2.0764   -0.3831   -2.6146 H.spc      1 <1>        0.000
     22 H           3.6753    1.1190    1.8561 H.spc      1 <1>        0.000
     23 H           1.3230    2.7645    1.4587 H.spc      1 <1>        0.000
     24 H           1.2449    1.2419    2.4600 H.spc      1 <1>        0.000
     25 H          -0.4504    0.5756    1.6216 H.spc      1 <1>        0.000
     26 H          -0.1929    2.6898   -0.8243 H.spc      1 <1>        0.000
     27 H           0.1704    1.2094   -2.2156 H.spc      1 <1>        0.000
     28 H          -2.0270    1.6933    2.5958 H.spc      1 <1>        0.000
     29 H          -1.3340    3.2504    2.1496 H.spc      1 <1>        0.000
@<TRIPOS>BOND
     1    1    2 1  
     2    2    3 1  
     3    3    4 1  
     4    4    5 ar 
     5    5    1 1  
     6    5    6 ar 
     7    6    7 ar 
     8    7    8 ar 
     9    8    9 ar 
    10    9    4 ar 
    11    8   10 1  
    12   10   11 1  
    13   11   12 1  
    14   12   13 1  
    15   13    7 1  
    16   13   14 1  
    17   12   15 1  
    18   15   16 1  
    19   16   17 1  
    20   17   11 1  
    21   15   18 2  
    22    2   19 1  
    23    2   20 1  
    24    6   21 1  
    25    9   22 1  
    26   10   23 1  
    27   10   24 1  
    28   11   25 1  
    29   12   26 1  
    30   13   27 1  
    31   17   28 1  
    32   17   29 1  
