# Name:          seed_class_4_182_170/38664
# Creation time: Fri May 21 00:57:15 2010


@<TRIPOS>MOLECULE
seed_class_4_182_170/38664
    8     8     1     1     1
SMALL
USER_CHARGES


@<TRIPOS>ATOM
      1 H           3.3635   -0.1653   -0.6707 H.spc      1 <1>        0.000
      2 N           3.8325   -1.0889   -1.5520 N.pl3      1 <1>        0.000
      3 C           3.2826   -1.0746   -2.8635 C.3        1 <1>        0.000
      4 C           2.9631   -2.1609   -1.8951 C.3        1 <1>        0.000
      5 H           3.6045   -0.9522   -3.8977 H.spc      1 <1>        0.000
      6 H           2.7730   -0.3914   -3.5429 H.spc      1 <1>        0.000
      7 H           2.9288   -3.2494   -1.8497 H.spc      1 <1>        0.000
      8 H           2.0974   -2.6887   -1.4950 H.spc      1 <1>        0.000
@<TRIPOS>BOND
     1    1    2 1  
     2    2    3 1  
     3    3    4 1  
     4    4    2 1  
     5    3    5 1  
     6    3    6 1  
     7    4    7 1  
     8    4    8 1  
