# Name:          seed_class_4_368_20/38664
# Creation time: Fri May 21 00:57:18 2010


@<TRIPOS>MOLECULE
seed_class_4_368_20/38664
   25    27     1     1     1
SMALL
USER_CHARGES


@<TRIPOS>ATOM
      1 O           0.6947    2.1032    2.5087 O.3        1 <1>        0.000
      2 C           0.8792    3.4269    3.0173 C.3        1 <1>        0.000
      3 C           1.8244    3.4012    4.2329 C.3        1 <1>        0.000
      4 C           3.1360    2.7402    3.8826 C.2        1 <1>        0.000
      5 C           3.0548    1.7500    2.7856 C.ar       1 <1>        0.000
      6 C           1.8477    1.4634    2.1369 C.ar       1 <1>        0.000
      7 C           1.8153    0.5193    1.1036 C.ar       1 <1>        0.000
      8 C           2.9900   -0.1381    0.7190 C.ar       1 <1>        0.000
      9 C           4.1970    0.1486    1.3676 C.ar       1 <1>        0.000
     10 C           4.2294    1.0927    2.4009 C.ar       1 <1>        0.000
     11 H           5.4107    1.3732    3.0357 H.spc      1 <1>        0.000
     12 C           5.3717   -0.5087    0.9829 C.ar       1 <1>        0.000
     13 C           5.3393   -1.4528   -0.0504 C.ar       1 <1>        0.000
     14 C           4.1322   -1.7395   -0.6990 C.ar       1 <1>        0.000
     15 C           2.9576   -1.0821   -0.3143 C.ar       1 <1>        0.000
     16 H           4.1005   -2.6633   -1.7102 H.spc      1 <1>        0.000
     17 H           6.5530   -0.2282    1.6177 H.spc      1 <1>        0.000
     18 H           0.5392    0.2163    0.4179 H.spc      1 <1>        0.000
     19 O           4.1882    3.0036    4.4627 O.2        1 <1>        0.000
     20 H           1.4173    4.2723    1.9972 H.spc      1 <1>        0.000
     21 H          -0.4669    4.0254    3.4154 H.spc      1 <1>        0.000
     22 H           1.3496    2.8346    5.0339 H.spc      1 <1>        0.000
     23 H           2.0214    4.4268    4.5451 H.spc      1 <1>        0.000
     24 H           6.2539   -1.9646   -0.3499 H.spc      1 <1>        0.000
     25 H           2.0178   -1.3053   -0.8193 H.spc      1 <1>        0.000
@<TRIPOS>BOND
     1    1    2 1  
     2    2    3 1  
     3    3    4 1  
     4    4    5 1  
     5    5    6 ar 
     6    6    1 1  
     7    6    7 ar 
     8    7    8 ar 
     9    8    9 ar 
    10    9   10 ar 
    11   10    5 ar 
    12   10   11 1  
    13    9   12 ar 
    14   12   13 ar 
    15   13   14 ar 
    16   14   15 ar 
    17   15    8 ar 
    18   14   16 1  
    19   12   17 1  
    20    7   18 1  
    21    4   19 2  
    22    2   20 1  
    23    2   21 1  
    24    3   22 1  
    25    3   23 1  
    26   13   24 1  
    27   15   25 1  
