# Name:          seed_class_5_556_21/34898
# Creation time: Fri May 21 00:57:20 2010


@<TRIPOS>MOLECULE
seed_class_5_556_21/34898
   12    12     1     1     1
SMALL
USER_CHARGES


@<TRIPOS>ATOM
      1 H           1.4686   -1.1817   -2.1812 H.spc      1 <1>        0.000
      2 C           1.9155   -0.1732   -1.1501 C.2        1 <1>        0.000
      3 C           1.7727    1.1318   -1.4187 C.2        1 <1>        0.000
      4 C           2.2034    2.1393   -0.4237 C.2        1 <1>        0.000
      5 C           2.7850    1.6630    0.8512 C.2        1 <1>        0.000
      6 C           2.9226    0.3551    1.1082 C.2        1 <1>        0.000
      7 C           2.4956   -0.6615    0.1210 C.2        1 <1>        0.000
      8 O           2.6178   -1.8642    0.3478 O.2        1 <1>        0.000
      9 H           3.5211   -0.0873    2.4221 H.spc      1 <1>        0.000
     10 H           3.2321    2.6710    1.8829 H.spc      1 <1>        0.000
     11 O           2.0811    3.3420   -0.6506 O.2        1 <1>        0.000
     12 H           1.1741    1.5733   -2.7328 H.spc      1 <1>        0.000
@<TRIPOS>BOND
     1    1    2 1  
     2    2    3 2  
     3    3    4 1  
     4    4    5 1  
     5    5    6 2  
     6    6    7 1  
     7    7    2 1  
     8    7    8 2  
     9    6    9 1  
    10    5   10 1  
    11    4   11 2  
    12    3   12 1  
