# Name:          seed_class_4_197_123/38664
# Creation time: Fri May 21 00:57:15 2010


@<TRIPOS>MOLECULE
seed_class_4_197_123/38664
   11    11     1     1     1
SMALL
USER_CHARGES


@<TRIPOS>ATOM
      1 N          -0.9958   -2.1208    1.9925 N.pl3      1 <1>        0.000
      2 C          -0.7531   -3.5685    1.9139 C.3        1 <1>        0.000
      3 C          -2.1857   -4.1198    1.7895 C.3        1 <1>        0.000
      4 N          -2.9660   -2.9571    1.3419 N.2        1 <1>        0.000
      5 C          -2.2324   -1.8691    1.4855 C.2        1 <1>        0.000
      6 H          -2.7074   -0.5131    1.1306 H.spc      1 <1>        0.000
      7 H          -0.3485   -1.4252    2.3633 H.spc      1 <1>        0.000
      8 H          -0.2083   -3.9646    2.7709 H.spc      1 <1>        0.000
      9 H          -0.1040   -3.8557    1.0867 H.spc      1 <1>        0.000
     10 H          -2.5558   -4.5341    2.7273 H.spc      1 <1>        0.000
     11 H          -2.2510   -4.9578    1.0955 H.spc      1 <1>        0.000
@<TRIPOS>BOND
     1    1    2 1  
     2    2    3 1  
     3    3    4 1  
     4    4    5 2  
     5    5    1 1  
     6    5    6 1  
     7    1    7 1  
     8    2    8 1  
     9    2    9 1  
    10    3   10 1  
    11    3   11 1  
