# Name:          seed_class_4_267_40/38664
# Creation time: Fri May 21 00:57:16 2010


@<TRIPOS>MOLECULE
seed_class_4_267_40/38664
   17    18     1     1     1
SMALL
USER_CHARGES


@<TRIPOS>ATOM
      1 N           0.4172   -0.4001    1.7182 N.am       1 <1>        0.000
      2 C           0.7938    0.9545    1.5586 C.ar       1 <1>        0.000
      3 C           1.1308    1.4993    2.8034 C.ar       1 <1>        0.000
      4 C           1.5377    2.8357    2.8956 C.ar       1 <1>        0.000
      5 C           1.6076    3.6273    1.7430 C.ar       1 <1>        0.000
      6 C           1.2705    3.0824    0.4982 C.ar       1 <1>        0.000
      7 C           0.8636    1.7460    0.4060 C.ar       1 <1>        0.000
      8 C           0.9483    0.3932    3.8150 C.3        1 <1>        0.000
      9 C           0.4845   -0.7835    2.9900 C.2        1 <1>        0.000
     10 O           0.2154   -1.9039    3.4202 O.2        1 <1>        0.000
     11 H          -0.0315    0.7551    4.8494 H.spc      1 <1>        0.000
     12 H           2.2456    0.0869    4.5618 H.spc      1 <1>        0.000
     13 H           0.0023   -1.2765    0.6134 H.spc      1 <1>        0.000
     14 H           1.8001    3.2599    3.8648 H.spc      1 <1>        0.000
     15 H           1.9244    4.6678    1.8148 H.spc      1 <1>        0.000
     16 H           1.3249    3.6987   -0.3992 H.spc      1 <1>        0.000
     17 H           0.6012    1.3218   -0.5632 H.spc      1 <1>        0.000
@<TRIPOS>BOND
     1    1    2 1  
     2    2    3 ar 
     3    3    4 ar 
     4    4    5 ar 
     5    5    6 ar 
     6    6    7 ar 
     7    7    2 ar 
     8    3    8 1  
     9    8    9 1  
    10    9    1 am 
    11    9   10 2  
    12    8   11 1  
    13    8   12 1  
    14    1   13 1  
    15    4   14 1  
    16    5   15 1  
    17    6   16 1  
    18    7   17 1  
