# Name:          seed_class_5_433_58/34898
# Creation time: Fri May 21 00:57:18 2010


@<TRIPOS>MOLECULE
seed_class_5_433_58/34898
   12    12     1     1     1
SMALL
USER_CHARGES


@<TRIPOS>ATOM
      1 F           3.8729    1.0125    4.3627 F          1 <1>        0.000
      2 C           3.8980    0.3804    3.1702 C.2        1 <1>        0.000
      3 C           2.8212    0.3637    2.3728 C.2        1 <1>        0.000
      4 N           2.8605   -0.2770    1.1739 N.am       1 <1>        0.000
      5 C           3.9635   -0.8990    0.7671 C.2        1 <1>        0.000
      6 N           5.0635   -0.9172    1.5144 N.am       1 <1>        0.000
      7 C           5.1158   -0.3172    2.7002 C.2        1 <1>        0.000
      8 O           6.1393   -0.3413    3.3819 O.2        1 <1>        0.000
      9 O           3.9663   -1.4785   -0.3404 O.2        1 <1>        0.000
     10 H           1.6671   -0.2822    0.3155 H.spc      1 <1>        0.000
     11 H           1.9071    0.8673    2.6874 H.spc      1 <1>        0.000
     12 H           5.8899   -1.4048    1.1685 H.spc      1 <1>        0.000
@<TRIPOS>BOND
     1    1    2 1  
     2    2    3 2  
     3    3    4 1  
     4    4    5 am 
     5    5    6 am 
     6    6    7 am 
     7    7    2 1  
     8    7    8 2  
     9    5    9 2  
    10    4   10 1  
    11    3   11 1  
    12    6   12 1  
