# Name:          seed_class_4_181_176/38664
# Creation time: Fri May 21 00:57:15 2010


@<TRIPOS>MOLECULE
seed_class_4_181_176/38664
   14    14     1     1     1
SMALL
USER_CHARGES


@<TRIPOS>ATOM
      1 H          -1.4413    1.0756    0.8123 H.spc      1 <1>        0.000
      2 N          -2.7557    0.8955    0.5130 N.pl3      1 <1>        0.000
      3 C          -3.0400    1.2877   -0.8749 C.3        1 <1>        0.000
      4 C          -4.3080    0.5148   -1.2828 C.3        1 <1>        0.000
      5 C          -4.4067   -0.6317   -0.2594 C.3        1 <1>        0.000
      6 C          -3.1244   -0.5256    0.5868 C.3        1 <1>        0.000
      7 H          -4.4372   -1.9747   -0.9875 H.spc      1 <1>        0.000
      8 H          -2.2036    1.0491   -1.5319 H.spc      1 <1>        0.000
      9 H          -3.1897    2.3641   -0.9583 H.spc      1 <1>        0.000
     10 H          -4.2494    0.1448   -2.3064 H.spc      1 <1>        0.000
     11 H          -5.1943    1.1492   -1.2723 H.spc      1 <1>        0.000
     12 H          -5.3085   -0.5643    0.3491 H.spc      1 <1>        0.000
     13 H          -2.3321   -1.1746    0.2136 H.spc      1 <1>        0.000
     14 H          -3.2825   -0.8553    1.6137 H.spc      1 <1>        0.000
@<TRIPOS>BOND
     1    1    2 1  
     2    2    3 1  
     3    3    4 1  
     4    4    5 1  
     5    5    6 1  
     6    6    2 1  
     7    5    7 1  
     8    3    8 1  
     9    3    9 1  
    10    4   10 1  
    11    4   11 1  
    12    5   12 1  
    13    6   13 1  
    14    6   14 1  
