#	Name:			1,4-dioxane
#	Creating user name:	becker
#	Creation time:		Thu Dec 19 02:55:01 2002

#	Modifying user name:	zmliu
#	Modification time:	Thu Mar 11 17:11:11 2004

@<TRIPOS>MOLECULE
1,4-dioxane
   14    14     1     1     0
SMALL
GAST_HUCK


@<TRIPOS>ATOM
      1 O1          0.0003    1.2168   -0.7185 O.3       1 DIOXANE    -0.3484 
      2 C1          1.1918    0.7728   -0.0455 C.3       1 DIOXANE     0.1742 
      3 C2          1.1918   -0.7727    0.0455 C.3       1 DIOXANE     0.1742 
      4 O2          0.0003   -1.2168    0.7185 O.3       1 DIOXANE    -0.3484 
      5 C3         -1.1917   -0.7728    0.0462 C.3       1 DIOXANE     0.1742 
      6 C4         -1.1917    0.7727   -0.0462 C.3       1 DIOXANE     0.1742 
      7 H1          1.2476    1.2131    0.9636 H.spc     1 DIOXANE    -1.0000 
      8 H2          2.0643    1.1181   -0.6219 H.spc     1 DIOXANE    -1.0000 
      9 H3          2.0645   -1.1182    0.6219 H.spc     1 DIOXANE    -1.0000 
     10 H4          1.2477   -1.2130   -0.9636 H.spc     1 DIOXANE    -1.0000 
     11 H5         -2.0639   -1.1175    0.6236 H.spc     1 DIOXANE    -1.0000 
     12 H6         -1.2485   -1.2140   -0.9624 H.spc     1 DIOXANE    -1.0000 
     13 H7         -2.0640    1.1175   -0.6236 H.spc     1 DIOXANE    -1.0000 
     14 H8         -1.2485    1.2140    0.9624 H.spc     1 DIOXANE    -1.0000 
@<TRIPOS>BOND
     1    1    2 1    
     2    1    6 1    
     3    2    3 1    
     4    3    4 1    
     5    4    5 1    
     6    5    6 1    
     7    2    7 1    
     8    2    8 1    
     9    3    9 1    
    10    3   10 1    
    11    5   11 1    
    12    5   12 1    
    13    6   13 1    
    14    6   14 1    
@<TRIPOS>SUBSTRUCTURE
     1 DIOXANE     1 PERM              0 ****  ****    0 ROOT 
@<TRIPOS>NORMAL
@<TRIPOS>FF_PBC
FORCE_FIELD_SETUP_FEATURE Force Field Setup information
v1.0  0 0.000000 0.000000 0.000000 0.000000 0.000000 0.000000 NONE 2 0 0 0 0 0 0 0 0 0 0 0 0
