# Name:          seed_class_2_78_20/95646
# Creation time: Fri May 21 00:57:14 2010


@<TRIPOS>MOLECULE
seed_class_2_78_20/95646
   12    12     1     1     1
SMALL
USER_CHARGES


@<TRIPOS>ATOM
      1 H           2.6748   -1.0513    1.2255 H.spc      1 <1>        0.000
      2 N           4.0711   -0.9796    1.0076 N.am       1 <1>        0.000
      3 C           4.8870   -1.8167    1.6420 C.2        1 <1>        0.000
      4 N           6.1994   -1.7494    1.4372 N.am       1 <1>        0.000
      5 C           6.6959   -0.8448    0.5980 C.2        1 <1>        0.000
      6 N           5.8800   -0.0077   -0.0364 N.am       1 <1>        0.000
      7 C           4.5676   -0.0751    0.1685 C.2        1 <1>        0.000
      8 O           3.8008    0.7117   -0.4277 O.2        1 <1>        0.000
      9 H           6.4288    0.9921   -0.9639 H.spc      1 <1>        0.000
     10 O           7.9294   -0.7815    0.4055 O.2        1 <1>        0.000
     11 O           4.4203   -2.6669    2.4307 O.2        1 <1>        0.000
     12 H           6.8251   -2.3915    1.9237 H.spc      1 <1>        0.000
@<TRIPOS>BOND
     1    1    2 1  
     2    2    3 am 
     3    3    4 am 
     4    4    5 am 
     5    5    6 am 
     6    6    7 am 
     7    7    2 am 
     8    7    8 2  
     9    6    9 1  
    10    5   10 2  
    11    3   11 2  
    12    4   12 1  
