# Name:          seed_class_5_441_46/34898
# Creation time: Fri May 21 00:57:19 2010


@<TRIPOS>MOLECULE
seed_class_5_441_46/34898
   22    23     1     1     1
SMALL
USER_CHARGES


@<TRIPOS>ATOM
      1 H           0.0707   -2.9598   -0.9586 H.spc      1 <1>        0.000
      2 C          -1.2620   -2.2665   -0.8063 C.ar       1 <1>        0.000
      3 C          -1.3861   -1.1698    0.0550 C.ar       1 <1>        0.000
      4 C          -2.6218   -0.5269    0.1962 C.ar       1 <1>        0.000
      5 C          -3.7333   -0.9808   -0.5239 C.ar       1 <1>        0.000
      6 C          -3.6092   -2.0776   -1.3851 C.ar       1 <1>        0.000
      7 C          -2.3735   -2.7204   -1.5263 C.ar       1 <1>        0.000
      8 C          -5.0395   -0.3012   -0.3746 C.ar       1 <1>        0.000
      9 C          -6.2077   -1.0567   -0.2177 C.ar       1 <1>        0.000
     10 C          -7.4434   -0.4138   -0.0764 C.ar       1 <1>        0.000
     11 C          -7.5108    0.9844   -0.0922 C.ar       1 <1>        0.000
     12 C          -6.3426    1.7399   -0.2492 C.ar       1 <1>        0.000
     13 C          -5.1070    1.0970   -0.3904 C.ar       1 <1>        0.000
     14 H          -0.5207   -0.8165    0.6157 H.spc      1 <1>        0.000
     15 H          -2.7184    0.3270    0.8668 H.spc      1 <1>        0.000
     16 H          -4.4746   -2.4311   -1.9457 H.spc      1 <1>        0.000
     17 H          -2.2769   -3.5743   -2.1968 H.spc      1 <1>        0.000
     18 H          -6.1552   -2.1454   -0.2056 H.spc      1 <1>        0.000
     19 H          -8.3529   -1.0019    0.0459 H.spc      1 <1>        0.000
     20 H          -8.4728    1.4849    0.0177 H.spc      1 <1>        0.000
     21 H          -6.3951    2.8286   -0.2615 H.spc      1 <1>        0.000
     22 H          -4.1975    1.6852   -0.5126 H.spc      1 <1>        0.000
@<TRIPOS>BOND
     1    1    2 1  
     2    2    3 ar 
     3    3    4 ar 
     4    4    5 ar 
     5    5    6 ar 
     6    6    7 ar 
     7    7    2 ar 
     8    5    8 1  
     9    8    9 ar 
    10    9   10 ar 
    11   10   11 ar 
    12   11   12 ar 
    13   12   13 ar 
    14   13    8 ar 
    15    3   14 1  
    16    4   15 1  
    17    6   16 1  
    18    7   17 1  
    19    9   18 1  
    20   10   19 1  
    21   11   20 1  
    22   12   21 1  
    23   13   22 1  
