#	Name:			SH2
#	Creating user name:	becker
#	Creation time:		Thu Dec 19 02:55:03 2002

#	Modifying user name:	zmliu
#	Modification time:	Thu Mar 11 21:30:25 2004

@<TRIPOS>MOLECULE
SH2
    3     2     1     1     0
SMALL
GAST_HUCK


@<TRIPOS>ATOM
      1 S1          0.0000    0.4453    0.0000 S.3       1 SH2         0.0000 
      2 H1          0.7549   -0.2226    0.0000 H.spc     1 SH2        -1.0000 
      3 H2         -0.7549   -0.2226    0.0000 H.spc     1 SH2        -1.0000 
@<TRIPOS>BOND
     1    1    2 1    
     2    1    3 1    
@<TRIPOS>SUBSTRUCTURE
     1 SH2         1 PERM              0 ****  ****    0 ROOT 
@<TRIPOS>NORMAL
@<TRIPOS>FF_PBC
FORCE_FIELD_SETUP_FEATURE Force Field Setup information
v1.0  0 0.000000 0.000000 0.000000 0.000000 0.000000 0.000000 NONE 2 0 0 0 0 0 0 0 0 0 0 0 0
