# Name:          seed_class_4_293_33/38664
# Creation time: Fri May 21 00:57:17 2010


@<TRIPOS>MOLECULE
seed_class_4_293_33/38664
   14    15     1     1     1
SMALL
USER_CHARGES


@<TRIPOS>ATOM
      1 H          -0.0606    1.7991   -2.8095 H.spc      1 <1>        0.000
      2 C           0.6874    3.0490   -2.4116 C.3        1 <1>        0.000
      3 C          -0.2244    3.9564   -1.5650 C.3        1 <1>        0.000
      4 O          -0.4721    4.5860   -0.3582 O.3        1 <1>        0.000
      5 C           0.5364    5.1558   -1.1148 C.3        1 <1>        0.000
      6 C           1.8160    4.7918   -0.4005 C.2        1 <1>        0.000
      7 C           2.4572    3.5121   -0.7769 C.2        1 <1>        0.000
      8 C           1.9675    2.6763   -1.7028 C.2        1 <1>        0.000
      9 H           3.6108    3.1641   -0.1463 H.spc      1 <1>        0.000
     10 O           2.3041    5.5266    0.4566 O.2        1 <1>        0.000
     11 H           0.9895    3.6886   -3.6545 H.spc      1 <1>        0.000
     12 H          -0.9981    3.3945   -2.0882 H.spc      1 <1>        0.000
     13 H           0.7921    6.1064   -1.5828 H.spc      1 <1>        0.000
     14 H           2.4831    1.7456   -1.9396 H.spc      1 <1>        0.000
@<TRIPOS>BOND
     1    1    2 1  
     2    2    3 1  
     3    3    4 1  
     4    4    5 1  
     5    5    3 1  
     6    5    6 1  
     7    6    7 1  
     8    7    8 2  
     9    8    2 1  
    10    7    9 1  
    11    6   10 2  
    12    2   11 1  
    13    3   12 1  
    14    5   13 1  
    15    8   14 1  
