#	Name:			tetrahydrofuran
#	Creating user name:	becker
#	Creation time:		Thu Dec 19 02:55:04 2002

#	Modifying user name:	zmliu
#	Modification time:	Thu Mar 11 21:33:19 2004

@<TRIPOS>MOLECULE
tetrahydrofuran
   13    13     1     1     0
SMALL
GAST_HUCK


@<TRIPOS>ATOM
      1 O1         -0.0014    1.3098    0.6368 O.3       1 TETRAHYDROFURAN   -0.3538 
      2 C1          1.1273    0.7333   -0.0319 C.3       1 TETRAHYDROFURAN    0.1422 
      3 C2          0.8009   -0.7680    0.1083 C.3       1 TETRAHYDROFURAN    0.0346 
      4 C3         -0.7274   -0.8026   -0.1401 C.3       1 TETRAHYDROFURAN    0.0346 
      5 C4         -1.1754    0.6599    0.1274 C.3       1 TETRAHYDROFURAN    0.1422 
      6 H1          2.0767    1.0191    0.4474 H.spc     1 TETRAHYDROFURAN   -1.0000 
      7 H2          1.1463    1.0383   -1.0917 H.spc     1 TETRAHYDROFURAN   -1.0000 
      8 H3          1.0184   -1.0779    1.1447 H.spc     1 TETRAHYDROFURAN   -1.0000 
      9 H4          1.3772   -1.4028   -0.5846 H.spc     1 TETRAHYDROFURAN   -1.0000 
     10 H5         -1.2259   -1.5243    0.5284 H.spc     1 TETRAHYDROFURAN   -1.0000 
     11 H6         -0.9436   -1.0839   -1.1847 H.spc     1 TETRAHYDROFURAN   -1.0000 
     12 H7         -1.4709    1.1599   -0.8103 H.spc     1 TETRAHYDROFURAN   -1.0000 
     13 H8         -2.0021    0.7393    0.8503 H.spc     1 TETRAHYDROFURAN   -1.0000 
@<TRIPOS>BOND
     1    1    2 1    
     2    1    5 1    
     3    2    3 1    
     4    3    4 1    
     5    4    5 1    
     6    2    6 1    
     7    2    7 1    
     8    3    8 1    
     9    3    9 1    
    10    4   10 1    
    11    4   11 1    
    12    5   12 1    
    13    5   13 1    
@<TRIPOS>SUBSTRUCTURE
     1 TETRAHYDROFURAN     1 PERM              0 ****  ****    0 ROOT 
@<TRIPOS>NORMAL
@<TRIPOS>FF_PBC
FORCE_FIELD_SETUP_FEATURE Force Field Setup information
v1.0  0 0.000000 0.000000 0.000000 0.000000 0.000000 0.000000 NONE 2 0 0 0 0 0 0 0 0 0 0 0 0
