# Name:          seed_class_5_461_40/34898
# Creation time: Fri May 21 00:57:19 2010


@<TRIPOS>MOLECULE
seed_class_5_461_40/34898
   17    17     1     1     1
SMALL
USER_CHARGES


@<TRIPOS>ATOM
      1 N           3.0820   -0.0174   -0.5109 N.am       1 <1>        0.000
      2 C           4.4539   -0.0507   -0.1659 C.ar       1 <1>        0.000
      3 C           5.4283   -0.0633   -1.1711 C.ar       1 <1>        0.000
      4 C           6.7856   -0.0963   -0.8298 C.ar       1 <1>        0.000
      5 C           7.1686   -0.1166    0.5167 C.ar       1 <1>        0.000
      6 C           6.1942   -0.1040    1.5218 C.ar       1 <1>        0.000
      7 C           4.8368   -0.0710    1.1805 C.ar       1 <1>        0.000
      8 O           8.4969   -0.1489    0.8507 O.3        1 <1>        0.000
      9 C           2.4759    1.1486   -0.7156 C.2        1 <1>        0.000
     10 O           3.1001    2.1992   -0.5755 O.2        1 <1>        0.000
     11 H           1.0214    1.1828   -1.1201 H.spc      1 <1>        0.000
     12 H           2.5579   -0.8876   -0.6026 H.spc      1 <1>        0.000
     13 H           5.1301   -0.0474   -2.2194 H.spc      1 <1>        0.000
     14 H           7.5442   -0.1062   -1.6124 H.spc      1 <1>        0.000
     15 H           6.4923   -0.1199    2.5701 H.spc      1 <1>        0.000
     16 H           4.0781   -0.0611    1.9631 H.spc      1 <1>        0.000
     17 H           8.5852   -0.1593    1.8066 H.spc      1 <1>        0.000
@<TRIPOS>BOND
     1    1    2 1  
     2    2    3 ar 
     3    3    4 ar 
     4    4    5 ar 
     5    5    6 ar 
     6    6    7 ar 
     7    7    2 ar 
     8    5    8 1  
     9    1    9 am 
    10    9   10 2  
    11    9   11 1  
    12    1   12 1  
    13    3   13 1  
    14    4   14 1  
    15    6   15 1  
    16    7   16 1  
    17    8   17 1  
