MODEL 1
REMARK VINA RESULT:    -8.136      0.000      0.000
REMARK INTER + INTRA:         -13.791
REMARK INTER:                 -13.606
REMARK INTRA:                  -0.185
REMARK UNBOUND:                -0.185
REMARK  Name = =
REMARK  14 active torsions:
REMARK  status: ('A' for Active; 'I' for Inactive)
REMARK    1  A    between atoms: C_1  and  N_13
REMARK    2  A    between atoms: C_1  and  O_19
REMARK    3  A    between atoms: C_4  and  O_31
REMARK    4  A    between atoms: N_13  and  N_17
REMARK    5  A    between atoms: O_19  and  P_20
REMARK    6  A    between atoms: P_20  and  C_22
REMARK    7  A    between atoms: P_20  and  O_30
REMARK    8  A    between atoms: C_22  and  P_26
REMARK    9  A    between atoms: C_23  and  C_24
REMARK   10  A    between atoms: P_26  and  O_28
REMARK   11  A    between atoms: P_26  and  O_29
REMARK   12  A    between atoms: O_31  and  P_32
REMARK   13  A    between atoms: P_32  and  O_34
REMARK   14  A    between atoms: P_32  and  O_35
REMARK                            x       y       z     vdW  Elec       q    Type
REMARK                         _______ _______ _______ _____ _____    ______ ____
ROOT
ATOM      1  C   UNL     1       0.535  -3.414  28.589  0.00  0.00    +0.205 C 
ATOM      2  C   UNL     1       1.285  -3.190  29.861  0.00  0.00    +0.083 C 
ATOM      3  C   UNL     1       1.349  -4.517  30.506  0.00  0.00    +0.017 C 
ATOM      4  C   UNL     1       1.940  -4.946  31.702  0.00  0.00    +0.145 C 
ATOM      5  C   UNL     1       1.757  -6.314  32.004  0.00  0.00    +0.037 C 
ATOM      6  C   UNL     1       1.067  -7.193  31.222  0.00  0.00    +0.003 C 
ATOM      7  C   UNL     1       0.509  -6.714  30.057  0.00  0.00    -0.000 C 
ATOM      8  C   UNL     1      -0.214  -7.521  29.177  0.00  0.00    -0.000 C 
ATOM      9  C   UNL     1      -0.746  -6.985  28.024  0.00  0.00    -0.000 C 
ATOM     10  C   UNL     1      -0.560  -5.651  27.744  0.00  0.00    -0.000 C 
ATOM     11  C   UNL     1       0.158  -4.817  28.599  0.00  0.00    +0.022 C 
ATOM     12  C   UNL     1       0.665  -5.390  29.731  0.00  0.00    -0.001 C 
ENDROOT
BRANCH   1  13
ATOM     13  N   UNL     1      -0.645  -2.534  28.629  0.00  0.00    -0.139 N 
ATOM     14  C   UNL     1      -1.143  -2.082  27.383  0.00  0.00    +0.319 C 
ATOM     15  O   UNL     1      -2.151  -1.324  27.348  0.00  0.00    -0.251 OA
ATOM     16  N   UNL     1      -0.567  -2.433  26.140  0.00  0.00    -0.312 N 
ATOM     17  H   UNL     1       0.220  -3.022  26.110  0.00  0.00    +0.147 HD
ATOM     18  H   UNL     1      -0.955  -2.087  25.303  0.00  0.00    +0.147 HD
BRANCH  13  19
ATOM     19  N   UNL     1      -1.249  -2.159  29.809  0.00  0.00    +0.056 NA
ATOM     20  O   UNL     1      -2.161  -2.870  30.310  0.00  0.00    -0.078 OA
ENDBRANCH  13  19
ENDBRANCH   1  13
BRANCH   1  21
ATOM     21  O   UNL     1       1.235  -3.018  27.462  0.00  0.00    -0.272 OA
BRANCH  21  22
ATOM     22  P   UNL     1       2.735  -2.371  27.766  0.00  0.00    +0.371 P 
ATOM     23  O   UNL     1       2.651  -1.164  28.677  0.00  0.00    -0.253 OA
BRANCH  22  24
ATOM     24  C   UNL     1       3.373  -1.754  26.184  0.00  0.00    +0.163 C 
ATOM     25  C   UNL     1       4.594  -2.066  25.865  0.00  0.00    +0.060 C 
BRANCH  25  26
ATOM     26  C   UNL     1       5.308  -1.689  24.666  0.00  0.00    +0.235 C 
ATOM     27  O   UNL     1       6.055  -0.688  24.663  0.00  0.00    -0.283 OA
ENDBRANCH  25  26
BRANCH  24  28
ATOM     28  P   UNL     1       2.369  -0.764  25.120  0.00  0.00    +0.367 P 
ATOM     29  O   UNL     1       1.670  -1.638  24.100  0.00  0.00    -0.253 OA
BRANCH  28  30
ATOM     30  O   UNL     1       3.344   0.325  24.275  0.00  0.00    -0.321 OA
ATOM     31  H   UNL     1       4.137  -0.132  23.953  0.00  0.00    +0.220 HD
ENDBRANCH  28  30
BRANCH  28  32
ATOM     32  O   UNL     1       1.204   0.105  25.998  0.00  0.00    -0.321 OA
ATOM     33  H   UNL     1       1.126  -0.268  26.891  0.00  0.00    +0.220 HD
ENDBRANCH  28  32
ENDBRANCH  24  28
ENDBRANCH  22  24
BRANCH  22  34
ATOM     34  O   UNL     1       3.822  -3.490  28.429  0.00  0.00    -0.320 OA
ATOM     35  H   UNL     1       4.550  -3.017  28.862  0.00  0.00    +0.220 HD
ENDBRANCH  22  34
ENDBRANCH  21  22
ENDBRANCH   1  21
BRANCH   4  36
ATOM     36  O   UNL     1       2.641  -4.214  32.566  0.00  0.00    -0.403 OA
BRANCH  36  37
ATOM     37  P   UNL     1       3.058  -4.359  34.149  0.00  0.00    +0.528 P 
ATOM     38  O   UNL     1       2.166  -5.281  34.994  0.00  0.00    -0.216 OA
BRANCH  37  39
ATOM     39  O   UNL     1       3.156  -2.878  35.010  0.00  0.00    -0.293 OA
ATOM     40  H   UNL     1       3.443  -2.173  34.409  0.00  0.00    +0.223 HD
ENDBRANCH  37  39
BRANCH  37  41
ATOM     41  O   UNL     1       4.646  -5.045  34.313  0.00  0.00    -0.293 OA
ATOM     42  H   UNL     1       5.302  -4.332  34.362  0.00  0.00    +0.223 HD
ENDBRANCH  37  41
ENDBRANCH  36  37
ENDBRANCH   4  36
TORSDOF 14
ENDMDL
