REMARK  Name = =
REMARK  8 active torsions:
REMARK  status: ('A' for Active; 'I' for Inactive)
REMARK    1  A    between atoms: N_1  and  N_11
REMARK    2  A    between atoms: C_7  and  S_22
REMARK    3  A    between atoms: C_23  and  S_27
REMARK    4  A    between atoms: C_24  and  S_32
REMARK    5  A    between atoms: S_32  and  P_33
REMARK    6  A    between atoms: P_33  and  O_34
REMARK    7  A    between atoms: P_33  and  O_35
REMARK    8  A    between atoms: P_33  and  O_36
REMARK                            x       y       z     vdW  Elec       q    Type
REMARK                         _______ _______ _______ _____ _____    ______ ____
ROOT
ATOM      1  N   UNL     1      52.172 158.955  29.765  0.00  0.00    -0.199 N 
ATOM      2  C   UNL     1      53.282 158.723  29.066  0.00  0.00    +0.105 A 
ATOM      3  C   UNL     1      54.281 159.635  29.479  0.00  0.00    +0.078 A 
ATOM      4  C   UNL     1      55.507 159.627  28.895  0.00  0.00    +0.019 C 
ATOM      5  C   UNL     1      55.805 158.744  27.898  0.00  0.00    +0.002 C 
ATOM      6  C   UNL     1      54.827 157.854  27.498  0.00  0.00    +0.007 C 
ATOM      7  C   UNL     1      53.568 157.827  28.068  0.00  0.00    +0.038 C 
ATOM      8  N   UNL     1      53.707 160.379  30.432  0.00  0.00    -0.304 N 
ATOM      9  C   UNL     1      52.457 160.005  30.629  0.00  0.00    +0.345 A 
ATOM     10  O   UNL     1      51.625 160.475  31.436  0.00  0.00    -0.245 OA
ATOM     11  H   UNL     1      54.156 161.107  30.920  0.00  0.00    +0.171 HD
ENDROOT
BRANCH   1  12
ATOM     12  N   UNL     1      50.886 158.421  29.734  0.00  0.00    -0.168 N 
ATOM     13  C   UNL     1      50.701 157.082  29.850  0.00  0.00    +0.068 C 
ATOM     14  C   UNL     1      49.415 156.560  29.893  0.00  0.00    +0.015 C 
ATOM     15  C   UNL     1      49.160 155.202  30.034  0.00  0.00    +0.001 C 
ATOM     16  C   UNL     1      50.218 154.344  30.139  0.00  0.00    -0.001 C 
ATOM     17  C   UNL     1      51.498 154.860  30.099  0.00  0.00    -0.007 C 
ATOM     18  C   UNL     1      51.745 156.202  29.957  0.00  0.00    +0.035 C 
ATOM     19  C   UNL     1      48.303 157.393  29.818  0.00  0.00    +0.006 C 
ATOM     20  C   UNL     1      48.512 158.738  29.703  0.00  0.00    +0.060 C 
ATOM     21  C   UNL     1      49.790 159.189  29.667  0.00  0.00    +0.271 C 
ATOM     22  O   UNL     1      49.980 160.445  29.564  0.00  0.00    -0.268 OA
ENDBRANCH   1  12
BRANCH   7  23
ATOM     23  S   UNL     1      52.430 156.533  27.574  0.00  0.00    -0.128 S 
ATOM     24  C   UNL     1      53.358 154.923  27.040  0.00  0.00    +0.101 C 
ATOM     25  C   UNL     1      53.911 155.628  25.815  0.00  0.00    +0.136 C 
ATOM     26  N   UNL     1      52.760 155.961  25.064  0.00  0.00    -0.196 NA
ATOM     27  C   UNL     1      51.829 156.708  25.804  0.00  0.00    +0.143 C 
BRANCH  24  28
ATOM     28  S   UNL     1      52.195 153.871  26.698  0.00  0.00    -0.184 S 
ATOM     29  C   UNL     1      52.030 152.344  27.757  0.00  0.00    +0.147 C 
ATOM     30  N   UNL     1      51.678 151.453  26.943  0.00  0.00    -0.139 NA
ATOM     31  N   UNL     1      51.516 151.778  25.631  0.00  0.00    -0.218 NA
ATOM     32  C   UNL     1      52.392 152.850  25.190  0.00  0.00    +0.125 C 
ATOM     33  H   UNL     1      51.219 154.817  26.754  0.00  0.00    +0.087 HD
ATOM     34  H   UNL     1      50.549 152.070  25.487  0.00  0.00    +0.144 HD
ENDBRANCH  24  28
BRANCH  25  35
ATOM     35  S   UNL     1      55.070 154.586  25.019  0.00  0.00    -0.103 S 
ATOM     36  H   UNL     1      56.258 155.235  24.890  0.00  0.00    +0.104 HD
BRANCH  35  37
ATOM     37  P   UNL     1      55.304 153.015  26.087  0.00  0.00    +0.279 P 
BRANCH  37  38
ATOM     38  O   UNL     1      56.911 152.548  26.148  0.00  0.00    -0.328 OA
ATOM     39  H   UNL     1      57.437 153.252  26.559  0.00  0.00    +0.219 HD
ENDBRANCH  37  38
BRANCH  37  40
ATOM     40  O   UNL     1      54.322 151.809  25.370  0.00  0.00    -0.328 OA
ATOM     41  H   UNL     1      54.640 151.624  24.473  0.00  0.00    +0.219 HD
ENDBRANCH  37  40
BRANCH  37  42
ATOM     42  O   UNL     1      54.679 153.272  27.641  0.00  0.00    -0.328 OA
ATOM     43  H   UNL     1      55.204 153.951  28.092  0.00  0.00    +0.219 HD
ENDBRANCH  37  42
ENDBRANCH  35  37
ENDBRANCH  25  35
ENDBRANCH   7  23
TORSDOF 8
