REMARK  Name = =
REMARK  1 active torsions:
REMARK  status: ('A' for Active; 'I' for Inactive)
REMARK    1  A    between atoms: C_1  and  N_20
REMARK                            x       y       z     vdW  Elec       q    Type
REMARK                         _______ _______ _______ _____ _____    ______ ____
ROOT
ATOM      1  C   UNL     1      -9.690 -42.923  29.831  0.00  0.00    +0.062 C 
ATOM      2  C   UNL     1      -9.872 -42.563  31.158  0.00  0.00    +0.056 C 
ATOM      3  C   UNL     1      -8.851 -42.560  32.082  0.00  0.00    +0.043 C 
ATOM      4  C   UNL     1      -7.592 -42.928  31.692  0.00  0.00    +0.003 C 
ATOM      5  C   UNL     1      -7.395 -43.288  30.381  0.00  0.00    +0.001 C 
ATOM      6  C   UNL     1      -8.404 -43.291  29.460  0.00  0.00    +0.015 C 
ATOM      7  C   UNL     1      -9.074 -42.178  33.463  0.00  0.00    +0.196 C 
ATOM      8  O   UNL     1      -8.154 -42.169  34.327  0.00  0.00    -0.287 OA
ATOM      9  C   UNL     1     -10.438 -41.789  33.851  0.00  0.00    +0.042 C 
ATOM     10  C   UNL     1     -11.476 -41.783  32.942  0.00  0.00    +0.042 C 
ATOM     11  C   UNL     1     -12.773 -41.416  33.298  0.00  0.00    +0.003 C 
ATOM     12  C   UNL     1     -13.028 -41.046  34.598  0.00  0.00    +0.000 C 
ATOM     13  C   UNL     1     -12.006 -41.048  35.510  0.00  0.00    +0.000 C 
ATOM     14  C   UNL     1     -10.726 -41.412  35.150  0.00  0.00    +0.003 C 
ATOM     15  C   UNL     1     -11.225 -42.174  31.550  0.00  0.00    +0.197 C 
ATOM     16  O   UNL     1     -12.159 -42.179  30.692  0.00  0.00    -0.287 OA
ENDROOT
BRANCH   1  20
ATOM     17  C   UNL     1     -12.006 -46.167  27.763  0.00  0.00    +0.100 C 
ATOM     18  N   UNL     1     -11.242 -45.291  28.440  0.00  0.00    -0.227 NA
ATOM     19  C   UNL     1     -11.386 -43.953  28.351  0.00  0.00    +0.158 C 
ATOM     20  N   UNL     1     -10.767 -42.912  28.907  0.00  0.00    -0.233 N 
ATOM     21  C   UNL     1     -11.353 -41.803  28.433  0.00  0.00    +0.173 C 
ATOM     22  N   UNL     1     -12.340 -42.161  27.580  0.00  0.00    -0.224 NA
ATOM     23  C   UNL     1     -12.398 -43.502  27.496  0.00  0.00    +0.115 C 
ATOM     24  C   UNL     1     -13.191 -44.388  26.795  0.00  0.00    +0.024 C 
ATOM     25  C   UNL     1     -13.015 -45.752  26.910  0.00  0.00    +0.022 C 
ENDBRANCH   1  20
TORSDOF 1
