REMARK  Name = =
REMARK  2 active torsions:
REMARK  status: ('A' for Active; 'I' for Inactive)
REMARK    1  A    between atoms: C_1  and  O_18
REMARK    2  A    between atoms: O_18  and  O_19
REMARK                            x       y       z     vdW  Elec       q    Type
REMARK                         _______ _______ _______ _____ _____    ______ ____
ROOT
ATOM      1  C   UNL     1     -11.857 -45.346  27.694  0.00  0.00    +0.170 C 
ATOM      2  C   UNL     1     -10.966 -45.901  28.791  0.00  0.00    +0.037 C 
ATOM      3  C   UNL     1     -10.492 -44.881  29.774  0.00  0.00    +0.003 C 
ATOM      4  C   UNL     1     -11.479 -43.814  30.097  0.00  0.00    +0.004 C 
ATOM      5  C   UNL     1     -12.843 -44.284  29.746  0.00  0.00    +0.021 C 
ATOM      6  C   UNL     1     -13.974 -43.607  30.388  0.00  0.00    +0.009 C 
ATOM      7  C   UNL     1     -15.190 -43.412  29.517  0.00  0.00    +0.026 C 
ATOM      8  C   UNL     1     -14.799 -43.099  28.134  0.00  0.00    -0.031 C 
ATOM      9  C   UNL     1     -15.302 -42.077  27.455  0.00  0.00    -0.031 C 
ATOM     10  C   UNL     1     -14.840 -41.842  26.054  0.00  0.00    +0.026 C 
ATOM     11  C   UNL     1     -14.742 -43.160  25.359  0.00  0.00    +0.009 C 
ATOM     12  C   UNL     1     -13.847 -44.148  26.038  0.00  0.00    +0.026 C 
ATOM     13  C   UNL     1     -13.806 -43.943  27.479  0.00  0.00    -0.032 C 
ATOM     14  C   UNL     1     -12.901 -44.479  28.290  0.00  0.00    -0.019 C 
ATOM     15  C   UNL     1     -11.232 -43.472  31.517  0.00  0.00    +0.000 C 
ATOM     16  C   UNL     1     -10.268 -44.474  32.089  0.00  0.00    +0.000 C 
ATOM     17  C   UNL     1     -10.310 -45.590  31.100  0.00  0.00    +0.000 C 
ENDROOT
BRANCH   1  18
ATOM     18  O   UNL     1     -12.405 -46.478  27.093  0.00  0.00    -0.222 OA
BRANCH  18  19
ATOM     19  O   UNL     1     -12.548 -46.263  25.803  0.00  0.00    -0.249 OA
ATOM     20  H   UNL     1     -12.929 -47.050  25.384  0.00  0.00    +0.253 HD
ENDBRANCH  18  19
ENDBRANCH   1  18
TORSDOF 2
