REMARK  Name = =
REMARK  4 active torsions:
REMARK  status: ('A' for Active; 'I' for Inactive)
REMARK    1  A    between atoms: C_1  and  O_18
REMARK    2  A    between atoms: O_18  and  O_19
REMARK    3  A    between atoms: O_19  and  S_20
REMARK    4  A    between atoms: S_20  and  C_21
REMARK                            x       y       z     vdW  Elec       q    Type
REMARK                         _______ _______ _______ _____ _____    ______ ____
ROOT
ATOM      1  C   UNL     1     -12.521 -44.059  29.011  0.00  0.00    +0.171 C 
ATOM      2  C   UNL     1     -12.207 -44.152  30.492  0.00  0.00    +0.037 C 
ATOM      3  C   UNL     1     -12.731 -43.022  31.307  0.00  0.00    +0.003 C 
ATOM      4  C   UNL     1     -14.114 -42.572  31.000  0.00  0.00    +0.004 C 
ATOM      5  C   UNL     1     -14.755 -43.461  29.995  0.00  0.00    +0.021 C 
ATOM      6  C   UNL     1     -16.166 -43.177  29.658  0.00  0.00    +0.009 C 
ATOM      7  C   UNL     1     -16.411 -42.177  28.582  0.00  0.00    +0.026 C 
ATOM      8  C   UNL     1     -15.587 -42.512  27.395  0.00  0.00    -0.031 C 
ATOM      9  C   UNL     1     -16.088 -42.290  26.190  0.00  0.00    -0.031 C 
ATOM     10  C   UNL     1     -15.272 -42.622  24.989  0.00  0.00    +0.026 C 
ATOM     11  C   UNL     1     -13.800 -42.404  25.263  0.00  0.00    +0.009 C 
ATOM     12  C   UNL     1     -13.330 -43.149  26.480  0.00  0.00    +0.026 C 
ATOM     13  C   UNL     1     -14.262 -43.072  27.625  0.00  0.00    -0.032 C 
ATOM     14  C   UNL     1     -13.872 -43.502  28.804  0.00  0.00    -0.019 C 
ATOM     15  C   UNL     1     -14.839 -42.427  32.299  0.00  0.00    +0.000 C 
ATOM     16  C   UNL     1     -13.746 -42.510  33.377  0.00  0.00    +0.000 C 
ATOM     17  C   UNL     1     -12.825 -43.508  32.737  0.00  0.00    +0.000 C 
ENDROOT
BRANCH   1  18
ATOM     18  O   UNL     1     -12.400 -45.382  28.527  0.00  0.00    -0.207 OA
BRANCH  18  19
ATOM     19  O   UNL     1     -11.290 -45.522  27.863  0.00  0.00    -0.145 OA
BRANCH  19  20
ATOM     20  S   UNL     1     -10.008 -46.143  28.795  0.00  0.00    +0.149 S 
BRANCH  20  21
ATOM     21  C   UNL     1      -9.172 -47.355  27.824  0.00  0.00    +0.165 C 
ATOM     22  N   UNL     1      -8.602 -48.159  27.183  0.00  0.00    -0.181 NA
ENDBRANCH  20  21
ENDBRANCH  19  20
ENDBRANCH  18  19
ENDBRANCH   1  18
TORSDOF 4
