REMARK  Name = =
REMARK  9 active torsions:
REMARK  status: ('A' for Active; 'I' for Inactive)
REMARK    1  A    between atoms: C_1  and  C_18
REMARK    2  A    between atoms: C_1  and  O_30
REMARK    3  A    between atoms: C_18  and  N_20
REMARK    4  A    between atoms: C_19  and  C_27
REMARK    5  A    between atoms: N_20  and  N_23
REMARK    6  A    between atoms: C_27  and  O_29
REMARK    7  A    between atoms: O_30  and  O_31
REMARK    8  A    between atoms: O_31  and  S_32
REMARK    9  A    between atoms: S_32  and  C_33
REMARK                            x       y       z     vdW  Elec       q    Type
REMARK                         _______ _______ _______ _____ _____    ______ ____
ROOT
ATOM      1  C   UNL     1     -10.670 -42.689  31.130  0.00  0.00    +0.175 C 
ATOM      2  C   UNL     1     -11.275 -41.523  30.347  0.00  0.00    +0.040 C 
ATOM      3  C   UNL     1     -10.995 -41.412  28.941  0.00  0.00    +0.003 C 
ATOM      4  C   UNL     1     -11.211 -42.604  28.125  0.00  0.00    +0.004 C 
ATOM      5  C   UNL     1     -11.061 -43.846  28.889  0.00  0.00    +0.021 C 
ATOM      6  C   UNL     1     -10.616 -44.988  28.008  0.00  0.00    +0.009 C 
ATOM      7  C   UNL     1     -10.829 -46.294  28.762  0.00  0.00    +0.026 C 
ATOM      8  C   UNL     1      -9.914 -46.173  29.921  0.00  0.00    -0.031 C 
ATOM      9  C   UNL     1      -9.033 -47.115  30.232  0.00  0.00    -0.031 C 
ATOM     10  C   UNL     1      -8.115 -47.025  31.369  0.00  0.00    +0.026 C 
ATOM     11  C   UNL     1      -8.053 -45.656  31.994  0.00  0.00    +0.009 C 
ATOM     12  C   UNL     1      -9.465 -45.055  32.133  0.00  0.00    +0.026 C 
ATOM     13  C   UNL     1      -9.995 -44.975  30.753  0.00  0.00    -0.032 C 
ATOM     14  C   UNL     1     -10.568 -43.873  30.248  0.00  0.00    -0.017 C 
ATOM     15  C   UNL     1     -10.257 -42.486  26.977  0.00  0.00    +0.000 C 
ATOM     16  C   UNL     1      -9.836 -41.038  26.946  0.00  0.00    +0.000 C 
ATOM     17  C   UNL     1     -10.051 -40.483  28.353  0.00  0.00    +0.000 C 
ENDROOT
BRANCH   1  18
ATOM     18  C   UNL     1     -11.594 -42.843  32.285  0.00  0.00    +0.088 C 
ATOM     19  C   UNL     1     -11.303 -42.452  33.480  0.00  0.00    +0.097 C 
BRANCH  18  20
ATOM     20  N   UNL     1     -12.914 -43.292  32.099  0.00  0.00    -0.179 N 
ATOM     21  C   UNL     1     -13.114 -44.720  32.123  0.00  0.00    +0.324 C 
ATOM     22  O   UNL     1     -14.287 -45.195  31.932  0.00  0.00    -0.263 OA
BRANCH  20  23
ATOM     23  N   UNL     1     -14.003 -42.506  31.859  0.00  0.00    -0.211 N 
ATOM     24  C   UNL     1     -14.734 -41.902  32.937  0.00  0.00    +0.314 C 
ATOM     25  O   UNL     1     -14.311 -42.135  34.110  0.00  0.00    -0.251 OA
ATOM     26  N   UNL     1     -15.861 -41.078  32.776  0.00  0.00    -0.312 N 
ATOM     27  H   UNL     1     -14.292 -42.350  30.931  0.00  0.00    +0.175 HD
ATOM     28  H   UNL     1     -16.205 -40.885  31.874  0.00  0.00    +0.147 HD
ATOM     29  H   UNL     1     -16.307 -40.694  33.565  0.00  0.00    +0.147 HD
ENDBRANCH  20  23
ENDBRANCH  18  20
BRANCH  19  30
ATOM     30  C   UNL     1     -10.177 -41.810  34.088  0.00  0.00    +0.339 C 
ATOM     31  O   UNL     1      -9.646 -42.321  35.131  0.00  0.00    -0.245 OA
BRANCH  30  32
ATOM     32  O   UNL     1      -9.549 -40.646  33.677  0.00  0.00    -0.477 OA
ATOM     33  H   UNL     1      -9.859 -40.189  32.920  0.00  0.00    +0.295 HD
ENDBRANCH  30  32
ENDBRANCH  19  30
ENDBRANCH   1  18
BRANCH   1  34
ATOM     34  O   UNL     1      -9.377 -42.367  31.532  0.00  0.00    -0.204 OA
BRANCH  34  35
ATOM     35  O   UNL     1      -8.521 -42.177  30.604  0.00  0.00    -0.145 OA
BRANCH  35  36
ATOM     36  S   UNL     1      -6.937 -42.696  31.008  0.00  0.00    +0.149 S 
BRANCH  36  37
ATOM     37  C   UNL     1      -6.737 -42.574  32.792  0.00  0.00    +0.165 C 
ATOM     38  N   UNL     1      -6.619 -42.511  33.930  0.00  0.00    -0.181 NA
ENDBRANCH  36  37
ENDBRANCH  35  36
ENDBRANCH  34  35
ENDBRANCH   1  34
TORSDOF 9
