REMARK  Name = =
REMARK  0 active torsions:
REMARK  status: ('A' for Active; 'I' for Inactive)
REMARK                            x       y       z     vdW  Elec       q    Type
REMARK                         _______ _______ _______ _____ _____    ______ ____
ROOT
ATOM      1  C   UNL     1      -2.537  -3.182  30.941  0.00  0.00    +0.141 C 
ATOM      2  N   UNL     1      -2.202  -4.467  31.104  0.00  0.00    -0.145 NA
ATOM      3  N   UNL     1      -3.094  -5.315  31.553  0.00  0.00    -0.146 NA
ATOM      4  C   UNL     1      -4.355  -4.993  31.874  0.00  0.00    +0.125 C 
ATOM      5  C   UNL     1      -4.732  -3.676  31.717  0.00  0.00    +0.059 C 
ATOM      6  C   UNL     1      -3.806  -2.759  31.243  0.00  0.00    +0.108 C 
ATOM      7  N   UNL     1      -4.187  -1.463  31.091  0.00  0.00    -0.209 NA
ATOM      8  C   UNL     1      -5.424  -1.045  31.385  0.00  0.00    +0.262 C 
ATOM      9  N   UNL     1      -5.785   0.340  31.209  0.00  0.00    -0.053 N 
ATOM     10  N   UNL     1      -5.763   1.286  32.128  0.00  0.00    -0.047 NA
ATOM     11  N   UNL     1      -6.163   2.420  31.583  0.00  0.00    -0.106 NA
ATOM     12  C   UNL     1      -6.453   2.219  30.284  0.00  0.00    +0.243 C 
ATOM     13  N   UNL     1      -6.203   0.906  30.091  0.00  0.00    -0.128 NA
ATOM     14  N   UNL     1      -6.306  -1.948  31.842  0.00  0.00    -0.209 NA
ATOM     15  C   UNL     1      -6.000  -3.237  32.015  0.00  0.00    +0.105 C 
ENDROOT
TORSDOF 0
