REMARK  Name = =
REMARK  2 active torsions:
REMARK  status: ('A' for Active; 'I' for Inactive)
REMARK    1  A    between atoms: C_1  and  C_15
REMARK    2  A    between atoms: C_11  and  N_30
REMARK                            x       y       z     vdW  Elec       q    Type
REMARK                         _______ _______ _______ _____ _____    ______ ____
ROOT
ATOM      1  C   UNL     1      -3.019  -2.337  19.126  0.00  0.00    +0.024 C 
ATOM      2  C   UNL     1      -4.094  -1.491  19.240  0.00  0.00    +0.002 C 
ATOM      3  C   UNL     1      -3.944  -0.120  19.484  0.00  0.00    +0.003 C 
ATOM      4  C   UNL     1      -2.710   0.425  19.616  0.00  0.00    +0.037 C 
ATOM      5  C   UNL     1      -1.583  -0.401  19.508  0.00  0.00    +0.145 C 
ATOM      6  C   UNL     1      -1.736  -1.739  19.271  0.00  0.00    +0.036 C 
ATOM      7  C   UNL     1      -0.561  -2.611  19.170  0.00  0.00    +0.002 C 
ATOM      8  C   UNL     1       0.710  -1.916  19.317  0.00  0.00    +0.018 C 
ATOM      9  C   UNL     1       0.814  -0.580  19.551  0.00  0.00    +0.155 C 
ATOM     10  O   UNL     1      -0.328   0.189  19.649  0.00  0.00    -0.453 OA
ATOM     11  C   UNL     1       2.037   0.040  19.694  0.00  0.00    +0.090 C 
ATOM     12  C   UNL     1       3.217  -0.696  19.602  0.00  0.00    +0.014 C 
ATOM     13  C   UNL     1       3.110  -2.051  19.365  0.00  0.00    -0.020 C 
ATOM     14  C   UNL     1       1.891  -2.675  19.221  0.00  0.00    +0.055 C 
ENDROOT
BRANCH   1  15
ATOM     15  C   UNL     1      -3.147  -3.752  18.852  0.00  0.00    +0.121 C 
ATOM     16  N   UNL     1      -2.089  -4.481  18.503  0.00  0.00    -0.146 NA
ATOM     17  N   UNL     1      -2.053  -5.756  18.240  0.00  0.00    -0.146 NA
ATOM     18  C   UNL     1      -3.203  -6.452  18.321  0.00  0.00    +0.125 C 
ATOM     19  C   UNL     1      -4.367  -5.808  18.674  0.00  0.00    +0.059 C 
ATOM     20  C   UNL     1      -4.339  -4.427  18.945  0.00  0.00    +0.107 C 
ATOM     21  N   UNL     1      -5.479  -3.844  19.287  0.00  0.00    -0.209 NA
ATOM     22  C   UNL     1      -6.624  -4.520  19.376  0.00  0.00    +0.262 C 
ATOM     23  N   UNL     1      -7.835  -3.870  19.745  0.00  0.00    -0.053 N 
ATOM     24  N   UNL     1      -8.134  -2.587  19.529  0.00  0.00    -0.047 NA
ATOM     25  N   UNL     1      -9.340  -2.325  20.001  0.00  0.00    -0.106 NA
ATOM     26  C   UNL     1      -9.821  -3.458  20.530  0.00  0.00    +0.243 C 
ATOM     27  N   UNL     1      -8.868  -4.389  20.355  0.00  0.00    -0.128 NA
ATOM     28  N   UNL     1      -6.669  -5.856  19.116  0.00  0.00    -0.209 NA
ATOM     29  C   UNL     1      -5.547  -6.506  18.765  0.00  0.00    +0.105 C 
ENDBRANCH   1  15
BRANCH  11  30
ATOM     30  N   UNL     1       2.085   1.424  19.935  0.00  0.00    -0.262 N 
ATOM     31  C   UNL     1       1.903   2.361  18.955  0.00  0.00    +0.056 C 
ATOM     32  C   UNL     1       2.000   3.623  19.468  0.00  0.00    +0.015 C 
ATOM     33  C   UNL     1       2.254   3.475  20.836  0.00  0.00    +0.018 C 
ATOM     34  C   UNL     1       2.294   2.120  21.063  0.00  0.00    +0.070 C 
ATOM     35  C   UNL     1       1.861   4.765  18.708  0.00  0.00    +0.001 C 
ATOM     36  C   UNL     1       1.610   4.632  17.358  0.00  0.00    +0.000 C 
ATOM     37  C   UNL     1       1.504   3.360  16.802  0.00  0.00    +0.001 C 
ATOM     38  C   UNL     1       1.651   2.243  17.599  0.00  0.00    +0.015 C 
ENDBRANCH  11  30
TORSDOF 2
