REMARK  Name = =
REMARK  3 active torsions:
REMARK  status: ('A' for Active; 'I' for Inactive)
REMARK    1  A    between atoms: C_1  and  N_10
REMARK    2  A    between atoms: C_4  and  C_7
REMARK    3  A    between atoms: N_10  and  C_11
REMARK                            x       y       z     vdW  Elec       q    Type
REMARK                         _______ _______ _______ _____ _____    ______ ____
ROOT
ATOM      1  C   UNL     1     -13.832 -42.562  26.973  0.00  0.00    +0.045 C 
ATOM      2  C   UNL     1     -15.151 -42.277  27.251  0.00  0.00    +0.014 C 
ATOM      3  C   UNL     1     -16.129 -42.236  26.281  0.00  0.00    +0.006 C 
ATOM      4  C   UNL     1     -15.814 -42.482  24.983  0.00  0.00    +0.053 C 
ATOM      5  C   UNL     1     -14.518 -42.770  24.660  0.00  0.00    +0.006 C 
ATOM      6  C   UNL     1     -13.532 -42.810  25.641  0.00  0.00    +0.014 C 
ENDROOT
BRANCH   4   7
ATOM      7  C   UNL     1     -16.873 -42.435  23.956  0.00  0.00    +0.243 C 
ATOM      8  O   UNL     1     -16.673 -42.863  22.790  0.00  0.00    -0.270 OA
ATOM      9  N   UNL     1     -18.144 -41.901  24.270  0.00  0.00    -0.325 N 
ATOM     10  H   UNL     1     -18.325 -41.560  25.176  0.00  0.00    +0.145 HD
ATOM     11  H   UNL     1     -18.848 -41.870  23.583  0.00  0.00    +0.145 HD
ENDBRANCH   4   7
BRANCH   1  12
ATOM     12  N   UNL     1     -12.828 -42.599  27.982  0.00  0.00    -0.328 N 
ATOM     13  H   UNL     1     -12.898 -41.976  28.741  0.00  0.00    +0.147 HD
BRANCH  12  14
ATOM     14  C   UNL     1     -11.718 -43.507  27.938  0.00  0.00    +0.127 C 
ATOM     15  C   UNL     1     -10.646 -43.018  28.922  0.00  0.00    +0.027 C 
ATOM     16  C   UNL     1      -9.484 -43.985  28.922  0.00  0.00    +0.003 C 
ATOM     17  C   UNL     1      -9.864 -45.390  29.239  0.00  0.00    +0.008 C 
ATOM     18  C   UNL     1     -11.014 -45.904  28.388  0.00  0.00    +0.066 C 
ATOM     19  C   UNL     1     -12.060 -44.866  28.405  0.00  0.00    +0.168 C 
ATOM     20  O   UNL     1     -13.170 -45.115  28.790  0.00  0.00    -0.294 OA
ENDBRANCH  12  14
ENDBRANCH   1  12
TORSDOF 3
