REMARK  Name = =
REMARK  1 active torsions:
REMARK  status: ('A' for Active; 'I' for Inactive)
REMARK    1  A    between atoms: N_1  and  C_9
REMARK                            x       y       z     vdW  Elec       q    Type
REMARK                         _______ _______ _______ _____ _____    ______ ____
ROOT
ATOM      1  N   UNL     1     -12.489 -44.001  28.973  0.00  0.00    -0.232 N 
ATOM      2  C   UNL     1     -12.633 -44.786  30.184  0.00  0.00    +0.183 C 
ATOM      3  C   UNL     1     -11.784 -44.067  31.144  0.00  0.00    +0.250 C 
ATOM      4  O   UNL     1     -11.935 -44.004  32.390  0.00  0.00    -0.273 OA
ATOM      5  N   UNL     1     -10.746 -43.444  30.413  0.00  0.00    -0.238 N 
ATOM      6  C   UNL     1     -11.189 -43.406  29.066  0.00  0.00    +0.312 C 
ATOM      7  O   UNL     1     -10.599 -42.940  28.041  0.00  0.00    -0.252 OA
ATOM      8  H   UNL     1      -9.891 -43.106  30.766  0.00  0.00    +0.159 HD
ENDROOT
BRANCH   1  10
ATOM      9  O   UNL     1     -12.977 -44.594  26.825  0.00  0.00    -0.332 OA
ATOM     10  C   UNL     1     -13.454 -43.856  27.903  0.00  0.00    +0.200 C 
ATOM     11  C   UNL     1     -13.555 -42.422  27.455  0.00  0.00    +0.077 C 
ATOM     12  C   UNL     1     -14.100 -42.344  26.084  0.00  0.00    -0.024 C 
ATOM     13  C   UNL     1     -14.277 -43.400  25.302  0.00  0.00    +0.001 C 
ATOM     14  C   UNL     1     -13.910 -44.746  25.820  0.00  0.00    +0.170 C 
ENDBRANCH   1  10
TORSDOF 1
