REMARK  Name = =
REMARK  9 active torsions:
REMARK  status: ('A' for Active; 'I' for Inactive)
REMARK    1  A    between atoms: C_1  and  O_26
REMARK    2  A    between atoms: C_3  and  O_25
REMARK    3  A    between atoms: C_4  and  C_23
REMARK    4  A    between atoms: C_5  and  C_18
REMARK    5  A    between atoms: C_6  and  C_7
REMARK    6  A    between atoms: C_11  and  O_17
REMARK    7  A    between atoms: O_26  and  C_30
REMARK    8  A    between atoms: C_27  and  C_36
REMARK    9  A    between atoms: C_34  and  N_39
REMARK                            x       y       z     vdW  Elec       q    Type
REMARK                         _______ _______ _______ _____ _____    ______ ____
ROOT
ATOM      1  C   UNL     1     -20.142 -42.104  25.737  0.00  0.00    +0.137 C 
ATOM      2  C   UNL     1     -19.833 -42.704  26.907  0.00  0.00    +0.073 C 
ATOM      3  C   UNL     1     -20.783 -43.421  27.608  0.00  0.00    +0.140 C 
ATOM      4  C   UNL     1     -22.066 -43.518  27.094  0.00  0.00    +0.076 C 
ATOM      5  C   UNL     1     -22.378 -42.886  25.884  0.00  0.00    +0.039 C 
ATOM      6  C   UNL     1     -21.420 -42.163  25.163  0.00  0.00    +0.013 C 
ENDROOT
BRANCH   6   7
ATOM      7  C   UNL     1     -21.713 -41.423  23.937  0.00  0.00    +0.030 C 
ATOM      8  C   UNL     1     -22.240 -42.205  22.781  0.00  0.00    +0.031 C 
ATOM      9  C   UNL     1     -22.412 -41.397  21.551  0.00  0.00    -0.023 C 
ATOM     10  C   UNL     1     -22.098 -40.074  21.479  0.00  0.00    +0.008 C 
ATOM     11  C   UNL     1     -22.293 -39.372  20.282  0.00  0.00    +0.129 C 
ATOM     12  C   UNL     1     -22.804 -40.010  19.158  0.00  0.00    +0.036 C 
ATOM     13  C   UNL     1     -23.116 -41.342  19.244  0.00  0.00    +0.003 C 
ATOM     14  C   UNL     1     -22.921 -42.022  20.425  0.00  0.00    -0.004 C 
ATOM     15  C   UNL     1     -21.548 -39.350  22.628  0.00  0.00    +0.029 C 
ATOM     16  C   UNL     1     -20.768 -40.365  23.514  0.00  0.00    +0.010 C 
BRANCH  11  17
ATOM     17  O   UNL     1     -21.995 -38.019  20.150  0.00  0.00    -0.506 OA
ATOM     18  H   UNL     1     -21.648 -37.542  20.878  0.00  0.00    +0.292 HD
ENDBRANCH  11  17
ENDBRANCH   6   7
BRANCH   5  19
ATOM     19  C   UNL     1     -23.767 -42.822  25.438  0.00  0.00    +0.260 C 
ATOM     20  O   UNL     1     -24.622 -42.306  26.480  0.00  0.00    -0.324 OA
ATOM     21  C   UNL     1     -25.876 -42.345  25.808  0.00  0.00    +0.177 C 
ATOM     22  C   UNL     1     -25.731 -43.557  24.901  0.00  0.00    +0.177 C 
ATOM     23  O   UNL     1     -24.422 -43.995  25.180  0.00  0.00    -0.324 OA
ENDBRANCH   5  19
BRANCH   4  24
ATOM     24  C   UNL     1     -23.003 -44.328  27.850  0.00  0.00    +0.237 C 
ATOM     25  O   UNL     1     -24.142 -44.595  27.467  0.00  0.00    -0.283 OA
ENDBRANCH   4  24
BRANCH   3  26
ATOM     26  O   UNL     1     -20.403 -44.018  28.810  0.00  0.00    -0.505 OA
ATOM     27  H   UNL     1     -19.524 -43.927  29.121  0.00  0.00    +0.292 HD
ENDBRANCH   3  26
BRANCH   1  28
ATOM     28  O   UNL     1     -19.168 -41.420  25.074  0.00  0.00    -0.479 OA
BRANCH  28  32
ATOM     29  C   UNL     1     -15.480 -42.830  26.309  0.00  0.00    -0.030 C 
ATOM     30  C   UNL     1     -16.196 -42.100  27.104  0.00  0.00    -0.027 C 
ATOM     31  C   UNL     1     -17.337 -41.231  26.705  0.00  0.00    +0.069 C 
ATOM     32  C   UNL     1     -17.778 -41.414  25.310  0.00  0.00    +0.171 C 
ATOM     33  C   UNL     1     -17.156 -42.537  24.541  0.00  0.00    +0.049 C 
ATOM     34  C   UNL     1     -15.750 -42.854  24.869  0.00  0.00    +0.029 C 
BRANCH  29  38
ATOM     35  O   UNL     1     -11.999 -44.678  27.629  0.00  0.00    -0.332 OA
ATOM     36  C   UNL     1     -12.785 -44.240  28.685  0.00  0.00    +0.200 C 
ATOM     37  C   UNL     1     -13.853 -43.299  28.246  0.00  0.00    +0.077 C 
ATOM     38  C   UNL     1     -14.372 -43.632  26.915  0.00  0.00    -0.024 C 
ATOM     39  C   UNL     1     -13.887 -44.631  26.219  0.00  0.00    +0.001 C 
ATOM     40  C   UNL     1     -12.771 -45.464  26.790  0.00  0.00    +0.170 C 
BRANCH  36  41
ATOM     41  N   UNL     1     -11.964 -43.695  29.747  0.00  0.00    -0.232 N 
ATOM     42  C   UNL     1     -11.873 -44.210  31.091  0.00  0.00    +0.183 C 
ATOM     43  C   UNL     1     -10.644 -43.557  31.661  0.00  0.00    +0.250 C 
ATOM     44  O   UNL     1     -10.072 -43.935  32.692  0.00  0.00    -0.273 OA
ATOM     45  N   UNL     1     -10.289 -42.485  30.832  0.00  0.00    -0.238 N 
ATOM     46  C   UNL     1     -11.107 -42.576  29.651  0.00  0.00    +0.312 C 
ATOM     47  O   UNL     1     -11.027 -41.754  28.709  0.00  0.00    -0.252 OA
ATOM     48  H   UNL     1      -9.609 -41.799  31.021  0.00  0.00    +0.159 HD
ENDBRANCH  36  41
ENDBRANCH  29  38
ENDBRANCH  28  32
ENDBRANCH   1  28
TORSDOF 9
