REMARK  Name = =
REMARK  4 active torsions:
REMARK  status: ('A' for Active; 'I' for Inactive)
REMARK    1  A    between atoms: O_2  and  O_20
REMARK    2  A    between atoms: N_3  and  S_9
REMARK    3  A    between atoms: S_9  and  N_11
REMARK    4  A    between atoms: C_22  and  C_24
REMARK                            x       y       z     vdW  Elec       q    Type
REMARK                         _______ _______ _______ _____ _____    ______ ____
ROOT
ATOM      1  P   UNL     1     -12.755 -42.909  27.478  0.00  0.00    +0.000 P 
ENDROOT
TORSDOF 0
REMARK  Name = =
REMARK  4 active torsions:
REMARK  status: ('A' for Active; 'I' for Inactive)
REMARK    1  A    between atoms: O_2  and  O_20
REMARK    2  A    between atoms: N_3  and  S_9
REMARK    3  A    between atoms: S_9  and  N_11
REMARK    4  A    between atoms: C_22  and  C_24
REMARK                            x       y       z     vdW  Elec       q    Type
REMARK                         _______ _______ _______ _____ _____    ______ ____
ROOT
ATOM      1  O   UNL     1     -12.336 -41.461  27.653  0.00  0.00    -0.253 OA
ATOM      2  H   UNL     1     -11.784 -40.802  28.103  0.00  0.00    +0.253 HD
ENDROOT
BRANCH   1   3
ATOM      3  O   UNL     1     -11.550 -42.126  26.609  0.00  0.00    -0.253 OA
ATOM      4  H   UNL     1     -12.102 -42.785  26.159  0.00  0.00    +0.253 HD
ENDBRANCH   1   3
TORSDOF 1
REMARK  Name = =
REMARK  4 active torsions:
REMARK  status: ('A' for Active; 'I' for Inactive)
REMARK    1  A    between atoms: O_2  and  O_20
REMARK    2  A    between atoms: N_3  and  S_9
REMARK    3  A    between atoms: S_9  and  N_11
REMARK    4  A    between atoms: C_22  and  C_24
REMARK                            x       y       z     vdW  Elec       q    Type
REMARK                         _______ _______ _______ _____ _____    ______ ____
ROOT
ATOM      1  N   UNL     1      -9.385 -43.720  29.196  0.00  0.00    -0.184 N 
ATOM      2  C   UNL     1      -8.994 -42.461  28.953  0.00  0.00    +0.180 C 
ATOM      3  N   UNL     1      -7.975 -42.180  29.771  0.00  0.00    -0.225 NA
ATOM      4  C   UNL     1      -7.686 -43.235  30.552  0.00  0.00    +0.097 C 
ATOM      5  C   UNL     1      -8.590 -44.213  30.179  0.00  0.00    +0.084 C 
ATOM      6  C   UNL     1      -8.568 -45.437  30.790  0.00  0.00    +0.017 C 
ATOM      7  C   UNL     1      -7.632 -45.681  31.784  0.00  0.00    +0.001 C 
ATOM      8  C   UNL     1      -6.737 -44.714  32.154  0.00  0.00    +0.002 C 
ATOM      9  C   UNL     1      -6.775 -43.488  31.527  0.00  0.00    +0.020 C 
ENDROOT
BRANCH   1  10
ATOM     10  S   UNL     1     -10.684 -44.563  28.388  0.00  0.00    +0.199 S 
ATOM     11  O   UNL     1     -10.620 -46.057  28.654  0.00  0.00    -0.219 OA
BRANCH  10  12
ATOM     12  N   UNL     1     -12.253 -43.935  28.831  0.00  0.00    -0.187 NA
ATOM     13  C   UNL     1     -13.259 -44.949  28.898  0.00  0.00    +0.087 C 
ATOM     14  C   UNL     1     -13.150 -45.819  30.130  0.00  0.00    +0.018 C 
ATOM     15  C   UNL     1     -12.510 -45.125  31.291  0.00  0.00    +0.003 C 
ATOM     16  C   UNL     1     -12.859 -43.664  31.199  0.00  0.00    +0.018 C 
ATOM     17  C   UNL     1     -12.180 -43.088  29.986  0.00  0.00    +0.087 C 
ENDBRANCH  10  12
ENDBRANCH   1  10
TORSDOF 2
REMARK  Name = =
REMARK  4 active torsions:
REMARK  status: ('A' for Active; 'I' for Inactive)
REMARK    1  A    between atoms: O_2  and  O_20
REMARK    2  A    between atoms: N_3  and  S_9
REMARK    3  A    between atoms: S_9  and  N_11
REMARK    4  A    between atoms: C_22  and  C_24
REMARK                            x       y       z     vdW  Elec       q    Type
REMARK                         _______ _______ _______ _____ _____    ______ ____
ROOT
ATOM      1  O   HOH     1     -13.850 -41.844  28.122  0.00  0.00    -0.253 OA
ATOM      2  H   HOH     0     -12.880 -41.844  28.122  0.00  0.00    +0.253 HD
ENDROOT
TORSDOF 0
REMARK  Name = =
REMARK  4 active torsions:
REMARK  status: ('A' for Active; 'I' for Inactive)
REMARK    1  A    between atoms: O_2  and  O_20
REMARK    2  A    between atoms: N_3  and  S_9
REMARK    3  A    between atoms: S_9  and  N_11
REMARK    4  A    between atoms: C_22  and  C_24
REMARK                            x       y       z     vdW  Elec       q    Type
REMARK                         _______ _______ _______ _____ _____    ______ ____
ROOT
ATOM      1  C   UNL     1     -14.449 -43.380  25.204  0.00  0.00    +0.140 C 
ATOM      2  O   UNL     1     -13.891 -42.230  24.628  0.00  0.00    -0.349 OA
ATOM      3  C   UNL     1     -14.697 -41.938  23.503  0.00  0.00    +0.174 C 
ATOM      4  C   UNL     1     -15.912 -41.204  24.064  0.00  0.00    +0.174 C 
ATOM      5  O   UNL     1     -16.959 -41.302  23.156  0.00  0.00    -0.326 OA
ATOM      6  C   UNL     1     -17.799 -42.317  23.592  0.00  0.00    +0.264 C 
ATOM      7  O   UNL     1     -18.737 -42.560  22.588  0.00  0.00    -0.321 OA
ATOM      8  C   UNL     1     -19.373 -41.401  22.170  0.00  0.00    +0.209 C 
ATOM      9  C   UNL     1     -20.152 -40.872  23.320  0.00  0.00    +0.183 C 
ATOM     10  O   UNL     1     -21.330 -40.605  23.285  0.00  0.00    -0.293 OA
ATOM     11  C   UNL     1     -19.400 -40.664  24.602  0.00  0.00    +0.102 C 
ATOM     12  C   UNL     1     -18.490 -41.864  24.856  0.00  0.00    +0.179 C 
ATOM     13  O   UNL     1     -17.566 -41.481  25.796  0.00  0.00    -0.350 OA
ATOM     14  C   UNL     1     -16.256 -41.661  25.441  0.00  0.00    +0.148 C 
ATOM     15  C   UNL     1     -15.846 -43.092  25.709  0.00  0.00    +0.066 C 
ENDROOT
BRANCH   1  16
ATOM     16  C   UNL     1     -13.573 -43.929  26.258  0.00  0.00    +0.003 C 
ATOM     17  C   UNL     1     -13.364 -45.222  26.320  0.00  0.00    -0.002 C 
ENDBRANCH   1  16
TORSDOF 1
