MODEL 1
REMARK VINA RESULT:    -8.740      0.000      0.000
REMARK INTER + INTRA:         -12.410
REMARK INTER:                 -11.295
REMARK INTRA:                  -1.115
REMARK UNBOUND:                -1.115
REMARK  Name = =
REMARK  6 active torsions:
REMARK  status: ('A' for Active; 'I' for Inactive)
REMARK    1  A    between atoms: O_1  and  C_2
REMARK    2  A    between atoms: O_1  and  N_21
REMARK    3  A    between atoms: C_6  and  O_17
REMARK    4  A    between atoms: C_15  and  O_18
REMARK    5  A    between atoms: C_19  and  C_26
REMARK    6  A    between atoms: C_26  and  C_32
REMARK                            x       y       z     vdW  Elec       q    Type
REMARK                         _______ _______ _______ _____ _____    ______ ____
ROOT
ATOM      1  O   UNL     1      57.245 160.654  42.970  0.00  0.00    -0.360 OA
ENDROOT
BRANCH   1   2
ATOM      2  C   UNL     1      56.047 161.204  42.644  0.00  0.00    +0.176 C 
ATOM      3  C   UNL     1      54.885 160.494  42.628  0.00  0.00    +0.040 C 
ATOM      4  C   UNL     1      53.672 161.020  42.313  0.00  0.00    +0.009 C 
ATOM      5  C   UNL     1      53.540 162.366  41.968  0.00  0.00    +0.068 C 
ATOM      6  C   UNL     1      52.328 162.893  41.706  0.00  0.00    +0.139 C 
ATOM      7  C   UNL     1      51.156 162.099  41.777  0.00  0.00    +0.064 C 
ATOM      8  C   UNL     1      51.276 160.806  42.109  0.00  0.00    -0.016 C 
ATOM      9  C   UNL     1      52.520 160.205  42.393  0.00  0.00    -0.004 C 
ATOM     10  C   UNL     1      50.042 159.940  42.236  0.00  0.00    +0.027 C 
ATOM     11  C   UNL     1      48.917 160.480  41.389  0.00  0.00    +0.013 C 
ATOM     12  C   UNL     1      48.642 161.953  41.787  0.00  0.00    +0.070 C 
ATOM     13  C   UNL     1      49.867 162.737  41.497  0.00  0.00    +0.176 C 
ATOM     14  O   UNL     1      49.789 163.882  41.039  0.00  0.00    -0.291 OA
ATOM     15  C   UNL     1      54.711 163.078  41.977  0.00  0.00    +0.140 C 
ATOM     16  C   UNL     1      55.922 162.574  42.288  0.00  0.00    +0.077 C 
BRANCH   6  17
ATOM     17  O   UNL     1      52.139 164.203  41.351  0.00  0.00    -0.505 OA
ATOM     18  H   UNL     1      52.712 164.865  41.684  0.00  0.00    +0.292 HD
ENDBRANCH   6  17
BRANCH  15  19
ATOM     19  O   UNL     1      54.632 164.467  41.621  0.00  0.00    -0.505 OA
ATOM     20  H   UNL     1      54.766 165.126  42.274  0.00  0.00    +0.292 HD
ENDBRANCH  15  19
ENDBRANCH   1   2
BRANCH   1  23
ATOM     21  C   UNL     1      59.977 160.673  40.567  0.00  0.00    +0.106 C 
ATOM     22  N   UNL     1      59.029 161.034  41.489  0.00  0.00    -0.143 NA
ATOM     23  N   UNL     1      58.206 160.201  42.058  0.00  0.00    -0.012 N 
ATOM     24  C   UNL     1      58.262 158.904  41.748  0.00  0.00    +0.303 C 
ATOM     25  O   UNL     1      57.451 158.041  42.293  0.00  0.00    -0.265 OA
ATOM     26  C   UNL     1      59.157 158.408  40.846  0.00  0.00    +0.064 C 
ATOM     27  C   UNL     1      60.047 159.339  40.234  0.00  0.00    +0.023 C 
BRANCH  21  28
ATOM     28  C   UNL     1      60.805 161.714  40.010  0.00  0.00    +0.156 C 
ATOM     29  N   UNL     1      61.565 162.527  40.899  0.00  0.00    -0.284 NA
ATOM     30  C   UNL     1      62.595 161.764  41.502  0.00  0.00    +0.081 C 
ATOM     31  C   UNL     1      63.465 161.168  40.421  0.00  0.00    +0.076 C 
ATOM     32  S   UNL     1      62.250 160.961  39.087  0.00  0.00    -0.117 S 
ATOM     33  H   UNL     1      60.951 162.897  41.625  0.00  0.00    +0.124 HD
BRANCH  28  35
ATOM     34 CL   UNL     1      59.063 163.792  39.741  0.00  0.00    -0.083 Cl
ATOM     35  C   UNL     1      60.160 162.603  38.972  0.00  0.00    +0.184 C 
ATOM     36  O   UNL     1      61.092 163.302  38.254  0.00  0.00    -0.342 OA
ATOM     37  C   UNL     1      60.637 163.511  36.961  0.00  0.00    +0.144 C 
ATOM     38  C   UNL     1      59.603 162.478  36.637  0.00  0.00    +0.036 C 
ATOM     39  C   UNL     1      59.421 161.763  37.939  0.00  0.00    +0.048 C 
ENDBRANCH  28  35
ENDBRANCH  21  28
ENDBRANCH   1  23
TORSDOF 6
ENDMDL
