MODEL 1
REMARK VINA RESULT:    -7.268      0.000      0.000
REMARK INTER + INTRA:          -8.213
REMARK INTER:                  -9.180
REMARK INTRA:                   0.967
REMARK UNBOUND:                 0.967
REMARK  Name = =
REMARK  5 active torsions:
REMARK  status: ('A' for Active; 'I' for Inactive)
REMARK    1  A    between atoms: C_1  and  C_15
REMARK    2  A    between atoms: C_11  and  N_34
REMARK    3  A    between atoms: C_15  and  O_30
REMARK    4  A    between atoms: O_30  and  C_31
REMARK    5  A    between atoms: C_31  and  O_33
REMARK                            x       y       z     vdW  Elec       q    Type
REMARK                         _______ _______ _______ _____ _____    ______ ____
ROOT
ATOM      1  C   UNL     1      62.067 163.744  37.920  0.00  0.00    +0.043 C 
ATOM      2  C   UNL     1      61.807 164.478  36.756  0.00  0.00    +0.004 C 
ATOM      3  C   UNL     1      62.812 165.047  35.997  0.00  0.00    +0.034 C 
ATOM      4  C   UNL     1      64.150 164.895  36.393  0.00  0.00    +0.100 C 
ATOM      5  N   UNL     1      65.140 165.452  35.652  0.00  0.00    -0.241 NA
ATOM      6  C   UNL     1      66.409 165.300  36.037  0.00  0.00    +0.119 C 
ATOM      7  C   UNL     1      66.684 164.581  37.175  0.00  0.00    +0.119 C 
ATOM      8  N   UNL     1      65.704 164.030  37.910  0.00  0.00    -0.241 NA
ATOM      9  C   UNL     1      64.432 164.181  37.524  0.00  0.00    +0.099 C 
ATOM     10  C   UNL     1      63.413 163.629  38.255  0.00  0.00    +0.022 C 
ATOM     11  C   UNL     1      62.549 165.762  34.850  0.00  0.00    +0.071 C 
ATOM     12  C   UNL     1      61.235 165.903  34.462  0.00  0.00    +0.017 C 
ATOM     13  C   UNL     1      60.211 165.337  35.211  0.00  0.00    +0.001 C 
ATOM     14  C   UNL     1      60.521 164.627  36.354  0.00  0.00    +0.000 C 
ENDROOT
BRANCH   1  15
ATOM     15  C   UNL     1      60.998 163.138  38.759  0.00  0.00    +0.258 C 
ATOM     16  O   UNL     1      59.862 163.088  37.944  0.00  0.00    -0.319 OA
ATOM     17  C   UNL     1      59.652 161.908  37.296  0.00  0.00    +0.178 C 
ATOM     18  C   UNL     1      59.264 160.910  38.402  0.00  0.00    +0.175 C 
ATOM     19  O   UNL     1      58.444 161.590  39.290  0.00  0.00    -0.326 OA
ATOM     20  C   UNL     1      58.296 160.775  40.409  0.00  0.00    +0.264 C 
ATOM     21  O   UNL     1      57.368 161.238  41.310  0.00  0.00    -0.321 OA
ATOM     22  C   UNL     1      56.824 160.106  41.959  0.00  0.00    +0.209 C 
ATOM     23  C   UNL     1      57.910 159.125  42.175  0.00  0.00    +0.183 C 
ATOM     24  O   UNL     1      57.664 157.948  42.255  0.00  0.00    -0.293 OA
ATOM     25  C   UNL     1      59.304 159.607  42.292  0.00  0.00    +0.102 C 
ATOM     26  C   UNL     1      59.606 160.465  41.088  0.00  0.00    +0.179 C 
ATOM     27  O   UNL     1      60.406 159.780  40.148  0.00  0.00    -0.350 OA
ATOM     28  C   UNL     1      60.576 160.641  39.085  0.00  0.00    +0.151 C 
ATOM     29  C   UNL     1      61.346 161.878  39.435  0.00  0.00    +0.107 C 
BRANCH  15  30
ATOM     30  O   UNL     1      60.596 164.072  39.786  0.00  0.00    -0.396 OA
BRANCH  30  31
ATOM     31  C   UNL     1      59.375 164.712  39.748  0.00  0.00    +0.510 C 
ATOM     32  O   UNL     1      59.338 165.889  39.307  0.00  0.00    -0.203 OA
BRANCH  31  33
ATOM     33  O   UNL     1      58.188 164.138  40.164  0.00  0.00    -0.450 OA
ATOM     34  H   UNL     1      58.201 163.410  40.754  0.00  0.00    +0.299 HD
ENDBRANCH  31  33
ENDBRANCH  30  31
ENDBRANCH  15  30
ENDBRANCH   1  15
BRANCH  11  35
ATOM     35  N   UNL     1      63.603 166.350  34.072  0.00  0.00    -0.216 N 
ATOM     36  N   UNL     1      64.329 165.820  33.106  0.00  0.00    -0.225 N 
ATOM     37  C   UNL     1      65.210 166.694  32.623  0.00  0.00    +0.263 C 
ATOM     38  O   UNL     1      66.062 166.532  31.697  0.00  0.00    -0.269 OA
ATOM     39  C   UNL     1      65.045 167.866  33.323  0.00  0.00    +0.077 C 
ATOM     40  C   UNL     1      64.029 167.614  34.224  0.00  0.00    +0.090 C 
ATOM     41  H   UNL     1      64.231 164.895  32.783  0.00  0.00    +0.174 HD
ENDBRANCH  11  35
TORSDOF 5
ENDMDL
