REMARK  Name = =
REMARK  6 active torsions:
REMARK  status: ('A' for Active; 'I' for Inactive)
REMARK    1  A    between atoms: O_1  and  C_2
REMARK    2  A    between atoms: O_1  and  N_21
REMARK    3  A    between atoms: C_6  and  O_17
REMARK    4  A    between atoms: C_15  and  O_18
REMARK    5  A    between atoms: C_19  and  C_26
REMARK    6  A    between atoms: C_26  and  C_32
REMARK                            x       y       z     vdW  Elec       q    Type
REMARK                         _______ _______ _______ _____ _____    ______ ____
ROOT
ATOM      1  O   UNL     1      50.646 155.325  28.225  0.00  0.00    -0.360 OA
ENDROOT
BRANCH   1   2
ATOM      2  C   UNL     1      50.784 156.508  28.878  0.00  0.00    +0.176 C 
ATOM      3  C   UNL     1      49.787 157.067  29.619  0.00  0.00    +0.040 C 
ATOM      4  C   UNL     1      49.900 158.244  30.289  0.00  0.00    +0.009 C 
ATOM      5  C   UNL     1      51.084 158.982  30.251  0.00  0.00    +0.068 C 
ATOM      6  C   UNL     1      51.206 160.122  30.957  0.00  0.00    +0.139 C 
ATOM      7  C   UNL     1      50.141 160.602  31.759  0.00  0.00    +0.064 C 
ATOM      8  C   UNL     1      49.001 159.897  31.801  0.00  0.00    -0.016 C 
ATOM      9  C   UNL     1      48.821 158.698  31.081  0.00  0.00    -0.004 C 
ATOM     10  C   UNL     1      47.859 160.357  32.680  0.00  0.00    +0.027 C 
ATOM     11  C   UNL     1      47.925 161.846  32.911  0.00  0.00    +0.013 C 
ATOM     12  C   UNL     1      49.308 162.208  33.512  0.00  0.00    +0.070 C 
ATOM     13  C   UNL     1      50.344 161.840  32.516  0.00  0.00    +0.176 C 
ATOM     14  O   UNL     1      51.335 162.558  32.344  0.00  0.00    -0.291 OA
ATOM     15  C   UNL     1      52.084 158.422  29.499  0.00  0.00    +0.140 C 
ATOM     16  C   UNL     1      51.991 157.256  28.830  0.00  0.00    +0.077 C 
BRANCH   6  17
ATOM     17  O   UNL     1      52.339 160.893  30.949  0.00  0.00    -0.505 OA
ATOM     18  H   UNL     1      53.080 160.631  30.439  0.00  0.00    +0.292 HD
ENDBRANCH   6  17
BRANCH  15  19
ATOM     19  O   UNL     1      53.322 159.146  29.421  0.00  0.00    -0.505 OA
ATOM     20  H   UNL     1      53.418 159.960  29.875  0.00  0.00    +0.292 HD
ENDBRANCH  15  19
ENDBRANCH   1   2
BRANCH   1  23
ATOM     21  C   UNL     1      53.401 153.436  26.783  0.00  0.00    +0.106 C 
ATOM     22  N   UNL     1      52.416 154.361  27.019  0.00  0.00    -0.143 NA
ATOM     23  N   UNL     1      51.650 154.361  28.071  0.00  0.00    -0.012 N 
ATOM     24  C   UNL     1      51.806 153.417  29.001  0.00  0.00    +0.303 C 
ATOM     25  O   UNL     1      51.053 153.382  30.065  0.00  0.00    -0.265 OA
ATOM     26  C   UNL     1      52.747 152.435  28.893  0.00  0.00    +0.064 C 
ATOM     27  C   UNL     1      53.574 152.453  27.731  0.00  0.00    +0.023 C 
BRANCH  21  28
ATOM     28  C   UNL     1      54.157 153.555  25.561  0.00  0.00    +0.156 C 
ATOM     29  N   UNL     1      55.540 153.212  25.581  0.00  0.00    -0.284 NA
ATOM     30  C   UNL     1      55.696 151.817  25.769  0.00  0.00    +0.081 C 
ATOM     31  C   UNL     1      54.963 151.085  24.670  0.00  0.00    +0.076 C 
ATOM     32  S   UNL     1      53.609 152.249  24.336  0.00  0.00    -0.117 S 
ATOM     33  H   UNL     1      55.999 153.708  26.345  0.00  0.00    +0.124 HD
BRANCH  28  35
ATOM     34 CL   UNL     1      52.460 154.834  23.856  0.00  0.00    -0.083 Cl
ATOM     35  C   UNL     1      53.989 154.843  24.788  0.00  0.00    +0.184 C 
ATOM     36  O   UNL     1      53.964 155.931  25.616  0.00  0.00    -0.342 OA
ATOM     37  C   UNL     1      54.512 157.031  24.973  0.00  0.00    +0.144 C 
ATOM     38  C   UNL     1      55.409 156.553  23.873  0.00  0.00    +0.036 C 
ATOM     39  C   UNL     1      55.186 155.073  23.875  0.00  0.00    +0.048 C 
ENDBRANCH  28  35
ENDBRANCH  21  28
ENDBRANCH   1  23
TORSDOF 6
