MODEL 1
REMARK VINA RESULT:    -6.420      0.000      0.000
REMARK INTER + INTRA:         -14.975
REMARK INTER:                 -10.925
REMARK INTRA:                  -4.051
REMARK UNBOUND:                -4.051
REMARK  Name = =
REMARK  15 active torsions:
REMARK  status: ('A' for Active; 'I' for Inactive)
REMARK    1  A    between atoms: C_1  and  C_2
REMARK    2  A    between atoms: C_1  and  P_10
REMARK    3  A    between atoms: C_1  and  O_11
REMARK    4  A    between atoms: C_1  and  P_23
REMARK    5  A    between atoms: C_2  and  C_3
REMARK    6  A    between atoms: P_10  and  C_12
REMARK    7  A    between atoms: P_10  and  O_18
REMARK    8  A    between atoms: P_10  and  O_19
REMARK    9  A    between atoms: C_12  and  C_14
REMARK   10  A    between atoms: N_16  and  O_17
REMARK   11  A    between atoms: O_19  and  C_20
REMARK   12  A    between atoms: C_20  and  O_22
REMARK   13  A    between atoms: P_23  and  O_25
REMARK   14  A    between atoms: P_23  and  O_26
REMARK   15  A    between atoms: O_26  and  N_27
REMARK                            x       y       z     vdW  Elec       q    Type
REMARK                         _______ _______ _______ _____ _____    ______ ____
ROOT
ATOM      1  C   UNL     1      60.985 165.665  37.120  0.00  0.00    +0.263 C 
ENDROOT
BRANCH   1   2
ATOM      2  O   UNL     1      60.055 164.390  36.154  0.00  0.00    -0.368 OA
ATOM      3  H   UNL     1      59.193 164.234  36.572  0.00  0.00    +0.212 HD
ENDBRANCH   1   2
BRANCH   1   4
ATOM      4  P   UNL     1      61.037 164.114  38.176  0.00  0.00    +0.392 P 
ATOM      5  O   UNL     1      62.070 163.215  37.593  0.00  0.00    -0.253 OA
BRANCH   4   6
ATOM      6  O   UNL     1      61.531 164.674  39.681  0.00  0.00    -0.321 OA
ATOM      7  H   UNL     1      61.288 165.608  39.775  0.00  0.00    +0.220 HD
ENDBRANCH   4   6
BRANCH   4   8
ATOM      8  O   UNL     1      59.510 163.464  38.302  0.00  0.00    -0.184 OA
BRANCH   8   9
ATOM      9  N   UNL     1      59.486 162.132  38.440  0.00  0.00    -0.088 N 
ATOM     10  C   UNL     1      59.061 161.253  37.403  0.00  0.00    +0.339 C 
ATOM     11  O   UNL     1      58.691 161.716  36.307  0.00  0.00    -0.250 OA
ATOM     12  N   UNL     1      59.055 159.842  37.600  0.00  0.00    -0.237 N 
ATOM     13  C   UNL     1      59.480 159.338  38.852  0.00  0.00    +0.239 C 
ATOM     14  O   UNL     1      59.108 158.212  39.271  0.00  0.00    -0.274 OA
ATOM     15  C   UNL     1      60.385 160.148  39.693  0.00  0.00    +0.173 C 
ATOM     16  C   UNL     1      59.898 161.553  39.670  0.00  0.00    +0.265 C 
ATOM     17  O   UNL     1      59.867 162.203  40.766  0.00  0.00    -0.272 OA
ATOM     18  H   UNL     1      58.763 159.233  36.884  0.00  0.00    +0.159 HD
ENDBRANCH   8   9
ENDBRANCH   4   8
ENDBRANCH   1   4
BRANCH   1  19
ATOM     19  C   UNL     1      61.062 166.734  37.846  0.00  0.00    +0.136 C 
BRANCH  19  20
ATOM     20  C   UNL     1      61.305 168.110  37.792  0.00  0.00    +0.255 C 
ATOM     21  N   UNL     1      61.998 168.914  36.891  0.00  0.00    -0.117 N 
ATOM     22  N   UNL     1      62.595 168.673  35.733  0.00  0.00    -0.045 NA
ATOM     23  N   UNL     1      63.091 169.754  35.180  0.00  0.00    -0.024 NA
ATOM     24  N   UNL     1      62.832 170.761  35.969  0.00  0.00    -0.107 NA
ATOM     25  C   UNL     1      62.173 170.279  37.008  0.00  0.00    +0.217 C 
ATOM     26  O   UNL     1      60.784 168.801  38.791  0.00  0.00    -0.273 OA
ENDBRANCH  19  20
ENDBRANCH   1  19
BRANCH   1  27
ATOM     27  P   UNL     1      60.858 165.390  35.433  0.00  0.00    +0.275 P 
BRANCH  27  28
ATOM     28  C   UNL     1      59.598 166.222  34.498  0.00  0.00    +0.302 C 
ATOM     29  O   UNL     1      58.518 165.689  34.294  0.00  0.00    -0.276 OA
BRANCH  28  30
ATOM     30  C   UNL     1      59.785 167.555  33.941  0.00  0.00    +0.312 C 
ATOM     31  O   UNL     1      58.816 168.350  33.945  0.00  0.00    -0.264 OA
ATOM     32  N   UNL     1      61.020 167.998  33.392  0.00  0.00    -0.191 N 
ATOM     33  H   UNL     1      61.805 167.404  33.371  0.00  0.00    +0.183 HD
BRANCH  32  34
ATOM     34  O   UNL     1      61.088 169.249  32.902  0.00  0.00    -0.295 OA
ATOM     35  H   UNL     1      61.988 169.424  32.585  0.00  0.00    +0.241 HD
ENDBRANCH  32  34
ENDBRANCH  28  30
ENDBRANCH  27  28
BRANCH  27  36
ATOM     36  O   UNL     1      60.431 163.743  35.544  0.00  0.00    -0.339 OA
ATOM     37  H   UNL     1      59.481 163.667  35.727  0.00  0.00    +0.218 HD
ENDBRANCH  27  36
BRANCH  27  38
ATOM     38  O   UNL     1      62.362 164.957  34.717  0.00  0.00    -0.384 OA
BRANCH  38  39
ATOM     39  C   UNL     1      63.488 165.703  34.659  0.00  0.00    +0.512 C 
ATOM     40  O   UNL     1      64.454 165.386  35.421  0.00  0.00    -0.203 OA
BRANCH  39  41
ATOM     41  O   UNL     1      63.706 166.821  33.819  0.00  0.00    -0.449 OA
ATOM     42  H   UNL     1      63.004 167.412  33.636  0.00  0.00    +0.299 HD
ENDBRANCH  39  41
ENDBRANCH  38  39
ENDBRANCH  27  38
ENDBRANCH   1  27
TORSDOF 15
ENDMDL
