MODEL 1
REMARK VINA RESULT:    -8.898      0.000      0.000
REMARK INTER + INTRA:         -10.077
REMARK INTER:                  -9.939
REMARK INTRA:                  -0.138
REMARK UNBOUND:                -0.138
REMARK  Name = =
REMARK  2 active torsions:
REMARK  status: ('A' for Active; 'I' for Inactive)
REMARK    1  A    between atoms: C_1  and  S_19
REMARK    2  A    between atoms: S_19  and  N_20
REMARK                            x       y       z     vdW  Elec       q    Type
REMARK                         _______ _______ _______ _____ _____    ______ ____
ROOT
ATOM      1  C   UNL     1      54.384 160.026  42.206  0.00  0.00    +0.302 C 
ATOM      2  O   UNL     1      54.365 158.780  42.339  0.00  0.00    -0.260 OA
ATOM      3  N   UNL     1      53.190 160.774  42.075  0.00  0.00    -0.230 N 
ATOM      4  C   UNL     1      51.958 160.231  42.081  0.00  0.00    +0.044 C 
ATOM      5  C   UNL     1      51.026 161.221  41.935  0.00  0.00    +0.082 C 
ATOM      6  C   UNL     1      51.678 162.411  41.835  0.00  0.00    +0.003 C 
ATOM      7  C   UNL     1      53.042 162.125  41.923  0.00  0.00    +0.069 C 
ATOM      8  C   UNL     1      50.927 163.661  41.669  0.00  0.00    +0.012 C 
ATOM      9  C   UNL     1      49.468 163.561  41.578  0.00  0.00    +0.040 C 
ATOM     10  N   UNL     1      48.832 164.412  40.636  0.00  0.00    -0.333 N 
ATOM     11  C   UNL     1      47.436 164.191  40.458  0.00  0.00    +0.087 C 
ATOM     12  C   UNL     1      46.768 163.408  41.549  0.00  0.00    +0.026 C 
ATOM     13  C   UNL     1      47.550 162.128  41.724  0.00  0.00    +0.029 C 
ATOM     14  C   UNL     1      48.861 162.227  41.734  0.00  0.00    -0.012 C 
ATOM     15  C   UNL     1      49.671 161.018  41.899  0.00  0.00    -0.016 C 
ATOM     16  C   UNL     1      49.142 159.748  42.013  0.00  0.00    -0.004 C 
ATOM     17  C   UNL     1      50.042 158.720  42.162  0.00  0.00    +0.001 C 
ATOM     18  C   UNL     1      51.428 158.938  42.197  0.00  0.00    +0.011 C 
ATOM     19  H   UNL     1      49.321 165.107  40.140  0.00  0.00    +0.147 HD
ENDROOT
BRANCH   1  20
ATOM     20  S   UNL     1      55.939 160.907  42.177  0.00  0.00    +0.045 S 
BRANCH  20  21
ATOM     21  N   UNL     1      57.211 159.903  41.509  0.00  0.00    -0.213 N 
ATOM     22  C   UNL     1      57.837 160.092  40.347  0.00  0.00    +0.178 C 
ATOM     23  N   UNL     1      58.767 159.106  40.166  0.00  0.00    -0.224 NA
ATOM     24  C   UNL     1      58.700 158.308  41.241  0.00  0.00    +0.117 C 
ATOM     25  C   UNL     1      57.723 158.807  42.085  0.00  0.00    +0.099 C 
ENDBRANCH  20  21
ENDBRANCH   1  20
TORSDOF 2
ENDMDL
