REMARK  Name = =
REMARK  1 active torsions:
REMARK  status: ('A' for Active; 'I' for Inactive)
REMARK    1  A    between atoms: C_7  and  S_15
REMARK                            x       y       z     vdW  Elec       q    Type
REMARK                         _______ _______ _______ _____ _____    ______ ____
ROOT
ATOM      1  C   UNL     1      -3.118  -3.777  31.058  0.00  0.00    +0.017 C 
ATOM      2  C   UNL     1      -2.694  -5.113  31.053  0.00  0.00    +0.081 C 
ATOM      3  N   UNL     1      -1.673  -5.408  30.227  0.00  0.00    -0.250 NA
ATOM      4  C   UNL     1      -1.072  -4.499  29.440  0.00  0.00    +0.060 C 
ATOM      5  C   UNL     1      -1.473  -3.198  29.434  0.00  0.00    +0.005 C 
ATOM      6  C   UNL     1      -2.512  -2.832  30.255  0.00  0.00    -0.000 C 
ATOM      7  C   UNL     1      -0.823  -2.210  28.580  0.00  0.00    +0.089 C 
ATOM      8  C   UNL     1       0.622  -2.445  28.319  0.00  0.00    -0.016 C 
ATOM      9  C   UNL     1       1.109  -3.836  28.454  0.00  0.00    -0.023 C 
ATOM     10  C   UNL     1       0.052  -4.891  28.550  0.00  0.00    +0.071 C 
ATOM     11  C   UNL     1      -3.304  -6.043  31.856  0.00  0.00    +0.019 C 
ATOM     12  C   UNL     1      -4.343  -5.704  32.685  0.00  0.00    +0.002 C 
ATOM     13  C   UNL     1      -4.791  -4.382  32.714  0.00  0.00    +0.000 C 
ATOM     14  C   UNL     1      -4.161  -3.468  31.899  0.00  0.00    +0.001 C 
ENDROOT
BRANCH   7  15
ATOM     15  S   UNL     1      -1.738  -2.180  26.992  0.00  0.00    -0.160 S 
ATOM     16  H   UNL     1      -3.059  -1.965  27.234  0.00  0.00    +0.103 HD
ENDBRANCH   7  15
TORSDOF 1
