REMARK  Name = =
REMARK  0 active torsions:
REMARK  status: ('A' for Active; 'I' for Inactive)
REMARK                            x       y       z     vdW  Elec       q    Type
REMARK                         _______ _______ _______ _____ _____    ______ ____
ROOT
ATOM      1  N   UNL     1      52.259 156.661  27.918  0.00  0.00    -0.333 N 
ATOM      2  C   UNL     1      51.849 155.972  29.130  0.00  0.00    +0.087 C 
ATOM      3  C   UNL     1      52.013 154.479  28.989  0.00  0.00    +0.026 C 
ATOM      4  C   UNL     1      51.507 154.030  27.630  0.00  0.00    +0.029 C 
ATOM      5  C   UNL     1      52.429 154.626  26.616  0.00  0.00    -0.009 C 
ATOM      6  C   UNL     1      52.909 153.902  25.548  0.00  0.00    -0.003 C 
ATOM      7  C   UNL     1      53.768 154.525  24.637  0.00  0.00    -0.000 C 
ATOM      8  C   UNL     1      54.132 155.844  24.798  0.00  0.00    +0.001 C 
ATOM      9  C   UNL     1      53.626 156.526  25.881  0.00  0.00    +0.014 C 
ATOM     10  C   UNL     1      52.778 155.950  26.801  0.00  0.00    +0.041 C 
ATOM     11  H   UNL     1      52.176 157.641  27.869  0.00  0.00    +0.147 HD
ENDROOT
TORSDOF 0
