REMARK  Name = =
REMARK  1 active torsions:
REMARK  status: ('A' for Active; 'I' for Inactive)
REMARK    1  A    between atoms: C_1  and  S_13
REMARK                            x       y       z     vdW  Elec       q    Type
REMARK                         _______ _______ _______ _____ _____    ______ ____
ROOT
ATOM      1  C   UNL     1      52.372 156.721  28.399  0.00  0.00    +0.276 C 
ATOM      2  O   UNL     1      53.261 157.574  28.208  0.00  0.00    -0.263 OA
ATOM      3  N   UNL     1      52.171 155.540  27.662  0.00  0.00    -0.251 N 
ATOM      4  C   UNL     1      51.155 154.554  28.029  0.00  0.00    +0.099 C 
ATOM      5  C   UNL     1      51.907 153.235  28.183  0.00  0.00    +0.027 C 
ATOM      6  C   UNL     1      52.466 152.791  26.875  0.00  0.00    +0.029 C 
ATOM      7  C   UNL     1      53.125 153.892  26.134  0.00  0.00    -0.008 C 
ATOM      8  C   UNL     1      53.906 153.596  25.024  0.00  0.00    -0.003 C 
ATOM      9  C   UNL     1      54.536 154.560  24.278  0.00  0.00    -0.000 C 
ATOM     10  C   UNL     1      54.370 155.873  24.666  0.00  0.00    +0.001 C 
ATOM     11  C   UNL     1      53.591 156.182  25.773  0.00  0.00    +0.015 C 
ATOM     12  C   UNL     1      52.967 155.208  26.513  0.00  0.00    +0.051 C 
ENDROOT
BRANCH   1  13
ATOM     13  S   UNL     1      51.260 157.101  29.780  0.00  0.00    -0.085 S 
ATOM     14  H   UNL     1      51.631 158.279  30.350  0.00  0.00    +0.111 HD
ENDBRANCH   1  13
TORSDOF 1
