REMARK  Name = =
REMARK  6 active torsions:
REMARK  status: ('A' for Active; 'I' for Inactive)
REMARK    1  A    between atoms: S_1  and  C_2
REMARK    2  A    between atoms: S_1  and  C_11
REMARK    3  A    between atoms: S_1  and  S_14
REMARK    4  A    between atoms: C_11  and  N_13
REMARK    5  A    between atoms: S_14  and  C_15
REMARK    6  A    between atoms: C_15  and  N_17
REMARK                            x       y       z     vdW  Elec       q    Type
REMARK                         _______ _______ _______ _____ _____    ______ ____
ROOT
ATOM      1  S   UNL     1      51.317 154.887  27.951  0.00  0.00    -0.123 S 
ATOM      2  H   UNL     1      50.208 154.946  27.167  0.00  0.00    +0.104 HD
ENDROOT
BRANCH   1   3
ATOM      3  C   UNL     1      52.510 154.990  26.732  0.00  0.00    +0.023 C 
ATOM      4  C   UNL     1      52.831 156.225  26.195  0.00  0.00    +0.046 C 
ATOM      5  C   UNL     1      53.787 156.381  25.205  0.00  0.00    +0.177 C 
ATOM      6  C   UNL     1      54.459 155.285  24.718  0.00  0.00    +0.176 C 
ATOM      7  C   UNL     1      54.162 154.038  25.232  0.00  0.00    +0.041 C 
ATOM      8  C   UNL     1      53.207 153.912  26.216  0.00  0.00    +0.009 C 
ATOM      9  O   UNL     1      55.368 155.641  23.741  0.00  0.00    -0.435 OA
ATOM     10  C   UNL     1      55.417 157.063  23.766  0.00  0.00    +0.429 C 
ATOM     11  O   UNL     1      54.285 157.480  24.513  0.00  0.00    -0.435 OA
ENDBRANCH   1   3
BRANCH   1  12
ATOM     12  C   UNL     1      51.602 153.503  28.860  0.00  0.00    +0.098 C 
ATOM     13  S   UNL     1      51.687 152.037  28.143  0.00  0.00    -0.029 S 
BRANCH  12  14
ATOM     14  N   UNL     1      51.779 153.537  30.259  0.00  0.00    -0.348 N 
ATOM     15  H   UNL     1      51.737 154.395  30.740  0.00  0.00    +0.143 HD
ATOM     16  H   UNL     1      51.944 152.703  30.755  0.00  0.00    +0.143 HD
ENDBRANCH  12  14
ENDBRANCH   1  12
BRANCH   1  17
ATOM     17  S   UNL     1      51.042 156.070  29.037  0.00  0.00    -0.046 S 
BRANCH  17  18
ATOM     18  C   UNL     1      51.952 157.431  29.172  0.00  0.00    +0.114 C 
ATOM     19  S   UNL     1      53.562 157.501  28.787  0.00  0.00    -0.028 S 
BRANCH  18  20
ATOM     20  N   UNL     1      51.430 158.697  29.640  0.00  0.00    -0.346 N 
ATOM     21  H   UNL     1      50.483 158.774  29.898  0.00  0.00    +0.143 HD
ATOM     22  H   UNL     1      52.022 159.481  29.700  0.00  0.00    +0.143 HD
ENDBRANCH  18  20
ENDBRANCH  17  18
ENDBRANCH   1  17
TORSDOF 6
