REMARK  Name = =
REMARK  3 active torsions:
REMARK  status: ('A' for Active; 'I' for Inactive)
REMARK    1  A    between atoms: S_1  and  C_2
REMARK    2  A    between atoms: S_1  and  C_14
REMARK    3  A    between atoms: C_21  and  C_24
REMARK                            x       y       z     vdW  Elec       q    Type
REMARK                         _______ _______ _______ _____ _____    ______ ____
ROOT
ATOM      1  S   UNL     1      51.684 157.589  28.707  0.00  0.00    -0.056 S 
ENDROOT
BRANCH   1   2
ATOM      2  C   UNL     1      50.304 157.673  29.817  0.00  0.00    +0.280 C 
ATOM      3  O   UNL     1      49.491 156.679  29.892  0.00  0.00    -0.262 OA
ATOM      4  N   UNL     1      49.984 158.753  30.657  0.00  0.00    -0.251 N 
ATOM      5  C   UNL     1      48.747 158.797  31.453  0.00  0.00    +0.099 C 
ATOM      6  C   UNL     1      48.011 160.022  31.003  0.00  0.00    +0.027 C 
ATOM      7  C   UNL     1      48.785 161.287  30.981  0.00  0.00    +0.029 C 
ATOM      8  C   UNL     1      50.239 161.167  30.927  0.00  0.00    -0.008 C 
ATOM      9  C   UNL     1      51.033 162.274  31.032  0.00  0.00    -0.003 C 
ATOM     10  C   UNL     1      52.394 162.111  30.984  0.00  0.00    -0.000 C 
ATOM     11  C   UNL     1      52.989 160.854  30.832  0.00  0.00    +0.001 C 
ATOM     12  C   UNL     1      52.186 159.733  30.726  0.00  0.00    +0.015 C 
ATOM     13  C   UNL     1      50.819 159.898  30.774  0.00  0.00    +0.051 C 
ENDBRANCH   1   2
BRANCH   1  14
ATOM     14  C   UNL     1      52.220 155.889  28.378  0.00  0.00    +0.076 C 
ATOM     15  C   UNL     1      52.689 155.038  29.504  0.00  0.00    +0.045 C 
ATOM     16  C   UNL     1      51.620 153.995  29.603  0.00  0.00    +0.143 C 
ATOM     17  O   UNL     1      50.979 154.004  28.423  0.00  0.00    -0.357 OA
ATOM     18  C   UNL     1      51.316 155.012  27.599  0.00  0.00    +0.107 C 
ATOM     19  C   UNL     1      52.485 155.437  27.026  0.00  0.00    +0.046 C 
ATOM     20  C   UNL     1      53.602 155.719  26.312  0.00  0.00    +0.040 C 
ATOM     21  C   UNL     1      53.656 154.973  25.169  0.00  0.00    +0.042 C 
ATOM     22  C   UNL     1      52.454 154.148  25.178  0.00  0.00    -0.018 C 
ATOM     23  C   UNL     1      51.780 154.422  26.264  0.00  0.00    +0.052 C 
BRANCH  21  24
ATOM     24  C   UNL     1      54.685 155.006  24.176  0.00  0.00    +0.096 C 
ATOM     25  N   UNL     1      55.548 155.041  23.370  0.00  0.00    -0.191 NA
ENDBRANCH  21  24
ENDBRANCH   1  14
TORSDOF 3
