REMARK  Name = =
REMARK  9 active torsions:
REMARK  status: ('A' for Active; 'I' for Inactive)
REMARK    1  A    between atoms: S_1  and  C_2
REMARK    2  A    between atoms: S_1  and  C_11
REMARK    3  A    between atoms: S_1  and  S_23
REMARK    4  A    between atoms: C_11  and  N_13
REMARK    5  A    between atoms: N_13  and  C_14
REMARK    6  A    between atoms: C_14  and  C_19
REMARK    7  A    between atoms: C_20  and  C_21
REMARK    8  A    between atoms: S_23  and  C_24
REMARK    9  A    between atoms: C_24  and  N_26
REMARK                            x       y       z     vdW  Elec       q    Type
REMARK                         _______ _______ _______ _____ _____    ______ ____
ROOT
ATOM      1  S   UNL     1      51.746 154.668  27.493  0.00  0.00    -0.123 S 
ATOM      2  H   UNL     1      50.594 155.339  27.225  0.00  0.00    +0.104 HD
ENDROOT
BRANCH   1   3
ATOM      3  C   UNL     1      52.663 155.405  26.312  0.00  0.00    +0.023 C 
ATOM      4  C   UNL     1      53.565 156.418  26.619  0.00  0.00    +0.046 C 
ATOM      5  C   UNL     1      54.334 157.042  25.659  0.00  0.00    +0.177 C 
ATOM      6  C   UNL     1      54.233 156.677  24.342  0.00  0.00    +0.176 C 
ATOM      7  C   UNL     1      53.344 155.674  24.010  0.00  0.00    +0.041 C 
ATOM      8  C   UNL     1      52.581 155.059  24.982  0.00  0.00    +0.009 C 
ATOM      9  O   UNL     1      55.103 157.445  23.567  0.00  0.00    -0.435 OA
ATOM     10  C   UNL     1      56.034 158.039  24.470  0.00  0.00    +0.429 C 
ATOM     11  O   UNL     1      55.296 158.062  25.678  0.00  0.00    -0.435 OA
ENDBRANCH   1   3
BRANCH   1  12
ATOM     12  C   UNL     1      51.778 152.968  27.334  0.00  0.00    +0.101 C 
ATOM     13  S   UNL     1      51.546 152.041  28.662  0.00  0.00    -0.029 S 
BRANCH  12  14
ATOM     14  N   UNL     1      51.991 152.283  26.111  0.00  0.00    -0.315 N 
ATOM     15  H   UNL     1      51.230 152.221  25.490  0.00  0.00    +0.148 HD
BRANCH  14  16
ATOM     16  C   UNL     1      53.220 151.674  25.704  0.00  0.00    +0.162 C 
ATOM     17  C   UNL     1      53.751 152.069  24.339  0.00  0.00    +0.121 C 
ATOM     18  N   UNL     1      55.053 152.068  24.929  0.00  0.00    -0.300 N 
ATOM     19  C   UNL     1      54.455 152.278  26.195  0.00  0.00    +0.244 C 
ATOM     20  O   UNL     1      54.873 152.782  27.256  0.00  0.00    -0.273 OA
ATOM     21  H   UNL     1      55.974 151.965  24.596  0.00  0.00    +0.150 HD
BRANCH  16  22
ATOM     22  C   UNL     1      53.236 150.208  25.931  0.00  0.00    +0.002 C 
ATOM     23  C   UNL     1      53.184 149.355  24.916  0.00  0.00    -0.002 C 
BRANCH  23  24
ATOM     24  C   UNL     1      53.199 147.917  25.104  0.00  0.00    -0.000 C 
ATOM     25  C   UNL     1      52.496 147.137  24.311  0.00  0.00    -0.000 C 
ENDBRANCH  23  24
ENDBRANCH  16  22
ENDBRANCH  14  16
ENDBRANCH  12  14
ENDBRANCH   1  12
BRANCH   1  26
ATOM     26  S   UNL     1      52.054 154.862  29.132  0.00  0.00    -0.046 S 
BRANCH  26  27
ATOM     27  C   UNL     1      50.930 155.396  30.210  0.00  0.00    +0.114 C 
ATOM     28  S   UNL     1      50.176 156.866  30.030  0.00  0.00    -0.028 S 
BRANCH  27  29
ATOM     29  N   UNL     1      50.520 154.661  31.353  0.00  0.00    -0.346 N 
ATOM     30  H   UNL     1      50.915 153.778  31.538  0.00  0.00    +0.143 HD
ATOM     31  H   UNL     1      49.841 155.034  31.960  0.00  0.00    +0.143 HD
ENDBRANCH  27  29
ENDBRANCH  26  27
ENDBRANCH   1  26
TORSDOF 9
