REMARK  Name = =
REMARK  2 active torsions:
REMARK  status: ('A' for Active; 'I' for Inactive)
REMARK    1  A    between atoms: C_1  and  N_10
REMARK    2  A    between atoms: N_10  and  C_11
REMARK                            x       y       z     vdW  Elec       q    Type
REMARK                         _______ _______ _______ _____ _____    ______ ____
ROOT
ATOM      1  C   UNL     1      49.671 158.300  30.455  0.00  0.00    +0.052 C 
ATOM      2  C   UNL     1      48.881 158.847  31.437  0.00  0.00    +0.055 C 
ATOM      3  C   UNL     1      49.207 160.048  32.062  0.00  0.00    +0.178 C 
ATOM      4  C   UNL     1      50.365 160.668  31.648  0.00  0.00    +0.177 C 
ATOM      5  C   UNL     1      51.192 160.160  30.667  0.00  0.00    +0.041 C 
ATOM      6  C   UNL     1      50.821 158.951  30.070  0.00  0.00    +0.018 C 
ATOM      7  O   UNL     1      50.459 161.829  32.417  0.00  0.00    -0.435 OA
ATOM      8  C   UNL     1      49.180 162.095  32.993  0.00  0.00    +0.429 C 
ATOM      9  O   UNL     1      48.627 160.818  33.048  0.00  0.00    -0.435 OA
ENDROOT
BRANCH   1  10
ATOM     10  N   UNL     1      49.344 157.068  29.809  0.00  0.00    -0.311 N 
ATOM     11  H   UNL     1      48.400 156.866  29.615  0.00  0.00    +0.152 HD
BRANCH  10  12
ATOM     12  C   UNL     1      50.330 156.137  29.443  0.00  0.00    +0.062 C 
ATOM     13  C   UNL     1      50.933 155.379  30.336  0.00  0.00    +0.017 C 
ENDBRANCH  10  12
ENDBRANCH   1  10
TORSDOF 2
