REMARK  Name = =
REMARK  0 active torsions:
REMARK  status: ('A' for Active; 'I' for Inactive)
REMARK                            x       y       z     vdW  Elec       q    Type
REMARK                         _______ _______ _______ _____ _____    ______ ____
ROOT
ATOM      1  S   UNL     1      56.456 152.037  29.727  0.00  0.00    -0.080 S 
ATOM      2  S   UNL     1      54.686 153.037  29.141  0.00  0.00    -0.082 S 
ATOM      3  C   UNL     1      53.675 153.540  30.539  0.00  0.00    +0.078 C 
ATOM      4  C   UNL     1      52.194 153.500  30.220  0.00  0.00    +0.098 C 
ATOM      5  C   UNL     1      51.545 154.821  30.447  0.00  0.00    +0.224 C 
ATOM      6  O   UNL     1      51.121 155.056  31.615  0.00  0.00    -0.275 OA
ATOM      7  N   UNL     1      51.397 155.788  29.413  0.00  0.00    -0.297 N 
ATOM      8  C   UNL     1      52.394 155.996  28.403  0.00  0.00    +0.176 C 
ATOM      9  C   UNL     1      51.826 156.877  27.344  0.00  0.00    +0.243 C 
ATOM     10  O   UNL     1      51.216 157.915  27.774  0.00  0.00    -0.273 OA
ATOM     11  N   UNL     1      51.939 156.609  25.973  0.00  0.00    -0.295 N 
ATOM     12  C   UNL     1      51.878 155.266  25.411  0.00  0.00    +0.176 C 
ATOM     13  C   UNL     1      52.387 155.243  24.027  0.00  0.00    +0.243 C 
ATOM     14  O   UNL     1      51.576 154.999  23.081  0.00  0.00    -0.273 OA
ATOM     15  N   UNL     1      53.740 155.482  23.711  0.00  0.00    -0.295 N 
ATOM     16  C   UNL     1      54.854 155.010  24.515  0.00  0.00    +0.176 C 
ATOM     17  C   UNL     1      55.932 154.514  23.622  0.00  0.00    +0.243 C 
ATOM     18  O   UNL     1      55.999 155.037  22.470  0.00  0.00    -0.273 OA
ATOM     19  N   UNL     1      56.861 153.522  23.975  0.00  0.00    -0.295 N 
ATOM     20  C   UNL     1      56.809 152.702  25.147  0.00  0.00    +0.176 C 
ATOM     21  C   UNL     1      57.807 153.152  26.173  0.00  0.00    +0.243 C 
ATOM     22  O   UNL     1      58.490 154.179  25.925  0.00  0.00    -0.273 OA
ATOM     23  N   UNL     1      57.949 152.418  27.376  0.00  0.00    -0.302 N 
ATOM     24  C   UNL     1      57.712 150.994  27.498  0.00  0.00    +0.102 C 
ATOM     25  C   UNL     1      56.773 150.645  28.612  0.00  0.00    +0.090 C 
ATOM     26  H   UNL     1      50.579 156.335  29.390  0.00  0.00    +0.150 HD
ATOM     27  H   UNL     1      52.066 157.367  25.358  0.00  0.00    +0.150 HD
ATOM     28  H   UNL     1      53.942 155.999  22.898  0.00  0.00    +0.150 HD
ATOM     29  H   UNL     1      57.617 153.377  23.361  0.00  0.00    +0.150 HD
ATOM     30  H   UNL     1      58.227 152.908  28.183  0.00  0.00    +0.150 HD
ENDROOT
TORSDOF 0
