REMARK  Name = =
REMARK  1 active torsions:
REMARK  status: ('A' for Active; 'I' for Inactive)
REMARK    1  A    between atoms: S_1  and  C_26
REMARK                            x       y       z     vdW  Elec       q    Type
REMARK                         _______ _______ _______ _____ _____    ______ ____
ROOT
ATOM      1  S   UNL     1      55.309 151.685  29.926  0.00  0.00    -0.158 S 
ATOM      2  S   UNL     1      53.503 152.113  30.001  0.00  0.00    -0.101 S 
ATOM      3  C   UNL     1      53.434 153.847  30.492  0.00  0.00    +0.077 C 
ATOM      4  C   UNL     1      52.055 154.424  30.299  0.00  0.00    +0.097 C 
ATOM      5  C   UNL     1      51.410 153.932  29.059  0.00  0.00    +0.224 C 
ATOM      6  O   UNL     1      51.282 152.687  28.945  0.00  0.00    -0.275 OA
ATOM      7  N   UNL     1      50.929 154.742  28.002  0.00  0.00    -0.297 N 
ATOM      8  C   UNL     1      51.166 156.170  27.923  0.00  0.00    +0.176 C 
ATOM      9  C   UNL     1      52.431 156.496  27.229  0.00  0.00    +0.243 C 
ATOM     10  O   UNL     1      53.474 156.588  27.923  0.00  0.00    -0.273 OA
ATOM     11  N   UNL     1      52.556 156.714  25.830  0.00  0.00    -0.295 N 
ATOM     12  C   UNL     1      51.733 155.972  24.864  0.00  0.00    +0.176 C 
ATOM     13  C   UNL     1      52.382 155.974  23.525  0.00  0.00    +0.243 C 
ATOM     14  O   UNL     1      52.316 157.071  22.877  0.00  0.00    -0.273 OA
ATOM     15  N   UNL     1      53.039 154.852  22.970  0.00  0.00    -0.295 N 
ATOM     16  C   UNL     1      53.857 153.924  23.727  0.00  0.00    +0.176 C 
ATOM     17  C   UNL     1      55.277 154.049  23.288  0.00  0.00    +0.243 C 
ATOM     18  O   UNL     1      55.446 154.376  22.066  0.00  0.00    -0.273 OA
ATOM     19  N   UNL     1      56.384 153.833  24.118  0.00  0.00    -0.295 N 
ATOM     20  C   UNL     1      56.310 153.462  25.509  0.00  0.00    +0.176 C 
ATOM     21  C   UNL     1      57.643 153.025  25.998  0.00  0.00    +0.243 C 
ATOM     22  O   UNL     1      58.659 153.261  25.280  0.00  0.00    -0.273 OA
ATOM     23  N   UNL     1      57.844 152.360  27.223  0.00  0.00    -0.302 N 
ATOM     24  C   UNL     1      56.899 151.375  27.756  0.00  0.00    +0.100 C 
ATOM     25  C   UNL     1      55.585 152.006  28.129  0.00  0.00    +0.069 C 
ATOM     26  H   UNL     1      55.570 150.437  30.399  0.00  0.00    +0.096 HD
ATOM     27  H   UNL     1      50.408 154.314  27.285  0.00  0.00    +0.150 HD
ATOM     28  H   UNL     1      53.207 157.375  25.501  0.00  0.00    +0.150 HD
ATOM     29  H   UNL     1      52.934 154.690  22.005  0.00  0.00    +0.150 HD
ATOM     30  H   UNL     1      57.279 153.943  23.722  0.00  0.00    +0.150 HD
ATOM     31  H   UNL     1      58.654 152.566  27.743  0.00  0.00    +0.150 HD
ENDROOT
BRANCH   1  32
ATOM     32  C   UNL     1      56.422 152.556  30.964  0.00  0.00    +0.182 C 
ATOM     33  C   UNL     1      56.612 152.014  32.316  0.00  0.00    +0.183 C 
ATOM     34  O   UNL     1      57.630 151.995  31.295  0.00  0.00    -0.340 OA
ENDBRANCH   1  32
TORSDOF 1
