REMARK  Name = =
REMARK  2 active torsions:
REMARK  status: ('A' for Active; 'I' for Inactive)
REMARK    1  A    between atoms: S_1  and  C_26
REMARK    2  A    between atoms: C_26  and  N_29
REMARK                            x       y       z     vdW  Elec       q    Type
REMARK                         _______ _______ _______ _____ _____    ______ ____
ROOT
ATOM      1  S   UNL     1      51.300 158.076  28.740  0.00  0.00    -0.147 S 
ATOM      2  S   UNL     1      52.218 158.412  26.991  0.00  0.00    -0.100 S 
ATOM      3  C   UNL     1      53.975 158.252  27.404  0.00  0.00    +0.077 C 
ATOM      4  C   UNL     1      54.692 157.359  26.434  0.00  0.00    +0.097 C 
ATOM      5  C   UNL     1      53.906 157.118  25.201  0.00  0.00    +0.224 C 
ATOM      6  O   UNL     1      53.390 158.136  24.629  0.00  0.00    -0.275 OA
ATOM      7  N   UNL     1      53.741 155.812  24.688  0.00  0.00    -0.297 N 
ATOM      8  C   UNL     1      53.588 154.631  25.505  0.00  0.00    +0.176 C 
ATOM      9  C   UNL     1      54.591 153.599  25.145  0.00  0.00    +0.243 C 
ATOM     10  O   UNL     1      55.335 153.824  24.148  0.00  0.00    -0.273 OA
ATOM     11  N   UNL     1      54.771 152.396  25.829  0.00  0.00    -0.295 N 
ATOM     12  C   UNL     1      53.755 151.663  26.546  0.00  0.00    +0.176 C 
ATOM     13  C   UNL     1      54.027 151.824  27.995  0.00  0.00    +0.243 C 
ATOM     14  O   UNL     1      54.476 152.965  28.362  0.00  0.00    -0.273 OA
ATOM     15  N   UNL     1      53.838 150.851  28.976  0.00  0.00    -0.295 N 
ATOM     16  C   UNL     1      52.739 149.933  29.099  0.00  0.00    +0.176 C 
ATOM     17  C   UNL     1      51.538 150.326  28.335  0.00  0.00    +0.243 C 
ATOM     18  O   UNL     1      51.392 149.764  27.195  0.00  0.00    -0.273 OA
ATOM     19  N   UNL     1      50.564 151.260  28.772  0.00  0.00    -0.295 N 
ATOM     20  C   UNL     1      50.874 152.533  29.390  0.00  0.00    +0.176 C 
ATOM     21  C   UNL     1      50.641 153.653  28.442  0.00  0.00    +0.243 C 
ATOM     22  O   UNL     1      50.579 153.337  27.227  0.00  0.00    -0.273 OA
ATOM     23  N   UNL     1      50.495 155.004  28.855  0.00  0.00    -0.302 N 
ATOM     24  C   UNL     1      51.256 155.631  29.917  0.00  0.00    +0.100 C 
ATOM     25  C   UNL     1      52.155 156.675  29.247  0.00  0.00    +0.070 C 
ATOM     26  H   UNL     1      49.960 157.842  28.726  0.00  0.00    +0.097 HD
ATOM     27  H   UNL     1      53.730 155.700  23.710  0.00  0.00    +0.150 HD
ATOM     28  H   UNL     1      55.677 152.011  25.822  0.00  0.00    +0.150 HD
ATOM     29  H   UNL     1      54.539 150.785  29.664  0.00  0.00    +0.150 HD
ATOM     30  H   UNL     1      49.615 151.028  28.647  0.00  0.00    +0.150 HD
ATOM     31  H   UNL     1      49.828 155.555  28.385  0.00  0.00    +0.150 HD
ENDROOT
BRANCH   1  32
ATOM     32  C   UNL     1      51.238 159.483  29.762  0.00  0.00    +0.201 C 
ATOM     33  C   UNL     1      49.929 159.831  30.308  0.00  0.00    +0.197 C 
ATOM     34  O   UNL     1      50.858 159.167  31.122  0.00  0.00    -0.329 OA
BRANCH  32  35
ATOM     35  N   UNL     1      52.304 160.446  29.777  0.00  0.00    -0.236 NA
ATOM     36  C   UNL     1      53.552 159.916  30.302  0.00  0.00    +0.102 C 
ATOM     37  C   UNL     1      54.202 161.084  30.921  0.00  0.00    -0.009 C 
ATOM     38  C   UNL     1      53.260 162.041  31.145  0.00  0.00    -0.009 C 
ATOM     39  C   UNL     1      51.952 161.525  30.684  0.00  0.00    +0.102 C 
ATOM     40  C   UNL     1      53.608 163.266  31.726  0.00  0.00    -0.003 C 
ATOM     41  C   UNL     1      54.907 163.530  32.083  0.00  0.00    -0.000 C 
ATOM     42  C   UNL     1      55.861 162.558  31.856  0.00  0.00    -0.000 C 
ATOM     43  C   UNL     1      55.506 161.353  31.282  0.00  0.00    -0.003 C 
ENDBRANCH  32  35
ENDBRANCH   1  32
TORSDOF 2
