REMARK  Name = =
REMARK  1 active torsions:
REMARK  status: ('A' for Active; 'I' for Inactive)
REMARK    1  A    between atoms: N_1  and  S_5
REMARK                            x       y       z     vdW  Elec       q    Type
REMARK                         _______ _______ _______ _____ _____    ______ ____
ROOT
ATOM      1  N   UNL     1      -2.661  -3.983  29.549  0.00  0.00    -0.176 N 
ATOM      2  C   UNL     1      -1.862  -2.960  28.974  0.00  0.00    +0.316 C 
ATOM      3  O   UNL     1      -2.191  -1.771  29.221  0.00  0.00    -0.251 OA
ATOM      4  N   UNL     1      -0.765  -3.335  28.170  0.00  0.00    -0.312 N 
ATOM      5  H   UNL     1      -2.441  -4.928  29.382  0.00  0.00    +0.177 HD
ATOM      6  H   UNL     1      -0.196  -2.644  27.760  0.00  0.00    +0.147 HD
ATOM      7  H   UNL     1      -0.568  -4.288  28.019  0.00  0.00    +0.147 HD
ENDROOT
BRANCH   1   8
ATOM      8  S   UNL     1      -4.019  -3.580  30.542  0.00  0.00    +0.036 S 
ATOM      9  O   UNL     1      -3.555  -2.547  31.522  0.00  0.00    -0.158 OA
ATOM     10  O   UNL     1      -4.406  -4.813  31.313  0.00  0.00    -0.158 OA
ATOM     11  H   UNL     1      -5.066  -3.127  29.801  0.00  0.00    +0.233 HD
ENDBRANCH   1   8
TORSDOF 1
