REMARK  Name = =
REMARK  4 active torsions:
REMARK  status: ('A' for Active; 'I' for Inactive)
REMARK    1  A    between atoms: C_9  and  S_12
REMARK    2  A    between atoms: S_12  and  C_13
REMARK    3  A    between atoms: C_13  and  N_15
REMARK    4  A    between atoms: N_15  and  O_16
REMARK                            x       y       z     vdW  Elec       q    Type
REMARK                         _______ _______ _______ _____ _____    ______ ____
ROOT
ATOM      1  C   UNL     1      -2.974  -4.575  31.009  0.00  0.00    +0.058 C 
ATOM      2  C   UNL     1      -2.313  -4.008  29.946  0.00  0.00    +0.059 C 
ATOM      3  C   UNL     1      -2.695  -2.603  29.949  0.00  0.00    +0.252 C 
ATOM      4  O   UNL     1      -2.301  -1.743  29.131  0.00  0.00    -0.270 OA
ATOM      5  N   UNL     1      -3.586  -2.324  31.013  0.00  0.00    -0.248 N 
ATOM      6  C   UNL     1      -3.778  -3.545  31.695  0.00  0.00    +0.252 C 
ATOM      7  O   UNL     1      -4.497  -3.752  32.708  0.00  0.00    -0.270 OA
ATOM      8  C   UNL     1      -1.482  -4.791  29.136  0.00  0.00    +0.011 C 
ATOM      9  C   UNL     1      -1.303  -6.135  29.377  0.00  0.00    +0.031 C 
ATOM     10  C   UNL     1      -1.975  -6.684  30.448  0.00  0.00    +0.007 C 
ATOM     11  C   UNL     1      -2.803  -5.910  31.257  0.00  0.00    +0.005 C 
ATOM     12  H   UNL     1      -3.990  -1.454  31.233  0.00  0.00    +0.158 HD
ENDROOT
BRANCH   9  13
ATOM     13  S   UNL     1      -0.261  -7.186  28.387  0.00  0.00    -0.064 S 
BRANCH  13  14
ATOM     14  C   UNL     1       1.433  -7.147  28.925  0.00  0.00    +0.134 C 
ATOM     15  S   UNL     1       2.560  -7.829  27.971  0.00  0.00    -0.026 S 
BRANCH  14  16
ATOM     16  N   UNL     1       1.818  -6.543  30.149  0.00  0.00    -0.215 N 
ATOM     17  H   UNL     1       2.770  -6.511  30.396  0.00  0.00    +0.180 HD
BRANCH  16  18
ATOM     18  O   UNL     1       0.891  -6.008  30.985  0.00  0.00    -0.296 OA
ATOM     19  H   UNL     1       0.007  -6.119  30.601  0.00  0.00    +0.241 HD
ENDBRANCH  16  18
ENDBRANCH  14  16
ENDBRANCH  13  14
ENDBRANCH   9  13
TORSDOF 4
