REMARK  Name = =
REMARK  3 active torsions:
REMARK  status: ('A' for Active; 'I' for Inactive)
REMARK    1  A    between atoms: S_1  and  N_4
REMARK    2  A    between atoms: S_1  and  N_8
REMARK    3  A    between atoms: N_8  and  C_11
REMARK                            x       y       z     vdW  Elec       q    Type
REMARK                         _______ _______ _______ _____ _____    ______ ____
ROOT
ATOM      1  S   UNL     1      -2.292  -2.847  28.673  0.00  0.00    +0.127 S 
ATOM      2  O   UNL     1      -1.011  -2.931  27.904  0.00  0.00    -0.135 OA
ATOM      3  O   UNL     1      -2.365  -1.534  29.403  0.00  0.00    -0.135 OA
ENDROOT
BRANCH   1   4
ATOM      4  N   UNL     1      -2.386  -4.105  29.846  0.00  0.00    -0.157 N 
ATOM      5  C   UNL     1      -3.183  -3.919  30.996  0.00  0.00    +0.317 C 
ATOM      6  O   UNL     1      -3.817  -2.840  31.157  0.00  0.00    -0.251 OA
ATOM      7  N   UNL     1      -3.275  -4.953  31.986  0.00  0.00    -0.312 N 
ATOM      8  H   UNL     1      -1.889  -4.945  29.716  0.00  0.00    +0.179 HD
ATOM      9  H   UNL     1      -2.782  -5.796  31.864  0.00  0.00    +0.147 HD
ATOM     10  H   UNL     1      -3.831  -4.819  32.787  0.00  0.00    +0.147 HD
ENDBRANCH   1   4
BRANCH   1  11
ATOM     11  N   UNL     1      -3.674  -2.984  27.648  0.00  0.00    -0.203 N 
ATOM     12  H   UNL     1      -4.494  -2.498  27.893  0.00  0.00    +0.175 HD
BRANCH  11  15
ATOM     13  C   UNL     1      -4.035  -5.848  25.314  0.00  0.00    +0.001 C 
ATOM     14  C   UNL     1      -4.042  -5.106  26.476  0.00  0.00    +0.016 C 
ATOM     15  C   UNL     1      -3.675  -3.777  26.454  0.00  0.00    +0.066 C 
ATOM     16  C   UNL     1      -3.306  -3.233  25.243  0.00  0.00    +0.016 C 
ATOM     17  C   UNL     1      -3.298  -3.970  24.088  0.00  0.00    +0.001 C 
ATOM     18  C   UNL     1      -3.665  -5.301  24.102  0.00  0.00    +0.000 C 
ENDBRANCH  11  15
ENDBRANCH   1  11
TORSDOF 3
