REMARK  Name = =
REMARK  4 active torsions:
REMARK  status: ('A' for Active; 'I' for Inactive)
REMARK    1  A    between atoms: C_1  and  C_7
REMARK    2  A    between atoms: C_3  and  N_13
REMARK    3  A    between atoms: N_13  and  S_14
REMARK    4  A    between atoms: S_14  and  N_17
REMARK                            x       y       z     vdW  Elec       q    Type
REMARK                         _______ _______ _______ _____ _____    ______ ____
ROOT
ATOM      1  C   UNL     1      -0.153  -6.403  28.161  0.00  0.00    -0.021 C 
ATOM      2  C   UNL     1       1.161  -6.772  27.888  0.00  0.00    +0.012 C 
ATOM      3  C   UNL     1       1.563  -8.067  27.819  0.00  0.00    +0.066 C 
ATOM      4  C   UNL     1       0.646  -9.071  28.023  0.00  0.00    +0.016 C 
ATOM      5  C   UNL     1      -0.689  -8.763  28.300  0.00  0.00    +0.001 C 
ATOM      6  C   UNL     1      -1.050  -7.416  28.361  0.00  0.00    -0.004 C 
ENDROOT
BRANCH   1   7
ATOM      7  C   UNL     1      -0.467  -4.959  28.210  0.00  0.00    +0.022 C 
ATOM      8  C   UNL     1       0.420  -4.203  29.156  0.00  0.00    +0.004 C 
ATOM      9  C   UNL     1      -0.166  -2.807  29.291  0.00  0.00    +0.000 C 
ATOM     10  C   UNL     1      -1.325  -2.939  30.286  0.00  0.00    +0.000 C 
ATOM     11  C   UNL     1      -2.065  -4.203  29.993  0.00  0.00    +0.000 C 
ATOM     12  C   UNL     1      -1.898  -4.691  28.575  0.00  0.00    +0.004 C 
ENDBRANCH   1   7
BRANCH   3  13
ATOM     13  N   UNL     1       2.900  -8.427  27.542  0.00  0.00    -0.203 N 
ATOM     14  H   UNL     1       3.606  -8.033  28.104  0.00  0.00    +0.175 HD
BRANCH  13  15
ATOM     15  S   UNL     1       3.381  -9.502  26.295  0.00  0.00    +0.127 S 
ATOM     16  O   UNL     1       4.765  -9.183  25.841  0.00  0.00    -0.135 OA
ATOM     17  O   UNL     1       2.385  -9.421  25.148  0.00  0.00    -0.135 OA
BRANCH  15  18
ATOM     18  N   UNL     1       3.325 -11.129  26.867  0.00  0.00    -0.157 N 
ATOM     19  C   UNL     1       3.668 -12.196  26.026  0.00  0.00    +0.317 C 
ATOM     20  O   UNL     1       4.022 -12.002  24.841  0.00  0.00    -0.251 OA
ATOM     21  N   UNL     1       3.619 -13.529  26.507  0.00  0.00    -0.312 N 
ATOM     22  H   UNL     1       3.049 -11.310  27.795  0.00  0.00    +0.179 HD
ATOM     23  H   UNL     1       3.344 -13.708  27.435  0.00  0.00    +0.147 HD
ATOM     24  H   UNL     1       3.860 -14.276  25.913  0.00  0.00    +0.147 HD
ENDBRANCH  15  18
ENDBRANCH  13  15
ENDBRANCH   3  13
TORSDOF 4
