REMARK  Name = =
REMARK  6 active torsions:
REMARK  status: ('A' for Active; 'I' for Inactive)
REMARK    1  A    between atoms: C_9  and  S_12
REMARK    2  A    between atoms: S_12  and  C_13
REMARK    3  A    between atoms: C_13  and  N_15
REMARK    4  A    between atoms: N_15  and  O_16
REMARK    5  A    between atoms: O_16  and  S_17
REMARK    6  A    between atoms: S_17  and  C_18
REMARK                            x       y       z     vdW  Elec       q    Type
REMARK                         _______ _______ _______ _____ _____    ______ ____
ROOT
ATOM      1  C   UNL     1      -2.944  -4.767  30.988  0.00  0.00    +0.058 C 
ATOM      2  C   UNL     1      -2.272  -4.376  29.832  0.00  0.00    +0.059 C 
ATOM      3  C   UNL     1      -2.623  -2.980  29.629  0.00  0.00    +0.252 C 
ATOM      4  O   UNL     1      -2.213  -2.259  28.681  0.00  0.00    -0.270 OA
ATOM      5  N   UNL     1      -3.494  -2.521  30.639  0.00  0.00    -0.248 N 
ATOM      6  C   UNL     1      -3.712  -3.630  31.511  0.00  0.00    +0.252 C 
ATOM      7  O   UNL     1      -4.434  -3.631  32.540  0.00  0.00    -0.270 OA
ATOM      8  C   UNL     1      -1.469  -5.286  29.146  0.00  0.00    +0.011 C 
ATOM      9  C   UNL     1      -1.337  -6.593  29.619  0.00  0.00    +0.031 C 
ATOM     10  C   UNL     1      -2.013  -6.953  30.763  0.00  0.00    +0.007 C 
ATOM     11  C   UNL     1      -2.822  -6.059  31.467  0.00  0.00    +0.005 C 
ATOM     12  H   UNL     1      -3.875  -1.617  30.725  0.00  0.00    +0.158 HD
ENDROOT
BRANCH   9  13
ATOM     13  S   UNL     1      -0.335  -7.801  28.798  0.00  0.00    -0.064 S 
BRANCH  13  14
ATOM     14  C   UNL     1       1.404  -7.423  28.898  0.00  0.00    +0.135 C 
ATOM     15  S   UNL     1       2.388  -8.107  27.794  0.00  0.00    -0.026 S 
BRANCH  14  16
ATOM     16  N   UNL     1       1.959  -6.575  29.869  0.00  0.00    -0.199 N 
ATOM     17  H   UNL     1       2.841  -6.177  29.689  0.00  0.00    +0.182 HD
BRANCH  16  18
ATOM     18  O   UNL     1       1.348  -6.274  31.041  0.00  0.00    -0.195 OA
BRANCH  18  19
ATOM     19  S   UNL     1       2.483  -5.585  32.127  0.00  0.00    +0.138 S 
BRANCH  19  20
ATOM     20  C   UNL     1       1.907  -5.824  33.770  0.00  0.00    +0.164 C 
ATOM     21  N   UNL     1       1.527  -5.983  34.861  0.00  0.00    -0.181 NA
ENDBRANCH  19  20
ENDBRANCH  18  19
ENDBRANCH  16  18
ENDBRANCH  14  16
ENDBRANCH  13  14
ENDBRANCH   9  13
TORSDOF 6
