REMARK  Name = =
REMARK  9 active torsions:
REMARK  status: ('A' for Active; 'I' for Inactive)
REMARK    1  A    between atoms: C_1  and  S_2
REMARK    2  A    between atoms: C_1  and  N_8
REMARK    3  A    between atoms: C_1  and  S_13
REMARK    4  A    between atoms: S_2  and  N_3
REMARK    5  A    between atoms: N_6  and  O_7
REMARK    6  A    between atoms: N_8  and  O_9
REMARK    7  A    between atoms: O_9  and  S_10
REMARK    8  A    between atoms: S_10  and  C_11
REMARK    9  A    between atoms: S_13  and  C_22
REMARK                            x       y       z     vdW  Elec       q    Type
REMARK                         _______ _______ _______ _____ _____    ______ ____
ROOT
ATOM      1  C   UNL     1       1.194  -6.695  30.351  0.00  0.00    +0.184 C 
ENDROOT
BRANCH   1   2
ATOM      2  S   UNL     1       1.354  -5.967  31.823  0.00  0.00    -0.103 S 
ATOM      3  H   UNL     1       0.802  -6.795  32.750  0.00  0.00    +0.114 HD
BRANCH   2   4
ATOM      4  N   UNL     1       2.992  -5.580  32.367  0.00  0.00    -0.251 N 
ATOM      5  C   UNL     1       3.168  -4.984  33.642  0.00  0.00    +0.331 C 
ATOM      6  O   UNL     1       2.153  -4.755  34.336  0.00  0.00    -0.250 OA
ATOM      7  N   UNL     1       4.431  -4.642  34.161  0.00  0.00    -0.181 N 
ATOM      8  H   UNL     1       3.769  -5.775  31.794  0.00  0.00    +0.163 HD
ATOM      9  H   UNL     1       5.229  -4.825  33.614  0.00  0.00    +0.184 HD
BRANCH   7  10
ATOM     10  O   UNL     1       4.601  -4.069  35.387  0.00  0.00    -0.294 OA
ATOM     11  H   UNL     1       3.737  -3.948  35.810  0.00  0.00    +0.241 HD
ENDBRANCH   7  10
ENDBRANCH   2   4
ENDBRANCH   1   2
BRANCH   1  12
ATOM     12  N   UNL     1       2.316  -6.997  29.559  0.00  0.00    -0.156 NA
ATOM     13  H   UNL     1       2.834  -7.726  30.049  0.00  0.00    +0.158 HD
BRANCH  12  14
ATOM     14  O   UNL     1       2.155  -7.419  28.299  0.00  0.00    -0.212 OA
BRANCH  14  15
ATOM     15  S   UNL     1       2.601  -6.167  27.185  0.00  0.00    +0.133 S 
BRANCH  15  16
ATOM     16  C   UNL     1       3.738  -6.860  26.027  0.00  0.00    +0.164 C 
ATOM     17  N   UNL     1       4.478  -7.333  25.270  0.00  0.00    -0.181 NA
ENDBRANCH  15  16
ENDBRANCH  14  15
ENDBRANCH  12  14
ENDBRANCH   1  12
BRANCH   1  18
ATOM     18  S   UNL     1      -0.427  -7.116  29.734  0.00  0.00    -0.085 S 
BRANCH  18  27
ATOM     19  C   UNL     1      -3.526  -4.788  32.033  0.00  0.00    +0.058 C 
ATOM     20  C   UNL     1      -2.922  -4.203  30.947  0.00  0.00    +0.059 C 
ATOM     21  C   UNL     1      -3.463  -2.865  30.775  0.00  0.00    +0.252 C 
ATOM     22  O   UNL     1      -3.150  -2.035  29.889  0.00  0.00    -0.270 OA
ATOM     23  N   UNL     1      -4.419  -2.682  31.813  0.00  0.00    -0.248 N 
ATOM     24  C   UNL     1      -4.483  -3.851  32.609  0.00  0.00    +0.252 C 
ATOM     25  O   UNL     1      -5.194  -4.053  33.590  0.00  0.00    -0.270 OA
ATOM     26  C   UNL     1      -1.956  -4.900  30.212  0.00  0.00    +0.011 C 
ATOM     27  C   UNL     1      -1.635  -6.177  30.612  0.00  0.00    +0.027 C 
ATOM     28  C   UNL     1      -2.246  -6.763  31.706  0.00  0.00    +0.006 C 
ATOM     29  C   UNL     1      -3.183  -6.092  32.423  0.00  0.00    +0.005 C 
ATOM     30  H   UNL     1      -4.954  -1.868  31.956  0.00  0.00    +0.158 HD
ENDBRANCH  18  27
ENDBRANCH   1  18
TORSDOF 9
