REMARK  Name = =
REMARK  5 active torsions:
REMARK  status: ('A' for Active; 'I' for Inactive)
REMARK    1  A    between atoms: C_1  and  C_7
REMARK    2  A    between atoms: C_1  and  C_21
REMARK    3  A    between atoms: C_23  and  N_27
REMARK    4  A    between atoms: N_27  and  S_28
REMARK    5  A    between atoms: S_28  and  N_31
REMARK                            x       y       z     vdW  Elec       q    Type
REMARK                         _______ _______ _______ _____ _____    ______ ____
ROOT
ATOM      1  C   UNL     1      -0.934  -6.686  29.726  0.00  0.00    +0.052 C 
ATOM      2  C   UNL     1       0.242  -6.741  30.638  0.00  0.00    +0.007 C 
ATOM      3  C   UNL     1       0.249  -7.916  31.571  0.00  0.00    +0.000 C 
ATOM      4  C   UNL     1      -0.976  -8.030  32.409  0.00  0.00    +0.000 C 
ATOM      5  C   UNL     1      -2.194  -7.406  31.794  0.00  0.00    +0.000 C 
ATOM      6  C   UNL     1      -2.150  -7.386  30.286  0.00  0.00    +0.007 C 
ENDROOT
BRANCH   1   7
ATOM      7  C   UNL     1      -0.669  -7.248  28.347  0.00  0.00    +0.196 C 
ATOM      8  O   UNL     1       0.083  -6.390  27.554  0.00  0.00    -0.329 OA
ATOM      9  C   UNL     1       1.356  -6.872  27.470  0.00  0.00    +0.213 C 
ATOM     10  N   UNL     1       1.406  -8.198  28.032  0.00  0.00    -0.245 N 
ATOM     11  C   UNL     1       2.671  -8.871  28.143  0.00  0.00    +0.181 C 
ATOM     12  C   UNL     1       3.307  -8.844  26.778  0.00  0.00    +0.246 C 
ATOM     13  O   UNL     1       4.191  -9.688  26.518  0.00  0.00    -0.273 OA
ATOM     14  N   UNL     1       2.903  -7.879  25.820  0.00  0.00    -0.276 N 
ATOM     15  C   UNL     1       1.784  -6.958  26.027  0.00  0.00    +0.122 C 
ATOM     16  C   UNL     1       2.497  -5.637  25.699  0.00  0.00    +0.026 C 
ATOM     17  C   UNL     1       3.195  -6.009  24.393  0.00  0.00    +0.023 C 
ATOM     18  C   UNL     1       3.392  -7.518  24.484  0.00  0.00    +0.094 C 
ATOM     19  C   UNL     1       0.063  -8.535  28.356  0.00  0.00    +0.255 C 
ATOM     20  O   UNL     1      -0.388  -9.699  28.599  0.00  0.00    -0.272 OA
ENDBRANCH   1   7
BRANCH   1  21
ATOM     21  C   UNL     1      -1.280  -5.232  29.567  0.00  0.00    -0.019 C 
ATOM     22  C   UNL     1      -0.309  -4.263  29.436  0.00  0.00    +0.012 C 
ATOM     23  C   UNL     1      -0.639  -2.945  29.298  0.00  0.00    +0.066 C 
ATOM     24  C   UNL     1      -1.999  -2.620  29.297  0.00  0.00    +0.016 C 
ATOM     25  C   UNL     1      -3.000  -3.540  29.424  0.00  0.00    +0.001 C 
ATOM     26  C   UNL     1      -2.616  -4.856  29.560  0.00  0.00    -0.004 C 
BRANCH  23  27
ATOM     27  N   UNL     1       0.260  -1.863  29.163  0.00  0.00    -0.203 N 
ATOM     28  H   UNL     1       0.479  -1.298  29.939  0.00  0.00    +0.175 HD
BRANCH  27  29
ATOM     29  S   UNL     1       0.965  -1.545  27.636  0.00  0.00    +0.127 S 
ATOM     30  O   UNL     1       0.097  -2.093  26.535  0.00  0.00    -0.135 OA
ATOM     31  O   UNL     1       1.075  -0.054  27.474  0.00  0.00    -0.135 OA
BRANCH  29  32
ATOM     32  N   UNL     1       2.522  -2.238  27.430  0.00  0.00    -0.157 N 
ATOM     33  C   UNL     1       3.468  -1.715  26.491  0.00  0.00    +0.317 C 
ATOM     34  O   UNL     1       3.140  -0.723  25.806  0.00  0.00    -0.251 OA
ATOM     35  N   UNL     1       4.763  -2.250  26.286  0.00  0.00    -0.312 N 
ATOM     36  H   UNL     1       2.772  -3.019  27.974  0.00  0.00    +0.179 HD
ATOM     37  H   UNL     1       5.061  -3.032  26.805  0.00  0.00    +0.147 HD
ATOM     38  H   UNL     1       5.366  -1.840  25.624  0.00  0.00    +0.147 HD
ENDBRANCH  29  32
ENDBRANCH  27  29
ENDBRANCH  23  27
ENDBRANCH   1  21
TORSDOF 5
