REMARK  Name = =
REMARK  7 active torsions:
REMARK  status: ('A' for Active; 'I' for Inactive)
REMARK    1  A    between atoms: C_1  and  C_7
REMARK    2  A    between atoms: C_3  and  N_27
REMARK    3  A    between atoms: C_7  and  C_13
REMARK    4  A    between atoms: N_27  and  S_28
REMARK    5  A    between atoms: S_28  and  N_31
REMARK    6  A    between atoms: N_31  and  C_35
REMARK    7  A    between atoms: C_36  and  C_37
REMARK                            x       y       z     vdW  Elec       q    Type
REMARK                         _______ _______ _______ _____ _____    ______ ____
ROOT
ATOM      1  C   UNL     1       0.769  -5.047  28.671  0.00  0.00    -0.019 C 
ATOM      2  C   UNL     1       1.268  -5.876  27.726  0.00  0.00    +0.012 C 
ATOM      3  C   UNL     1       2.561  -6.414  27.793  0.00  0.00    +0.066 C 
ATOM      4  C   UNL     1       3.327  -6.064  28.882  0.00  0.00    +0.016 C 
ATOM      5  C   UNL     1       2.862  -5.216  29.883  0.00  0.00    +0.001 C 
ATOM      6  C   UNL     1       1.583  -4.730  29.741  0.00  0.00    -0.004 C 
ENDROOT
BRANCH   1   7
ATOM      7  C   UNL     1      -0.603  -4.432  28.587  0.00  0.00    +0.052 C 
ATOM      8  C   UNL     1      -0.960  -3.609  29.771  0.00  0.00    +0.007 C 
ATOM      9  C   UNL     1      -2.430  -3.695  30.153  0.00  0.00    +0.000 C 
ATOM     10  C   UNL     1      -2.873  -5.096  30.459  0.00  0.00    +0.000 C 
ATOM     11  C   UNL     1      -1.966  -6.132  29.848  0.00  0.00    +0.000 C 
ATOM     12  C   UNL     1      -1.554  -5.634  28.497  0.00  0.00    +0.007 C 
BRANCH   7  13
ATOM     13  C   UNL     1      -0.671  -3.693  27.269  0.00  0.00    +0.196 C 
ATOM     14  O   UNL     1       0.434  -3.942  26.460  0.00  0.00    -0.329 OA
ATOM     15  C   UNL     1       1.275  -2.877  26.542  0.00  0.00    +0.213 C 
ATOM     16  N   UNL     1       0.620  -1.783  27.176  0.00  0.00    -0.245 N 
ATOM     17  C   UNL     1       1.347  -0.558  27.420  0.00  0.00    +0.181 C 
ATOM     18  C   UNL     1       1.794  -0.086  26.073  0.00  0.00    +0.246 C 
ATOM     19  O   UNL     1       1.941   1.144  25.920  0.00  0.00    -0.273 OA
ATOM     20  N   UNL     1       2.021  -1.056  25.065  0.00  0.00    -0.276 N 
ATOM     21  C   UNL     1       1.970  -2.475  25.302  0.00  0.00    +0.122 C 
ATOM     22  C   UNL     1       1.443  -3.062  24.024  0.00  0.00    +0.026 C 
ATOM     23  C   UNL     1       1.412  -1.925  23.019  0.00  0.00    +0.023 C 
ATOM     24  C   UNL     1       2.331  -0.908  23.660  0.00  0.00    +0.094 C 
ATOM     25  C   UNL     1      -0.731  -2.231  27.431  0.00  0.00    +0.255 C 
ATOM     26  O   UNL     1      -1.671  -1.449  27.715  0.00  0.00    -0.272 OA
ENDBRANCH   7  13
ENDBRANCH   1   7
BRANCH   3  27
ATOM     27  N   UNL     1       3.044  -7.247  26.751  0.00  0.00    -0.202 N 
ATOM     28  H   UNL     1       3.674  -6.883  26.087  0.00  0.00    +0.175 HD
BRANCH  27  29
ATOM     29  S   UNL     1       2.545  -8.865  26.640  0.00  0.00    +0.134 S 
ATOM     30  O   UNL     1       1.872  -9.255  27.937  0.00  0.00    -0.134 OA
ATOM     31  O   UNL     1       1.489  -9.079  25.560  0.00  0.00    -0.134 OA
BRANCH  29  32
ATOM     32  N   UNL     1       3.861  -9.953  26.391  0.00  0.00    -0.108 N 
ATOM     33  C   UNL     1       4.888 -10.017  27.325  0.00  0.00    +0.325 C 
ATOM     34  O   UNL     1       5.861 -10.793  27.143  0.00  0.00    -0.251 OA
ATOM     35  N   UNL     1       4.891  -9.237  28.501  0.00  0.00    -0.312 N 
ATOM     36  H   UNL     1       4.148  -8.617  28.682  0.00  0.00    +0.147 HD
ATOM     37  H   UNL     1       5.636  -9.313  29.140  0.00  0.00    +0.147 HD
BRANCH  32  38
ATOM     38  C   UNL     1       3.904 -10.806  25.243  0.00  0.00    +0.095 C 
ATOM     39  C   UNL     1       3.291 -11.971  25.183  0.00  0.00    +0.018 C 
BRANCH  39  40
ATOM     40  C   UNL     1       2.500 -12.539  26.250  0.00  0.00    +0.001 C 
ATOM     41  C   UNL     1       1.885 -13.702  26.191  0.00  0.00    +0.000 C 
ENDBRANCH  39  40
ENDBRANCH  32  38
ENDBRANCH  29  32
ENDBRANCH  27  29
ENDBRANCH   3  27
TORSDOF 7
