MODEL 1
REMARK VINA RESULT:   -11.548      0.000      0.000
REMARK INTER + INTRA:         -13.020
REMARK INTER:                 -14.587
REMARK INTRA:                   1.567
REMARK UNBOUND:                 1.567
REMARK  Name = =
REMARK  5 active torsions:
REMARK  status: ('A' for Active; 'I' for Inactive)
REMARK    1  A    between atoms: S_1  and  C_3
REMARK    2  A    between atoms: S_1  and  S_18
REMARK    3  A    between atoms: S_1  and  O_19
REMARK    4  A    between atoms: O_19  and  C_20
REMARK    5  A    between atoms: C_21  and  S_30
REMARK                            x       y       z     vdW  Elec       q    Type
REMARK                         _______ _______ _______ _____ _____    ______ ____
ROOT
ATOM      1  S   UNL     1     -14.550 -43.992  28.928  0.00  0.00    -0.014 S 
ATOM      2  H   UNL     1     -15.371 -45.075  28.873  0.00  0.00    +0.136 HD
ENDROOT
BRANCH   1   4
ATOM      3 BR   UNL     1     -12.856 -45.406  26.941  0.00  0.00    -0.039 Br
ATOM      4  C   UNL     1     -12.925 -44.593  28.695  0.00  0.00    +0.201 C 
ATOM      5  O   UNL     1     -11.982 -43.573  28.724  0.00  0.00    -0.335 OA
ATOM      6  C   UNL     1     -12.048 -42.828  29.898  0.00  0.00    +0.176 C 
ATOM      7  C   UNL     1     -12.077 -43.690  31.132  0.00  0.00    +0.174 C 
ATOM      8  O   UNL     1     -11.291 -43.191  32.156  0.00  0.00    -0.326 OA
ATOM      9  C   UNL     1      -9.958 -43.458  32.022  0.00  0.00    +0.264 C 
ATOM     10  O   UNL     1      -9.259 -42.567  31.262  0.00  0.00    -0.321 OA
ATOM     11  C   UNL     1      -8.324 -43.094  30.416  0.00  0.00    +0.209 C 
ATOM     12  C   UNL     1      -7.535 -44.207  30.982  0.00  0.00    +0.183 C 
ATOM     13  O   UNL     1      -6.334 -44.295  30.866  0.00  0.00    -0.293 OA
ATOM     14  C   UNL     1      -8.257 -45.268  31.731  0.00  0.00    +0.102 C 
ATOM     15  C   UNL     1      -9.716 -44.895  31.737  0.00  0.00    +0.179 C 
ATOM     16  O   UNL     1     -10.393 -45.331  30.606  0.00  0.00    -0.350 OA
ATOM     17  C   UNL     1     -11.750 -45.132  30.842  0.00  0.00    +0.149 C 
ATOM     18  C   UNL     1     -12.607 -45.639  29.716  0.00  0.00    +0.083 C 
ENDBRANCH   1   4
BRANCH   1  19
ATOM     19  S   UNL     1     -14.968 -43.247  30.311  0.00  0.00    -0.094 S 
ATOM     20  H   UNL     1     -16.323 -43.240  30.430  0.00  0.00    +0.115 HD
ENDBRANCH   1  19
BRANCH   1  21
ATOM     21  O   UNL     1     -14.593 -42.765  27.807  0.00  0.00    -0.435 OA
BRANCH  21  22
ATOM     22  C   UNL     1     -15.742 -42.368  27.145  0.00  0.00    +0.170 C 
ATOM     23  C   UNL     1     -15.739 -42.244  25.777  0.00  0.00    +0.137 C 
ATOM     24  C   UNL     1     -16.862 -41.852  25.077  0.00  0.00    +0.020 C 
ATOM     25  C   UNL     1     -18.031 -41.571  25.742  0.00  0.00    +0.001 C 
ATOM     26  C   UNL     1     -18.032 -41.697  27.120  0.00  0.00    +0.003 C 
ATOM     27  C   UNL     1     -16.912 -42.088  27.814  0.00  0.00    +0.040 C 
ATOM     28  C   UNL     1     -19.187 -41.174  25.099  0.00  0.00    +0.000 C 
ATOM     29  C   UNL     1     -19.151 -41.060  23.726  0.00  0.00    +0.000 C 
ATOM     30  C   UNL     1     -17.986 -41.334  23.006  0.00  0.00    +0.000 C 
ATOM     31  C   UNL     1     -16.860 -41.727  23.700  0.00  0.00    +0.001 C 
BRANCH  23  32
ATOM     32  S   UNL     1     -14.275 -42.590  24.888  0.00  0.00    -0.009 S 
ATOM     33  O   UNL     1     -14.075 -41.440  23.913  0.00  0.00    -0.172 OA
ATOM     34  O   UNL     1     -14.483 -43.879  24.148  0.00  0.00    -0.172 OA
ATOM     35  H   UNL     1     -13.186 -42.713  25.693  0.00  0.00    +0.215 HD
ENDBRANCH  23  32
ENDBRANCH  21  22
ENDBRANCH   1  21
TORSDOF 5
ENDMDL
