REMARK  Name = =
REMARK  0 active torsions:
REMARK  status: ('A' for Active; 'I' for Inactive)
REMARK                            x       y       z     vdW  Elec       q    Type
REMARK                         _______ _______ _______ _____ _____    ______ ____
ROOT
ATOM      1  C   UNL     1     -12.590 -42.954  27.402  0.00  0.00    -0.006 C 
ATOM      2  C   UNL     1     -13.109 -44.147  27.214  0.00  0.00    +0.041 C 
ATOM      3  N   UNL     1     -14.358 -44.034  26.507  0.00  0.00    -0.333 N 
ATOM      4  C   UNL     1     -14.799 -42.666  26.688  0.00  0.00    +0.092 C 
ATOM      5  C   UNL     1     -13.502 -41.945  26.800  0.00  0.00    +0.049 C 
ATOM      6  C   UNL     1     -12.415 -45.347  27.704  0.00  0.00    +0.015 C 
ATOM      7  C   UNL     1     -11.143 -45.105  28.395  0.00  0.00    +0.018 C 
ATOM      8  C   UNL     1     -10.604 -43.916  28.595  0.00  0.00    +0.070 C 
ATOM      9  C   UNL     1     -11.304 -42.740  28.102  0.00  0.00    +0.014 C 
ATOM     10  C   UNL     1     -10.556 -41.710  28.431  0.00  0.00    +0.019 C 
ATOM     11  C   UNL     1      -9.359 -42.184  29.141  0.00  0.00    +0.086 C 
ATOM     12  N   UNL     1      -9.405 -43.489  29.228  0.00  0.00    -0.211 NA
ATOM     13  H   UNL     1     -14.819 -44.743  26.003  0.00  0.00    +0.147 HD
ENDROOT
TORSDOF 0
