REMARK  Name = =
REMARK  7 active torsions:
REMARK  status: ('A' for Active; 'I' for Inactive)
REMARK    1  A    between atoms: N_1  and  C_7
REMARK    2  A    between atoms: N_1  and  N_14
REMARK    3  A    between atoms: N_1  and  C_15
REMARK    4  A    between atoms: C_15  and  N_17
REMARK    5  A    between atoms: N_17  and  P_18
REMARK    6  A    between atoms: P_18  and  N_20
REMARK    7  A    between atoms: P_18  and  N_21
REMARK                            x       y       z     vdW  Elec       q    Type
REMARK                         _______ _______ _______ _____ _____    ______ ____
ROOT
ATOM      1  N   UNL     1      -9.734 -45.755  29.390  0.00  0.00    -0.225 N 
ENDROOT
BRANCH   1   7
ATOM      2  C   UNL     1     -11.612 -43.094  28.047  0.00  0.00    -0.022 C 
ATOM      3  C   UNL     1     -11.331 -44.357  28.211  0.00  0.00    +0.111 C 
ATOM      4  N   UNL     1     -12.599 -45.069  28.277  0.00  0.00    -0.291 NA
ATOM      5  C   UNL     1     -13.674 -44.139  28.487  0.00  0.00    +0.073 C 
ATOM      6  C   UNL     1     -13.093 -42.842  27.986  0.00  0.00    +0.041 C 
ATOM      7  C   UNL     1      -9.962 -44.841  28.299  0.00  0.00    +0.065 C 
ATOM      8  C   UNL     1      -8.952 -43.807  28.189  0.00  0.00    +0.033 C 
ATOM      9  C   UNL     1      -9.213 -42.532  28.023  0.00  0.00    +0.082 C 
ATOM     10  C   UNL     1     -10.575 -42.043  27.935  0.00  0.00    +0.013 C 
ATOM     11  C   UNL     1     -10.567 -40.749  27.772  0.00  0.00    +0.022 C 
ATOM     12  C   UNL     1      -9.169 -40.333  27.747  0.00  0.00    +0.099 C 
ATOM     13  N   UNL     1      -8.398 -41.355  27.891  0.00  0.00    -0.244 NA
ATOM     14  H   UNL     1     -12.573 -45.735  29.049  0.00  0.00    +0.124 HD
ENDBRANCH   1   7
BRANCH   1  15
ATOM     15  N   UNL     1      -9.432 -47.091  29.114  0.00  0.00    -0.248 NA
ATOM     16  H   UNL     1      -9.301 -47.598  29.989  0.00  0.00    +0.141 HD
ATOM     17  H   UNL     1      -8.576 -47.139  28.562  0.00  0.00    +0.141 HD
ENDBRANCH   1  15
BRANCH   1  18
ATOM     18  C   UNL     1      -9.785 -45.412  30.757  0.00  0.00    +0.120 C 
ATOM     19  C   UNL     1      -9.973 -46.363  31.628  0.00  0.00    +0.034 C 
BRANCH  18  20
ATOM     20  N   UNL     1      -9.635 -44.074  31.150  0.00  0.00    -0.258 N 
ATOM     21  H   UNL     1     -10.357 -43.438  30.940  0.00  0.00    +0.157 HD
BRANCH  20  22
ATOM     22  P   UNL     1      -8.210 -43.479  32.004  0.00  0.00    +0.294 P 
ATOM     23  O   UNL     1      -7.359 -44.690  32.332  0.00  0.00    -0.265 OA
BRANCH  22  24
ATOM     24  N   UNL     1      -8.628 -42.660  33.470  0.00  0.00    -0.254 NA
ATOM     25  H   UNL     1      -9.184 -43.280  34.059  0.00  0.00    +0.128 HD
ATOM     26  H   UNL     1      -9.169 -41.824  33.250  0.00  0.00    +0.128 HD
ENDBRANCH  22  24
BRANCH  22  27
ATOM     27  N   UNL     1      -7.247 -42.465  30.938  0.00  0.00    -0.254 NA
ATOM     28  H   UNL     1      -7.022 -42.982  30.088  0.00  0.00    +0.128 HD
ATOM     29  H   UNL     1      -6.384 -42.197  31.411  0.00  0.00    +0.128 HD
ENDBRANCH  22  27
ENDBRANCH  20  22
ENDBRANCH  18  20
ENDBRANCH   1  18
TORSDOF 7
