REMARK  Name = =
REMARK  4 active torsions:
REMARK  status: ('A' for Active; 'I' for Inactive)
REMARK    1  A    between atoms: C_1  and  C_10
REMARK    2  A    between atoms: C_2  and  C_14
REMARK    3  A    between atoms: C_17  and  O_20
REMARK    4  A    between atoms: O_20  and  C_21
REMARK                            x       y       z     vdW  Elec       q    Type
REMARK                         _______ _______ _______ _____ _____    ______ ____
ROOT
ATOM      1  C   UNL     1      -3.672  -4.667  30.081  0.00  0.00    +0.028 C 
ATOM      2  C   UNL     1      -3.017  -3.666  29.273  0.00  0.00    +0.027 C 
ATOM      3  C   UNL     1      -3.637  -3.084  30.469  0.00  0.00    +0.009 C 
ENDROOT
BRANCH   1  10
ATOM      4  N   UNL     1      -2.320  -7.326  30.217  0.00  0.00    -0.284 N 
ATOM      5  C   UNL     1      -2.974  -6.640  31.299  0.00  0.00    +0.043 C 
ATOM      6  C   UNL     1      -2.915  -7.401  32.427  0.00  0.00    +0.000 C 
ATOM      7  C   UNL     1      -3.466  -6.977  33.614  0.00  0.00    -0.003 C 
ATOM      8  C   UNL     1      -4.086  -5.752  33.678  0.00  0.00    -0.001 C 
ATOM      9  C   UNL     1      -4.136  -4.970  32.516  0.00  0.00    -0.003 C 
ATOM     10  C   UNL     1      -3.605  -5.365  31.342  0.00  0.00    -0.009 C 
ATOM     11  C   UNL     1      -2.106  -8.641  32.150  0.00  0.00    +0.113 C 
ATOM     12  C   UNL     1      -1.850  -8.545  30.712  0.00  0.00    +0.231 C 
ATOM     13  O   UNL     1      -1.283  -9.452  30.025  0.00  0.00    -0.274 OA
ATOM     14  H   UNL     1      -2.221  -6.996  29.295  0.00  0.00    +0.155 HD
ENDBRANCH   1  10
BRANCH   2  15
ATOM     15  C   UNL     1      -1.613  -3.714  28.941  0.00  0.00    -0.022 C 
ATOM     16  C   UNL     1      -0.740  -4.129  29.926  0.00  0.00    -0.001 C 
ATOM     17  C   UNL     1       0.595  -4.400  29.712  0.00  0.00    +0.037 C 
ATOM     18  C   UNL     1       1.070  -4.230  28.426  0.00  0.00    +0.149 C 
ATOM     19  C   UNL     1       0.246  -3.810  27.425  0.00  0.00    +0.037 C 
ATOM     20  C   UNL     1      -1.115  -3.556  27.685  0.00  0.00    -0.001 C 
BRANCH  18  21
ATOM     21  O   UNL     1       2.449  -4.520  28.206  0.00  0.00    -0.417 OA
BRANCH  21  22
ATOM     22  C   UNL     1       3.125  -5.087  29.318  0.00  0.00    +0.423 C 
ATOM     23  O   UNL     1       2.864  -4.792  30.465  0.00  0.00    -0.237 OA
ENDBRANCH  21  22
ENDBRANCH  18  21
ENDBRANCH   2  15
TORSDOF 4
