REMARK  Name = =
REMARK  3 active torsions:
REMARK  status: ('A' for Active; 'I' for Inactive)
REMARK    1  A    between atoms: C_1  and  N_17
REMARK    2  A    between atoms: C_6  and  N_7
REMARK    3  A    between atoms: N_17  and  N_20
REMARK                            x       y       z     vdW  Elec       q    Type
REMARK                         _______ _______ _______ _____ _____    ______ ____
ROOT
ATOM      1  C   UNL     1       1.753  -6.158  29.868  0.00  0.00    +0.237 C 
ATOM      2  N   UNL     1       2.797  -5.505  30.634  0.00  0.00    -0.250 N 
ATOM      3  C   UNL     1       2.154  -5.054  31.836  0.00  0.00    +0.404 C 
ATOM      4  O   UNL     1       2.622  -4.360  32.781  0.00  0.00    -0.226 OA
ATOM      5  O   UNL     1       0.809  -5.523  31.833  0.00  0.00    -0.415 OA
ATOM      6  C   UNL     1       0.870  -6.639  31.017  0.00  0.00    +0.294 C 
ATOM      7  H   UNL     1       3.743  -5.395  30.384  0.00  0.00    +0.154 HD
ENDROOT
BRANCH   6   8
ATOM      8  N   UNL     1      -0.295  -7.344  30.683  0.00  0.00    -0.223 N 
ATOM      9  C   UNL     1      -1.542  -7.152  31.397  0.00  0.00    +0.054 C 
ATOM     10  C   UNL     1      -2.508  -7.978  30.879  0.00  0.00    +0.001 C 
ATOM     11  C   UNL     1      -3.811  -7.968  31.393  0.00  0.00    -0.003 C 
ATOM     12  C   UNL     1      -4.152  -7.132  32.429  0.00  0.00    -0.000 C 
ATOM     13  C   UNL     1      -3.190  -6.297  32.960  0.00  0.00    +0.001 C 
ATOM     14  C   UNL     1      -1.922  -6.331  32.433  0.00  0.00    +0.015 C 
ATOM     15  C   UNL     1      -1.904  -8.785  29.799  0.00  0.00    +0.113 C 
ATOM     16  C   UNL     1      -0.493  -8.319  29.685  0.00  0.00    +0.236 C 
ATOM     17  O   UNL     1       0.311  -8.770  28.820  0.00  0.00    -0.274 OA
ENDBRANCH   6   8
BRANCH   1  18
ATOM     18  N   UNL     1       1.201  -5.247  28.947  0.00  0.00    -0.150 N 
ATOM     19  C   UNL     1       1.237  -3.845  29.015  0.00  0.00    +0.325 C 
ATOM     20  O   UNL     1       1.782  -3.182  29.928  0.00  0.00    -0.263 OA
BRANCH  18  21
ATOM     21  N   UNL     1       0.514  -5.774  27.797  0.00  0.00    -0.170 NA
ATOM     22  C   UNL     1       1.179  -6.134  26.772  0.00  0.00    +0.140 C 
ENDBRANCH  18  21
ENDBRANCH   1  18
TORSDOF 3
