MODEL 1
REMARK VINA RESULT:    -7.680      0.000      0.000
REMARK INTER + INTRA:         -10.263
REMARK INTER:                 -10.373
REMARK INTRA:                   0.110
REMARK UNBOUND:                 0.110
REMARK  Name = =
REMARK  6 active torsions:
REMARK  status: ('A' for Active; 'I' for Inactive)
REMARK    1  A    between atoms: N_1  and  N_18
REMARK    2  A    between atoms: C_6  and  C_7
REMARK    3  A    between atoms: C_10  and  O_13
REMARK    4  A    between atoms: O_13  and  C_14
REMARK    5  A    between atoms: C_16  and  O_19
REMARK    6  A    between atoms: O_19  and  N_22
REMARK                            x       y       z     vdW  Elec       q    Type
REMARK                         _______ _______ _______ _____ _____    ______ ____
ROOT
ATOM      1  N   UNL     1      49.254 163.751  40.962  0.00  0.00    -0.195 NA
ATOM      2  C   UNL     1      48.185 164.631  40.575  0.00  0.00    +0.124 C 
ATOM      3  C   UNL     1      47.193 163.761  39.794  0.00  0.00    +0.161 C 
ATOM      4  O   UNL     1      46.863 162.673  40.559  0.00  0.00    -0.350 OA
ATOM      5  C   UNL     1      47.302 162.704  41.864  0.00  0.00    +0.164 C 
ATOM      6  C   UNL     1      48.803 162.889  42.001  0.00  0.00    +0.128 C 
ENDROOT
BRANCH   6   7
ATOM      7  C   UNL     1      49.536 161.604  42.060  0.00  0.00    -0.004 C 
ATOM      8  C   UNL     1      50.903 161.598  42.191  0.00  0.00    +0.000 C 
ATOM      9  C   UNL     1      51.582 160.383  42.239  0.00  0.00    +0.037 C 
ATOM     10  C   UNL     1      50.908 159.178  42.160  0.00  0.00    +0.149 C 
ATOM     11  C   UNL     1      49.529 159.192  42.028  0.00  0.00    +0.037 C 
ATOM     12  C   UNL     1      48.867 160.412  41.981  0.00  0.00    +0.000 C 
BRANCH  10  13
ATOM     13  O   UNL     1      51.560 157.952  42.206  0.00  0.00    -0.417 OA
BRANCH  13  14
ATOM     14  C   UNL     1      50.929 156.756  42.453  0.00  0.00    +0.423 C 
ATOM     15  O   UNL     1      51.046 155.798  41.638  0.00  0.00    -0.237 OA
ENDBRANCH  13  14
ENDBRANCH  10  13
ENDBRANCH   6   7
BRANCH   1  18
ATOM     16  C   UNL     1      50.783 165.228  42.193  0.00  0.00    +0.437 C 
ATOM     17  O   UNL     1      49.870 165.445  43.016  0.00  0.00    -0.223 OA
ATOM     18  N   UNL     1      50.472 164.342  41.113  0.00  0.00    -0.210 N 
ATOM     19  H   UNL     1      51.172 164.150  40.448  0.00  0.00    +0.173 HD
BRANCH  16  20
ATOM     20  O   UNL     1      52.053 165.812  42.301  0.00  0.00    -0.321 OA
BRANCH  20  23
ATOM     21  N   UNL     1      53.197 165.106  39.237  0.00  0.00    -0.280 NA
ATOM     22  C   UNL     1      53.304 165.875  40.253  0.00  0.00    +0.200 C 
ATOM     23  N   UNL     1      53.054 165.301  41.523  0.00  0.00    -0.068 N 
ATOM     24  C   UNL     1      53.811 164.210  42.005  0.00  0.00    +0.343 C 
ATOM     25  O   UNL     1      54.722 163.752  41.259  0.00  0.00    -0.261 OA
ATOM     26  H   UNL     1      53.361 165.459  38.332  0.00  0.00    +0.188 HD
ENDBRANCH  20  23
ENDBRANCH  16  20
ENDBRANCH   1  18
TORSDOF 6
ENDMDL
