REMARK  Name = =
REMARK  6 active torsions:
REMARK  status: ('A' for Active; 'I' for Inactive)
REMARK    1  A    between atoms: N_1  and  N_18
REMARK    2  A    between atoms: C_6  and  C_7
REMARK    3  A    between atoms: C_10  and  O_13
REMARK    4  A    between atoms: O_13  and  C_14
REMARK    5  A    between atoms: C_16  and  O_19
REMARK    6  A    between atoms: O_19  and  N_22
REMARK                            x       y       z     vdW  Elec       q    Type
REMARK                         _______ _______ _______ _____ _____    ______ ____
ROOT
ATOM      1  N   UNL     1      51.292 158.216  28.763  0.00  0.00    -0.195 NA
ATOM      2  C   UNL     1      51.520 157.000  28.032  0.00  0.00    +0.124 C 
ATOM      3  C   UNL     1      52.843 157.206  27.285  0.00  0.00    +0.161 C 
ATOM      4  O   UNL     1      53.804 157.586  28.185  0.00  0.00    -0.350 OA
ATOM      5  C   UNL     1      53.447 157.500  29.513  0.00  0.00    +0.164 C 
ATOM      6  C   UNL     1      52.194 158.283  29.862  0.00  0.00    +0.128 C 
ENDROOT
BRANCH   6   7
ATOM      7  C   UNL     1      52.486 159.667  30.300  0.00  0.00    -0.004 C 
ATOM      8  C   UNL     1      51.581 160.348  31.076  0.00  0.00    +0.000 C 
ATOM      9  C   UNL     1      51.865 161.651  31.477  0.00  0.00    +0.037 C 
ATOM     10  C   UNL     1      53.043 162.277  31.111  0.00  0.00    +0.149 C 
ATOM     11  C   UNL     1      53.951 161.583  30.328  0.00  0.00    +0.037 C 
ATOM     12  C   UNL     1      53.653 160.285  29.936  0.00  0.00    +0.000 C 
BRANCH  10  13
ATOM     13  O   UNL     1      53.351 163.575  31.497  0.00  0.00    -0.417 OA
BRANCH  13  14
ATOM     14  C   UNL     1      52.962 164.695  30.801  0.00  0.00    +0.423 C 
ATOM     15  O   UNL     1      53.088 164.735  29.544  0.00  0.00    -0.237 OA
ENDBRANCH  13  14
ENDBRANCH  10  13
ENDBRANCH   6   7
BRANCH   1  18
ATOM     16  C   UNL     1      49.189 157.853  29.980  0.00  0.00    +0.437 C 
ATOM     17  O   UNL     1      49.754 156.955  30.636  0.00  0.00    -0.223 OA
ATOM     18  N   UNL     1      49.985 158.522  28.996  0.00  0.00    -0.210 N 
ATOM     19  H   UNL     1      49.568 159.237  28.463  0.00  0.00    +0.173 HD
BRANCH  16  20
ATOM     20  O   UNL     1      47.847 158.205  30.179  0.00  0.00    -0.321 OA
BRANCH  20  23
ATOM     21  N   UNL     1      48.392 161.502  30.351  0.00  0.00    -0.280 NA
ATOM     22  C   UNL     1      47.561 160.584  30.031  0.00  0.00    +0.200 C 
ATOM     23  N   UNL     1      47.589 159.395  30.800  0.00  0.00    -0.068 N 
ATOM     24  C   UNL     1      47.360 159.408  32.194  0.00  0.00    +0.343 C 
ATOM     25  O   UNL     1      47.135 160.525  32.742  0.00  0.00    -0.261 OA
ATOM     26  H   UNL     1      48.411 162.347  29.846  0.00  0.00    +0.188 HD
ENDBRANCH  20  23
ENDBRANCH  16  20
ENDBRANCH   1  18
TORSDOF 6
