REMARK  Name = =
REMARK  0 active torsions:
REMARK  status: ('A' for Active; 'I' for Inactive)
REMARK                            x       y       z     vdW  Elec       q    Type
REMARK                         _______ _______ _______ _____ _____    ______ ____
ROOT
ATOM      1  N   UNL     1      -4.375  -4.550  33.302  0.00  0.00    -0.213 NA
ATOM      2  C   UNL     1      -4.085  -5.756  32.622  0.00  0.00    +0.094 C 
ATOM      3  C   UNL     1      -3.303  -5.594  31.348  0.00  0.00    +0.045 C 
ATOM      4  C   UNL     1      -4.040  -4.638  30.474  0.00  0.00    -0.028 C 
ATOM      5  C   UNL     1      -4.513  -3.556  31.081  0.00  0.00    -0.012 C 
ATOM      6  C   UNL     1      -4.302  -3.350  32.532  0.00  0.00    +0.114 C 
ENDROOT
TORSDOF 0
