REMARK  Name = =
REMARK  6 active torsions:
REMARK  status: ('A' for Active; 'I' for Inactive)
REMARK    1  A    between atoms: C_1  and  N_12
REMARK    2  A    between atoms: C_1  and  N_15
REMARK    3  A    between atoms: N_13  and  N_14
REMARK    4  A    between atoms: N_15  and  C_17
REMARK    5  A    between atoms: N_15  and  N_22
REMARK    6  A    between atoms: C_23  and  O_25
REMARK                            x       y       z     vdW  Elec       q    Type
REMARK                         _______ _______ _______ _____ _____    ______ ____
ROOT
ATOM      1  C   UNL     1      53.485 153.289  27.445  0.00  0.00    +0.280 C 
ATOM      2  C   UNL     1      53.664 154.747  27.590  0.00  0.00    +0.218 C 
ATOM      3  O   UNL     1      53.684 155.355  28.697  0.00  0.00    -0.287 OA
ATOM      4  C   UNL     1      53.807 155.307  26.257  0.00  0.00    +0.041 C 
ATOM      5  C   UNL     1      53.874 154.301  25.323  0.00  0.00    +0.041 C 
ATOM      6  C   UNL     1      54.015 154.570  23.956  0.00  0.00    +0.003 C 
ATOM      7  C   UNL     1      54.084 155.884  23.549  0.00  0.00    +0.000 C 
ATOM      8  C   UNL     1      54.016 156.882  24.495  0.00  0.00    +0.000 C 
ATOM      9  C   UNL     1      53.878 156.639  25.845  0.00  0.00    +0.003 C 
ATOM     10  C   UNL     1      53.777 153.022  26.014  0.00  0.00    +0.218 C 
ATOM     11  O   UNL     1      53.907 151.860  25.547  0.00  0.00    -0.287 OA
ENDROOT
BRANCH   1  12
ATOM     12  N   UNL     1      54.398 152.540  28.299  0.00  0.00    -0.131 NA
ATOM     13  N   UNL     1      55.157 153.215  29.055  0.00  0.00    -0.087 NA
BRANCH  13  14
ATOM     14  N   UNL     1      56.091 152.731  29.937  0.00  0.00    -0.264 N 
ATOM     15  H   UNL     1      56.628 153.355  30.477  0.00  0.00    +0.166 HD
ATOM     16  H   UNL     1      56.224 151.760  30.029  0.00  0.00    +0.166 HD
ENDBRANCH  13  14
ENDBRANCH   1  12
BRANCH   1  17
ATOM     17  N   UNL     1      52.133 152.984  27.794  0.00  0.00    -0.132 NA
BRANCH  17  19
ATOM     18  O   UNL     1      50.428 154.691  28.055  0.00  0.00    -0.455 OA
ATOM     19  C   UNL     1      51.408 153.857  28.628  0.00  0.00    +0.269 C 
ATOM     20  C   UNL     1      51.590 153.944  29.929  0.00  0.00    +0.036 C 
ATOM     21  C   UNL     1      50.833 154.856  30.804  0.00  0.00    +0.004 C 
ATOM     22  C   UNL     1      49.842 155.665  30.052  0.00  0.00    +0.040 C 
ATOM     23  C   UNL     1      49.661 155.577  28.756  0.00  0.00    +0.174 C 
ENDBRANCH  17  19
BRANCH  17  24
ATOM     24  N   UNL     1      51.544 151.840  27.315  0.00  0.00    -0.207 N 
ATOM     25  C   UNL     1      51.449 150.643  28.089  0.00  0.00    +0.412 C 
ATOM     26  O   UNL     1      51.932 150.682  29.239  0.00  0.00    -0.225 OA
ATOM     27  H   UNL     1      51.173 151.845  26.403  0.00  0.00    +0.173 HD
BRANCH  25  28
ATOM     28  O   UNL     1      50.844 149.489  27.573  0.00  0.00    -0.465 OA
ATOM     29  H   UNL     1      50.491 149.493  26.705  0.00  0.00    +0.297 HD
ENDBRANCH  25  28
ENDBRANCH  17  24
ENDBRANCH   1  17
TORSDOF 6
