REMARK  Name = =
REMARK  6 active torsions:
REMARK  status: ('A' for Active; 'I' for Inactive)
REMARK    1  A    between atoms: C_1  and  C_17
REMARK    2  A    between atoms: C_1  and  C_40
REMARK    3  A    between atoms: N_16  and  C_22
REMARK    4  A    between atoms: N_19  and  C_33
REMARK    5  A    between atoms: C_34  and  O_39
REMARK    6  A    between atoms: C_40  and  C_45
REMARK                            x       y       z     vdW  Elec       q    Type
REMARK                         _______ _______ _______ _____ _____    ______ ____
ROOT
ATOM      1  C   UNL     1     -21.961 -40.706  23.125  0.00  0.00    +0.150 C 
ATOM      2  O   UNL     1     -22.218 -39.376  23.601  0.00  0.00    -0.351 OA
ATOM      3  C   UNL     1     -22.761 -38.617  22.564  0.00  0.00    +0.174 C 
ATOM      4  C   UNL     1     -21.621 -38.075  21.735  0.00  0.00    +0.174 C 
ATOM      5  O   UNL     1     -22.078 -37.466  20.571  0.00  0.00    -0.326 OA
ATOM      6  C   UNL     1     -20.978 -37.197  19.783  0.00  0.00    +0.264 C 
ATOM      7  O   UNL     1     -21.203 -36.298  18.751  0.00  0.00    -0.321 OA
ATOM      8  C   UNL     1     -22.142 -36.765  17.839  0.00  0.00    +0.209 C 
ATOM      9  C   UNL     1     -22.566 -38.144  18.153  0.00  0.00    +0.183 C 
ATOM     10  O   UNL     1     -23.724 -38.444  18.216  0.00  0.00    -0.293 OA
ATOM     11  C   UNL     1     -21.446 -39.146  18.377  0.00  0.00    +0.102 C 
ATOM     12  C   UNL     1     -20.445 -38.516  19.296  0.00  0.00    +0.179 C 
ATOM     13  O   UNL     1     -20.016 -39.284  20.340  0.00  0.00    -0.350 OA
ATOM     14  C   UNL     1     -20.740 -39.260  21.466  0.00  0.00    +0.147 C 
ATOM     15  C   UNL     1     -21.415 -40.556  21.782  0.00  0.00    +0.065 C 
ENDROOT
BRANCH   1  17
ATOM     16  N   UNL     1     -23.551 -42.222  24.422  0.00  0.00    -0.264 NA
ATOM     17  C   UNL     1     -23.250 -41.435  23.309  0.00  0.00    +0.107 C 
ATOM     18  C   UNL     1     -24.197 -41.645  22.196  0.00  0.00    +0.109 C 
ATOM     19  N   UNL     1     -25.465 -41.021  22.635  0.00  0.00    -0.302 N 
ATOM     20  C   UNL     1     -25.803 -41.235  24.029  0.00  0.00    +0.108 C 
ATOM     21  C   UNL     1     -24.944 -42.159  24.781  0.00  0.00    +0.094 C 
BRANCH  16  22
ATOM     22  C   UNL     1     -23.144 -43.573  24.502  0.00  0.00    +0.120 C 
ATOM     23  C   UNL     1     -23.801 -44.538  23.499  0.00  0.00    +0.029 C 
ATOM     24  C   UNL     1     -23.399 -45.967  23.986  0.00  0.00    +0.028 C 
ATOM     25  C   UNL     1     -24.372 -46.218  25.088  0.00  0.00    -0.019 C 
ATOM     26  C   UNL     1     -24.469 -45.209  26.032  0.00  0.00    +0.032 C 
ATOM     27  C   UNL     1     -25.344 -45.328  27.088  0.00  0.00    +0.003 C 
ATOM     28  C   UNL     1     -26.120 -46.463  27.189  0.00  0.00    +0.000 C 
ATOM     29  C   UNL     1     -26.015 -47.460  26.237  0.00  0.00    -0.000 C 
ATOM     30  C   UNL     1     -25.129 -47.355  25.160  0.00  0.00    -0.004 C 
ATOM     31  C   UNL     1     -23.613 -44.053  25.841  0.00  0.00    +0.187 C 
ATOM     32  O   UNL     1     -23.252 -43.417  26.873  0.00  0.00    -0.290 OA
ENDBRANCH  16  22
BRANCH  19  33
ATOM     33  C   UNL     1     -26.318 -40.239  21.873  0.00  0.00    +0.082 C 
ATOM     34  C   UNL     1     -27.676 -40.458  21.810  0.00  0.00    +0.147 C 
ATOM     35  C   UNL     1     -28.500 -39.664  21.017  0.00  0.00    +0.038 C 
ATOM     36  C   UNL     1     -27.996 -38.625  20.264  0.00  0.00    +0.003 C 
ATOM     37  C   UNL     1     -26.654 -38.405  20.326  0.00  0.00    +0.001 C 
ATOM     38  C   UNL     1     -25.838 -39.177  21.098  0.00  0.00    +0.018 C 
BRANCH  34  39
ATOM     39  O   UNL     1     -28.305 -41.466  22.525  0.00  0.00    -0.504 OA
ATOM     40  H   UNL     1     -27.802 -42.033  23.076  0.00  0.00    +0.292 HD
ENDBRANCH  34  39
ENDBRANCH  19  33
ENDBRANCH   1  17
BRANCH   1  41
ATOM     41  C   UNL     1     -20.965 -41.131  24.206  0.00  0.00    +0.213 C 
ATOM     42  O   UNL     1     -19.813 -40.472  23.899  0.00  0.00    -0.470 OA
ATOM     43  C   UNL     1     -18.755 -41.290  23.725  0.00  0.00    +0.168 C 
ATOM     44  C   UNL     1     -19.190 -42.697  23.657  0.00  0.00    +0.018 C 
ATOM     45  C   UNL     1     -20.652 -42.619  24.019  0.00  0.00    +0.079 C 
BRANCH  41  46
ATOM     46  C   UNL     1     -21.334 -40.964  25.581  0.00  0.00    +0.197 A 
ATOM     47  N   UNL     1     -22.046 -40.104  26.329  0.00  0.00    -0.109 NA
ATOM     48  N   UNL     1     -22.067 -40.444  27.589  0.00  0.00    -0.023 NA
ATOM     49  N   UNL     1     -21.355 -41.548  27.667  0.00  0.00    -0.047 NA
ATOM     50  N   UNL     1     -20.898 -41.896  26.496  0.00  0.00    -0.239 N 
ATOM     51  H   UNL     1     -20.341 -42.684  26.301  0.00  0.00    +0.192 HD
ENDBRANCH  41  46
ENDBRANCH   1  41
TORSDOF 6
