REMARK  Name = =
REMARK  0 active torsions:
REMARK  status: ('A' for Active; 'I' for Inactive)
REMARK                            x       y       z     vdW  Elec       q    Type
REMARK                         _______ _______ _______ _____ _____    ______ ____
ROOT
ATOM      1  C   UNL     1      51.729 155.476  28.798  0.00  0.00    +0.180 C 
ATOM      2  N   UNL     1      52.809 155.657  28.419  0.00  0.00    -0.180 NA
ENDROOT
TORSDOF 0
