REMARK  Name = =
REMARK  1 active torsions:
REMARK  status: ('A' for Active; 'I' for Inactive)
REMARK    1  A    between atoms: N_1  and  C_2
REMARK                            x       y       z     vdW  Elec       q    Type
REMARK                         _______ _______ _______ _____ _____    ______ ____
ROOT
ATOM      1  N   UNL     1      51.055 155.604  29.344  0.00  0.00    -0.297 N 
ATOM      2  H   UNL     1      50.327 156.239  29.153  0.00  0.00    +0.154 HD
ATOM      3  H   UNL     1      51.118 155.179  30.230  0.00  0.00    +0.154 HD
ENDROOT
BRANCH   1   4
ATOM      4  C   UNL     1      52.004 155.304  28.352  0.00  0.00    +0.163 C 
ATOM      5  N   UNL     1      52.796 155.075  27.535  0.00  0.00    -0.175 NA
ENDBRANCH   1   4
TORSDOF 1
