REMARK  Name = =
REMARK  2 active torsions:
REMARK  status: ('A' for Active; 'I' for Inactive)
REMARK    1  A    between atoms: C_5  and  N_6
REMARK    2  A    between atoms: N_6  and  C_7
REMARK                            x       y       z     vdW  Elec       q    Type
REMARK                         _______ _______ _______ _____ _____    ______ ____
ROOT
ATOM      1  S   UNL     1      51.985 158.377  29.529  0.00  0.00    -0.049 S 
ATOM      2  C   UNL     1      50.972 159.744  30.287  0.00  0.00    +0.136 C 
ATOM      3  N   UNL     1      49.962 159.132  30.513  0.00  0.00    -0.233 NA
ATOM      4  C   UNL     1      49.692 157.897  30.287  0.00  0.00    +0.121 C 
ATOM      5  C   UNL     1      50.644 157.090  29.702  0.00  0.00    +0.108 C 
ENDROOT
BRANCH   5   6
ATOM      6  N   UNL     1      50.750 155.782  29.311  0.00  0.00    -0.245 N 
ATOM      7  H   UNL     1      50.007 155.172  29.523  0.00  0.00    +0.165 HD
BRANCH   6   8
ATOM      8  C   UNL     1      51.852 155.264  28.629  0.00  0.00    +0.171 C 
ATOM      9  N   UNL     1      52.784 154.838  28.069  0.00  0.00    -0.174 NA
ENDBRANCH   6   8
ENDBRANCH   5   6
TORSDOF 2
