REMARK  Name = =
REMARK  4 active torsions:
REMARK  status: ('A' for Active; 'I' for Inactive)
REMARK    1  A    between atoms: O_1  and  C_10
REMARK    2  A    between atoms: O_1  and  S_12
REMARK    3  A    between atoms: C_16  and  N_18
REMARK    4  A    between atoms: N_18  and  C_19
REMARK                            x       y       z     vdW  Elec       q    Type
REMARK                         _______ _______ _______ _____ _____    ______ ____
ROOT
ATOM      1  O   UNL     1      51.722 158.332  28.951  0.00  0.00    -0.427 OA
ENDROOT
BRANCH   1  10
ATOM      2  O   UNL     1      50.252 161.894  32.960  0.00  0.00    -0.476 OA
ATOM      3  C   UNL     1      48.910 162.024  33.365  0.00  0.00    +0.206 C 
ATOM      4  C   UNL     1      47.988 161.104  32.617  0.00  0.00    +0.052 C 
ATOM      5  C   UNL     1      48.646 159.737  32.501  0.00  0.00    +0.033 C 
ATOM      6  C   UNL     1      49.872 159.916  31.676  0.00  0.00    +0.015 C 
ATOM      7  C   UNL     1      50.653 161.014  31.941  0.00  0.00    +0.135 C 
ATOM      8  C   UNL     1      51.790 161.225  31.215  0.00  0.00    +0.040 C 
ATOM      9  C   UNL     1      52.146 160.342  30.227  0.00  0.00    +0.041 C 
ATOM     10  C   UNL     1      51.390 159.222  29.925  0.00  0.00    +0.154 C 
ATOM     11  C   UNL     1      50.229 159.032  30.688  0.00  0.00    +0.037 C 
ENDBRANCH   1  10
BRANCH   1  12
ATOM     12  S   UNL     1      52.240 157.388  28.225  0.00  0.00    +0.056 S 
ATOM     13  C   UNL     1      53.706 157.267  27.111  0.00  0.00    +0.147 C 
ATOM     14  N   UNL     1      53.711 156.095  26.726  0.00  0.00    -0.203 NA
ATOM     15  C   UNL     1      52.771 155.174  27.117  0.00  0.00    +0.094 C 
ATOM     16  C   UNL     1      51.845 155.544  27.916  0.00  0.00    +0.199 C 
BRANCH  16  17
ATOM     17  N   UNL     1      50.762 154.995  28.532  0.00  0.00    -0.257 N 
ATOM     18  H   UNL     1      50.726 154.012  28.583  0.00  0.00    +0.160 HD
BRANCH  17  19
ATOM     19  C   UNL     1      49.682 155.711  29.107  0.00  0.00    +0.168 C 
ATOM     20  N   UNL     1      48.810 156.306  29.561  0.00  0.00    -0.174 NA
ENDBRANCH  17  19
ENDBRANCH  16  17
ENDBRANCH   1  12
TORSDOF 4
REMARK  Name = =
REMARK  4 active torsions:
REMARK  status: ('A' for Active; 'I' for Inactive)
REMARK    1  A    between atoms: O_1  and  C_10
REMARK    2  A    between atoms: O_1  and  S_12
REMARK    3  A    between atoms: C_16  and  N_18
REMARK    4  A    between atoms: N_18  and  C_19
REMARK                            x       y       z     vdW  Elec       q    Type
REMARK                         _______ _______ _______ _____ _____    ______ ____
ROOT
ATOM      1  H   UNK     1      53.566 156.577  29.870  0.00  0.00    +0.000 HD
ENDROOT
TORSDOF 0
