REMARK  Name = =
REMARK  0 active torsions:
REMARK  status: ('A' for Active; 'I' for Inactive)
REMARK                            x       y       z     vdW  Elec       q    Type
REMARK                         _______ _______ _______ _____ _____    ______ ____
ROOT
ATOM      1  C   UNL     1      -3.904  -4.527  31.146  0.00  0.00    -0.005 C 
ATOM      2  C   UNL     1      -4.628  -3.633  30.508  0.00  0.00    +0.114 C 
ATOM      3  N   UNL     1      -5.490  -2.752  31.219  0.00  0.00    -0.328 N 
ATOM      4  C   UNL     1      -5.570  -2.836  32.633  0.00  0.00    +0.058 C 
ATOM      5  C   UNL     1      -4.853  -3.721  33.279  0.00  0.00    +0.015 C 
ATOM      6  C   UNL     1      -3.951  -4.654  32.600  0.00  0.00    -0.002 C 
ATOM      7  H   UNL     1      -6.028  -2.087  30.732  0.00  0.00    +0.147 HD
ENDROOT
TORSDOF 0
