REMARK  Name = =
REMARK  1 active torsions:
REMARK  status: ('A' for Active; 'I' for Inactive)
REMARK    1  A    between atoms: C_9  and  O_11
REMARK                            x       y       z     vdW  Elec       q    Type
REMARK                         _______ _______ _______ _____ _____    ______ ____
ROOT
ATOM      1  C   UNL     1      -3.918  -4.673  31.491  0.00  0.00    +0.026 C 
ATOM      2  C   UNL     1      -5.337  -4.097  31.407  0.00  0.00    +0.005 C 
ATOM      3  C   UNL     1      -5.278  -2.653  31.805  0.00  0.00    +0.005 C 
ATOM      4  C   UNL     1      -4.243  -1.847  31.122  0.00  0.00    +0.026 C 
ATOM      5  C   UNL     1      -3.323  -2.624  30.246  0.00  0.00    -0.023 C 
ATOM      6  C   UNL     1      -3.155  -3.977  30.409  0.00  0.00    -0.026 C 
ATOM      7  C   UNL     1      -2.296  -4.651  29.578  0.00  0.00    -0.001 C 
ATOM      8  C   UNL     1      -1.613  -3.974  28.595  0.00  0.00    +0.036 C 
ATOM      9  C   UNL     1      -1.751  -2.613  28.396  0.00  0.00    +0.133 C 
ATOM     10  C   UNL     1      -2.623  -1.970  29.248  0.00  0.00    +0.032 C 
ENDROOT
BRANCH   9  11
ATOM     11  O   UNL     1      -1.046  -1.964  27.392  0.00  0.00    -0.506 OA
ATOM     12  H   UNL     1      -0.465  -2.448  26.839  0.00  0.00    +0.292 HD
ENDBRANCH   9  11
TORSDOF 1
