REMARK  Name = =
REMARK  2 active torsions:
REMARK  status: ('A' for Active; 'I' for Inactive)
REMARK    1  A    between atoms: C_3  and  C_11
REMARK    2  A    between atoms: C_9  and  O_17
REMARK                            x       y       z     vdW  Elec       q    Type
REMARK                         _______ _______ _______ _____ _____    ______ ____
ROOT
ATOM      1  C   UNL     1      -3.643  -5.052  31.646  0.00  0.00    +0.026 C 
ATOM      2  C   UNL     1      -4.876  -4.231  31.333  0.00  0.00    +0.011 C 
ATOM      3  C   UNL     1      -4.476  -2.773  31.537  0.00  0.00    +0.047 C 
ATOM      4  C   UNL     1      -3.666  -2.379  30.321  0.00  0.00    +0.032 C 
ATOM      5  C   UNL     1      -2.581  -3.386  30.094  0.00  0.00    -0.023 C 
ATOM      6  C   UNL     1      -2.574  -4.621  30.709  0.00  0.00    -0.026 C 
ATOM      7  C   UNL     1      -1.514  -5.485  30.428  0.00  0.00    -0.001 C 
ATOM      8  C   UNL     1      -0.495  -5.137  29.565  0.00  0.00    +0.036 C 
ATOM      9  C   UNL     1      -0.493  -3.905  28.946  0.00  0.00    +0.133 C 
ATOM     10  C   UNL     1      -1.539  -3.052  29.223  0.00  0.00    +0.032 C 
ENDROOT
BRANCH   3  11
ATOM     11  C   UNL     1      -5.691  -1.958  31.694  0.00  0.00    +0.078 C 
ATOM     12  N   UNL     1      -6.893  -2.461  31.364  0.00  0.00    -0.245 NA
ATOM     13  C   UNL     1      -8.032  -1.733  31.499  0.00  0.00    +0.119 C 
ATOM     14  C   UNL     1      -7.995  -0.443  31.982  0.00  0.00    +0.120 C 
ATOM     15  N   UNL     1      -6.793   0.060  32.311  0.00  0.00    -0.239 NA
ATOM     16  C   UNL     1      -5.651  -0.669  32.177  0.00  0.00    +0.114 C 
ENDBRANCH   3  11
BRANCH   9  17
ATOM     17  O   UNL     1       0.534  -3.539  28.069  0.00  0.00    -0.506 OA
ATOM     18  H   UNL     1       0.520  -2.698  27.657  0.00  0.00    +0.292 HD
ENDBRANCH   9  17
TORSDOF 2
