REMARK  Name = =
REMARK  3 active torsions:
REMARK  status: ('A' for Active; 'I' for Inactive)
REMARK    1  A    between atoms: C_1  and  C_9
REMARK    2  A    between atoms: C_3  and  C_18
REMARK    3  A    between atoms: C_15  and  O_17
REMARK                            x       y       z     vdW  Elec       q    Type
REMARK                         _______ _______ _______ _____ _____    ______ ____
ROOT
ATOM      1  C   UNL     1      -1.974  -5.253  29.812  0.00  0.00    +0.078 C 
ATOM      2  N   UNL     1      -1.372  -6.311  29.256  0.00  0.00    -0.247 NA
ATOM      3  C   UNL     1      -0.044  -6.426  29.055  0.00  0.00    +0.100 C 
ATOM      4  C   UNL     1       0.733  -5.369  29.456  0.00  0.00    +0.118 C 
ATOM      5  N   UNL     1       0.167  -4.266  30.028  0.00  0.00    -0.240 NA
ATOM      6  C   UNL     1      -1.164  -4.208  30.204  0.00  0.00    +0.114 C 
ENDROOT
BRANCH   1   9
ATOM      7  C   UNL     1      -3.828  -5.510  32.477  0.00  0.00    +0.026 C 
ATOM      8  C   UNL     1      -3.851  -6.119  31.110  0.00  0.00    +0.011 C 
ATOM      9  C   UNL     1      -3.473  -5.210  29.992  0.00  0.00    +0.047 C 
ATOM     10  C   UNL     1      -3.980  -3.819  30.063  0.00  0.00    +0.032 C 
ATOM     11  C   UNL     1      -4.671  -3.463  31.333  0.00  0.00    -0.023 C 
ATOM     12  C   UNL     1      -4.605  -4.244  32.468  0.00  0.00    -0.026 C 
ATOM     13  C   UNL     1      -5.285  -3.819  33.601  0.00  0.00    -0.001 C 
ATOM     14  C   UNL     1      -6.013  -2.651  33.615  0.00  0.00    +0.036 C 
ATOM     15  C   UNL     1      -6.086  -1.863  32.487  0.00  0.00    +0.133 C 
ATOM     16  C   UNL     1      -5.416  -2.278  31.362  0.00  0.00    +0.032 C 
BRANCH  15  17
ATOM     17  O   UNL     1      -6.832  -0.666  32.496  0.00  0.00    -0.506 OA
ATOM     18  H   UNL     1      -7.282  -0.400  33.274  0.00  0.00    +0.292 HD
ENDBRANCH  15  17
ENDBRANCH   1   9
BRANCH   3  19
ATOM     19  C   UNL     1       0.527  -7.618  28.442  0.00  0.00    +0.019 C 
ATOM     20  C   UNL     1       1.745  -7.682  27.825  0.00  0.00    -0.002 C 
ATOM     21  C   UNL     1       2.230  -8.864  27.257  0.00  0.00    -0.009 C 
ATOM     22  C   UNL     1       1.495 -10.025  27.296  0.00  0.00    -0.009 C 
ATOM     23  C   UNL     1       0.261  -9.967  27.919  0.00  0.00    -0.003 C 
ATOM     24  C   UNL     1      -0.218  -8.801  28.479  0.00  0.00    +0.001 C 
ATOM     25  C   UNL     1       2.245 -11.124  26.621  0.00  0.00    +0.096 C 
ATOM     26  N   UNL     1       3.417 -10.506  26.091  0.00  0.00    -0.290 NA
ATOM     27  C   UNL     1       3.501  -9.158  26.548  0.00  0.00    +0.096 C 
ATOM     28  H   UNL     1       4.241 -11.021  26.401  0.00  0.00    +0.124 HD
ENDBRANCH   3  19
TORSDOF 3
