REMARK  Name = =
REMARK  4 active torsions:
REMARK  status: ('A' for Active; 'I' for Inactive)
REMARK    1  A    between atoms: C_1  and  C_27
REMARK    2  A    between atoms: C_2  and  N_7
REMARK    3  A    between atoms: C_3  and  O_28
REMARK    4  A    between atoms: C_15  and  C_16
REMARK                            x       y       z     vdW  Elec       q    Type
REMARK                         _______ _______ _______ _____ _____    ______ ____
ROOT
ATOM      1  C   UNL     1       0.158  -6.735  30.439  0.00  0.00    +0.098 C 
ATOM      2  C   UNL     1      -1.083  -7.180  30.217  0.00  0.00    +0.107 C 
ATOM      3  C   UNL     1      -1.289  -8.081  29.167  0.00  0.00    +0.150 C 
ATOM      4  C   UNL     1      -0.230  -8.473  28.410  0.00  0.00    +0.059 C 
ATOM      5  C   UNL     1       1.017  -7.972  28.699  0.00  0.00    +0.102 C 
ATOM      6  N   UNL     1       1.239  -7.116  29.692  0.00  0.00    -0.242 NA
ENDROOT
BRANCH   2   7
ATOM      7  N   UNL     1      -2.188  -6.882  31.033  0.00  0.00    -0.261 N 
ATOM      8  C   UNL     1      -2.900  -5.770  31.150  0.00  0.00    +0.052 C 
ATOM      9  C   UNL     1      -3.879  -6.008  32.133  0.00  0.00    +0.015 C 
ATOM     10  C   UNL     1      -3.721  -7.310  32.596  0.00  0.00    +0.018 C 
ATOM     11  C   UNL     1      -2.673  -7.847  31.909  0.00  0.00    +0.070 C 
ATOM     12  C   UNL     1      -4.746  -5.028  32.553  0.00  0.00    +0.001 C 
ATOM     13  C   UNL     1      -4.684  -3.752  32.020  0.00  0.00    -0.000 C 
ATOM     14  C   UNL     1      -3.737  -3.503  31.064  0.00  0.00    -0.003 C 
ATOM     15  C   UNL     1      -2.856  -4.466  30.618  0.00  0.00    -0.009 C 
BRANCH  15  16
ATOM     16  C   UNL     1      -1.947  -4.228  29.471  0.00  0.00    +0.024 C 
ATOM     17  C   UNL     1      -1.014  -3.097  29.922  0.00  0.00    +0.004 C 
ATOM     18  C   UNL     1      -1.107  -1.797  29.160  0.00  0.00    +0.000 C 
ATOM     19  C   UNL     1      -0.848  -2.209  27.694  0.00  0.00    +0.000 C 
ATOM     20  C   UNL     1      -2.043  -3.015  27.248  0.00  0.00    +0.000 C 
ATOM     21  C   UNL     1      -2.867  -3.570  28.378  0.00  0.00    +0.004 C 
ENDBRANCH  15  16
ENDBRANCH   2   7
BRANCH   1  27
ATOM     22  C   UNL     1       0.831  -6.585  32.685  0.00  0.00    -0.003 C 
ATOM     23  C   UNL     1       2.017  -6.718  33.212  0.00  0.00    +0.114 C 
ATOM     24  N   UNL     1       3.142  -6.029  32.703  0.00  0.00    -0.328 N 
ATOM     25  C   UNL     1       2.913  -5.173  31.583  0.00  0.00    +0.058 C 
ATOM     26  C   UNL     1       1.745  -5.035  31.052  0.00  0.00    +0.017 C 
ATOM     27  C   UNL     1       0.533  -5.735  31.523  0.00  0.00    +0.018 C 
ATOM     28  H   UNL     1       4.037  -6.134  33.100  0.00  0.00    +0.147 HD
ENDBRANCH   1  27
BRANCH   3  29
ATOM     29  O   UNL     1      -2.558  -8.557  28.924  0.00  0.00    -0.504 OA
ATOM     30  H   UNL     1      -3.275  -8.274  29.457  0.00  0.00    +0.292 HD
ENDBRANCH   3  29
TORSDOF 4
