REMARK  Name = =
REMARK  5 active torsions:
REMARK  status: ('A' for Active; 'I' for Inactive)
REMARK    1  A    between atoms: C_1  and  C_13
REMARK    2  A    between atoms: C_3  and  C_22
REMARK    3  A    between atoms: N_7  and  O_31
REMARK    4  A    between atoms: C_19  and  O_21
REMARK    5  A    between atoms: O_31  and  C_32
REMARK                            x       y       z     vdW  Elec       q    Type
REMARK                         _______ _______ _______ _____ _____    ______ ____
ROOT
ATOM      1  C   UNL     1      -0.597  -4.477  28.454  0.00  0.00    +0.094 C 
ATOM      2  N   UNL     1      -1.710  -4.437  29.254  0.00  0.00    -0.245 NA
ATOM      3  C   UNL     1      -2.177  -3.299  29.796  0.00  0.00    +0.100 C 
ATOM      4  C   UNL     1      -1.528  -2.115  29.549  0.00  0.00    +0.119 C 
ATOM      5  N   UNL     1      -0.439  -2.123  28.775  0.00  0.00    -0.223 NA
ATOM      6  C   UNL     1       0.027  -3.300  28.230  0.00  0.00    +0.188 C 
ATOM      7  N   UNL     1       1.203  -3.155  27.456  0.00  0.00    -0.062 N 
ATOM      8  C   UNL     1       1.197  -2.786  26.121  0.00  0.00    +0.338 C 
ATOM      9  O   UNL     1       0.264  -2.547  25.355  0.00  0.00    -0.249 OA
ATOM     10  N   UNL     1       2.515  -2.648  25.510  0.00  0.00    -0.311 N 
ATOM     11  H   UNL     1       3.325  -2.818  26.043  0.00  0.00    +0.147 HD
ATOM     12  H   UNL     1       2.594  -2.384  24.565  0.00  0.00    +0.147 HD
ENDROOT
BRANCH   1  15
ATOM     13  C   UNL     1       0.821  -7.936  28.403  0.00  0.00    +0.026 C 
ATOM     14  C   UNL     1       0.635  -6.541  28.994  0.00  0.00    +0.011 C 
ATOM     15  C   UNL     1      -0.102  -5.758  27.902  0.00  0.00    +0.048 C 
ATOM     16  C   UNL     1       0.976  -5.424  26.897  0.00  0.00    +0.032 C 
ATOM     17  C   UNL     1       1.909  -6.550  26.680  0.00  0.00    -0.023 C 
ATOM     18  C   UNL     1       1.883  -7.741  27.345  0.00  0.00    -0.026 C 
ATOM     19  C   UNL     1       2.762  -8.755  27.103  0.00  0.00    -0.001 C 
ATOM     20  C   UNL     1       3.732  -8.614  26.157  0.00  0.00    +0.036 C 
ATOM     21  C   UNL     1       3.791  -7.401  25.454  0.00  0.00    +0.133 C 
ATOM     22  C   UNL     1       2.904  -6.369  25.691  0.00  0.00    +0.032 C 
BRANCH  21  23
ATOM     23  O   UNL     1       4.774  -7.270  24.501  0.00  0.00    -0.506 OA
ATOM     24  H   UNL     1       4.847  -6.476  24.010  0.00  0.00    +0.292 HD
ENDBRANCH  21  23
ENDBRANCH   1  15
BRANCH   3  25
ATOM     25  C   UNL     1      -3.308  -3.353  30.717  0.00  0.00    +0.019 C 
ATOM     26  C   UNL     1      -4.137  -2.296  30.854  0.00  0.00    -0.002 C 
ATOM     27  C   UNL     1      -5.145  -2.342  31.805  0.00  0.00    -0.009 C 
ATOM     28  C   UNL     1      -5.286  -3.440  32.588  0.00  0.00    -0.009 C 
ATOM     29  C   UNL     1      -4.428  -4.539  32.443  0.00  0.00    -0.003 C 
ATOM     30  C   UNL     1      -3.442  -4.484  31.503  0.00  0.00    +0.001 C 
ATOM     31  C   UNL     1      -6.366  -3.235  33.564  0.00  0.00    +0.096 C 
ATOM     32  N   UNL     1      -6.881  -1.942  33.281  0.00  0.00    -0.290 NA
ATOM     33  C   UNL     1      -6.234  -1.395  32.133  0.00  0.00    +0.096 C 
ATOM     34  H   UNL     1      -6.719  -1.332  34.082  0.00  0.00    +0.124 HD
ENDBRANCH   3  25
BRANCH   7  35
ATOM     35  O   UNL     1       2.388  -3.372  28.102  0.00  0.00    -0.327 OA
BRANCH  35  36
ATOM     36  C   UNL     1       3.146  -2.242  28.398  0.00  0.00    +0.442 C 
ATOM     37  O   UNL     1       2.692  -1.058  28.303  0.00  0.00    -0.235 OA
ENDBRANCH  35  36
ENDBRANCH   7  35
TORSDOF 5
