REMARK  Name = =
REMARK  6 active torsions:
REMARK  status: ('A' for Active; 'I' for Inactive)
REMARK    1  A    between atoms: C_1  and  C_13
REMARK    2  A    between atoms: C_3  and  C_27
REMARK    3  A    between atoms: N_7  and  O_36
REMARK    4  A    between atoms: C_11  and  N_21
REMARK    5  A    between atoms: C_19  and  O_26
REMARK    6  A    between atoms: O_36  and  C_37
REMARK                            x       y       z     vdW  Elec       q    Type
REMARK                         _______ _______ _______ _____ _____    ______ ____
ROOT
ATOM      1  C   UNL     1       0.475  -4.625  29.514  0.00  0.00    +0.094 C 
ATOM      2  N   UNL     1       0.748  -3.676  28.555  0.00  0.00    -0.245 NA
ATOM      3  C   UNL     1       1.817  -3.704  27.748  0.00  0.00    +0.100 C 
ATOM      4  C   UNL     1       2.663  -4.768  27.936  0.00  0.00    +0.119 C 
ATOM      5  N   UNL     1       2.428  -5.711  28.861  0.00  0.00    -0.223 NA
ATOM      6  C   UNL     1       1.320  -5.653  29.672  0.00  0.00    +0.188 C 
ATOM      7  N   UNL     1       1.120  -6.639  30.645  0.00  0.00    -0.062 N 
ATOM      8  C   UNL     1       1.668  -6.473  31.935  0.00  0.00    +0.338 C 
ATOM      9  O   UNL     1       2.343  -5.456  32.278  0.00  0.00    -0.249 OA
ATOM     10  N   UNL     1       1.505  -7.444  32.970  0.00  0.00    -0.311 N 
ATOM     11  H   UNL     1       0.995  -8.268  32.796  0.00  0.00    +0.147 HD
ATOM     12  H   UNL     1       1.903  -7.289  33.857  0.00  0.00    +0.147 HD
ENDROOT
BRANCH   1  15
ATOM     13  C   UNL     1      -2.235  -5.742  31.875  0.00  0.00    +0.080 C 
ATOM     14  C   UNL     1      -1.091  -5.700  30.961  0.00  0.00    +0.027 C 
ATOM     15  C   UNL     1      -0.806  -4.425  30.202  0.00  0.00    +0.049 C 
ATOM     16  C   UNL     1      -1.986  -3.966  29.482  0.00  0.00    +0.032 C 
ATOM     17  C   UNL     1      -3.102  -3.822  30.505  0.00  0.00    -0.022 C 
ATOM     18  C   UNL     1      -3.191  -4.613  31.592  0.00  0.00    -0.012 C 
ATOM     19  C   UNL     1      -4.199  -4.442  32.517  0.00  0.00    -0.000 C 
ATOM     20  C   UNL     1      -5.157  -3.454  32.359  0.00  0.00    +0.036 C 
ATOM     21  C   UNL     1      -5.074  -2.657  31.268  0.00  0.00    +0.133 C 
ATOM     22  C   UNL     1      -4.049  -2.837  30.338  0.00  0.00    +0.032 C 
BRANCH  13  23
ATOM     23  N   UNL     1      -2.980  -6.963  31.740  0.00  0.00    -0.270 NA
ATOM     24  C   UNL     1      -2.585  -7.993  32.619  0.00  0.00    +0.072 C 
ATOM     25  C   UNL     1      -2.482  -9.280  31.831  0.00  0.00    +0.019 C 
ATOM     26  C   UNL     1      -3.214  -8.991  30.564  0.00  0.00    +0.019 C 
ATOM     27  C   UNL     1      -3.124  -7.480  30.425  0.00  0.00    +0.072 C 
ENDBRANCH  13  23
BRANCH  21  28
ATOM     28  O   UNL     1      -6.027  -1.653  31.089  0.00  0.00    -0.506 OA
ATOM     29  H   UNL     1      -6.712  -1.539  31.718  0.00  0.00    +0.292 HD
ENDBRANCH  21  28
ENDBRANCH   1  15
BRANCH   3  30
ATOM     30  C   UNL     1       2.021  -2.669  26.740  0.00  0.00    +0.019 C 
ATOM     31  C   UNL     1       2.813  -2.793  25.632  0.00  0.00    -0.002 C 
ATOM     32  C   UNL     1       2.982  -1.793  24.679  0.00  0.00    -0.009 C 
ATOM     33  C   UNL     1       2.328  -0.589  24.826  0.00  0.00    -0.009 C 
ATOM     34  C   UNL     1       1.524  -0.443  25.937  0.00  0.00    -0.003 C 
ATOM     35  C   UNL     1       1.365  -1.437  26.872  0.00  0.00    +0.001 C 
ATOM     36  C   UNL     1       2.696   0.283  23.669  0.00  0.00    +0.096 C 
ATOM     37  N   UNL     1       3.010  -0.727  22.651  0.00  0.00    -0.290 NA
ATOM     38  C   UNL     1       3.761  -1.697  23.424  0.00  0.00    +0.096 C 
ATOM     39  H   UNL     1       2.162  -1.138  22.261  0.00  0.00    +0.124 HD
ENDBRANCH   3  30
BRANCH   7  40
ATOM     40  O   UNL     1       0.441  -7.774  30.372  0.00  0.00    -0.327 OA
BRANCH  40  41
ATOM     41  C   UNL     1       0.100  -8.150  29.095  0.00  0.00    +0.442 C 
ATOM     42  O   UNL     1       0.968  -8.712  28.400  0.00  0.00    -0.235 OA
ENDBRANCH  40  41
ENDBRANCH   7  40
TORSDOF 6
