REMARK  Name = =
REMARK  0 active torsions:
REMARK  status: ('A' for Active; 'I' for Inactive)
REMARK                            x       y       z     vdW  Elec       q    Type
REMARK                         _______ _______ _______ _____ _____    ______ ____
ROOT
ATOM      1  C   UNL     1      -4.248  -4.547  30.717  0.00  0.00    +0.000 C 
ATOM      2  C   UNL     1      -4.403  -3.191  30.693  0.00  0.00    +0.000 C 
ATOM      3  C   UNL     1      -3.424  -2.339  30.221  0.00  0.00    +0.000 C 
ATOM      4  C   UNL     1      -2.244  -2.888  29.756  0.00  0.00    +0.000 C 
ATOM      5  C   UNL     1      -2.064  -4.246  29.770  0.00  0.00    +0.000 C 
ATOM      6  C   UNL     1      -3.063  -5.082  30.249  0.00  0.00    +0.000 C 
ENDROOT
TORSDOF 0
