REMARK  Name = =
REMARK  2 active torsions:
REMARK  status: ('A' for Active; 'I' for Inactive)
REMARK    1  A    between atoms: O_1  and  C_2
REMARK    2  A    between atoms: O_1  and  C_4
REMARK                            x       y       z     vdW  Elec       q    Type
REMARK                         _______ _______ _______ _____ _____    ______ ____
ROOT
ATOM      1  O   UNL     1      -4.302  -4.402  31.589  0.00  0.00    -0.377 OA
ENDROOT
BRANCH   1   2
ATOM      2  C   UNL     1      -4.086  -3.550  32.651  0.00  0.00    +0.425 C 
ATOM      3  O   UNL     1      -4.836  -3.672  33.647  0.00  0.00    -0.237 OA
ENDBRANCH   1   2
BRANCH   1   4
ATOM      4  C   UNL     1      -4.047  -3.929  30.315  0.00  0.00    +0.425 C 
ATOM      5  O   UNL     1      -2.958  -3.379  30.005  0.00  0.00    -0.237 OA
ENDBRANCH   1   4
TORSDOF 2
