REMARK  Name = =
REMARK  2 active torsions:
REMARK  status: ('A' for Active; 'I' for Inactive)
REMARK    1  A    between atoms: C_1  and  C_5
REMARK    2  A    between atoms: C_1  and  C_9
REMARK                            x       y       z     vdW  Elec       q    Type
REMARK                         _______ _______ _______ _____ _____    ______ ____
ROOT
ATOM      1  C   UNL     1      -3.684  -1.188  30.199  0.00  0.00    +0.197 C 
ATOM      2  O   UNL     1      -3.132  -0.217  29.555  0.00  0.00    -0.213 OA
ENDROOT
BRANCH   1   5
ATOM      3  C   UNL     1      -3.257  -4.916  30.022  0.00  0.00    -0.000 C 
ATOM      4  C   UNL     1      -3.815  -3.667  30.273  0.00  0.00    -0.002 C 
ATOM      5  C   UNL     1      -3.156  -2.509  29.938  0.00  0.00    +0.012 C 
ATOM      6  C   UNL     1      -1.905  -2.654  29.334  0.00  0.00    -0.002 C 
ATOM      7  C   UNL     1      -1.356  -3.888  29.089  0.00  0.00    -0.000 C 
ATOM      8  C   UNL     1      -2.014  -5.052  29.424  0.00  0.00    -0.000 C 
ENDBRANCH   1   5
BRANCH   1   9
ATOM      9  C   UNL     1      -4.754  -0.827  31.095  0.00  0.00    +0.012 C 
ATOM     10  C   UNL     1      -5.459  -1.799  31.744  0.00  0.00    -0.002 C 
ATOM     11  C   UNL     1      -6.515  -1.478  32.606  0.00  0.00    -0.000 C 
ATOM     12  C   UNL     1      -6.867  -0.152  32.817  0.00  0.00    -0.000 C 
ATOM     13  C   UNL     1      -6.155   0.821  32.163  0.00  0.00    -0.000 C 
ATOM     14  C   UNL     1      -5.115   0.509  31.315  0.00  0.00    -0.002 C 
ENDBRANCH   1   9
TORSDOF 2
