REMARK  Name = =
REMARK  3 active torsions:
REMARK  status: ('A' for Active; 'I' for Inactive)
REMARK    1  A    between atoms: C_1  and  N_7
REMARK    2  A    between atoms: C_3  and  C_12
REMARK    3  A    between atoms: C_12  and  C_14
REMARK                            x       y       z     vdW  Elec       q    Type
REMARK                         _______ _______ _______ _____ _____    ______ ____
ROOT
ATOM      1  C   UNL     1      -5.466  -0.358  31.184  0.00  0.00    +0.076 C 
ATOM      2  C   UNL     1      -5.180  -1.613  31.729  0.00  0.00    +0.020 C 
ATOM      3  C   UNL     1      -5.967  -2.180  32.702  0.00  0.00    +0.040 C 
ATOM      4  C   UNL     1      -7.081  -1.457  33.143  0.00  0.00    +0.003 C 
ATOM      5  C   UNL     1      -7.355  -0.230  32.606  0.00  0.00    +0.001 C 
ATOM      6  C   UNL     1      -6.567   0.337  31.630  0.00  0.00    +0.017 C 
ENDROOT
BRANCH   1   7
ATOM      7  N   UNL     1      -4.607   0.186  30.169  0.00  0.00    -0.169 N 
ATOM      8  N   UNL     1      -3.521  -0.327  29.649  0.00  0.00    -0.150 NA
ATOM      9  C   UNL     1      -3.011   0.506  28.724  0.00  0.00    +0.219 C 
ATOM     10  N   UNL     1      -3.811   1.583  28.662  0.00  0.00    -0.203 NA
ATOM     11  C   UNL     1      -4.796   1.373  29.562  0.00  0.00    +0.190 C 
ENDBRANCH   1   7
BRANCH   3  12
ATOM     12  C   UNL     1      -5.703  -3.489  33.259  0.00  0.00    +0.196 C 
ATOM     13  O   UNL     1      -6.368  -3.935  34.231  0.00  0.00    -0.287 OA
BRANCH  12  14
ATOM     14  C   UNL     1      -4.656  -4.319  32.701  0.00  0.00    +0.039 C 
ATOM     15  C   UNL     1      -4.178  -4.221  31.406  0.00  0.00    +0.003 C 
ATOM     16  C   UNL     1      -3.164  -5.026  30.967  0.00  0.00    +0.000 C 
ATOM     17  C   UNL     1      -2.620  -5.944  31.838  0.00  0.00    +0.000 C 
ATOM     18  C   UNL     1      -3.084  -6.060  33.144  0.00  0.00    +0.000 C 
ATOM     19  C   UNL     1      -4.090  -5.256  33.563  0.00  0.00    +0.003 C 
ENDBRANCH  12  14
ENDBRANCH   3  12
TORSDOF 3
