REMARK  Name = =
REMARK  4 active torsions:
REMARK  status: ('A' for Active; 'I' for Inactive)
REMARK    1  A    between atoms: C_1  and  N_24
REMARK    2  A    between atoms: C_2  and  N_7
REMARK    3  A    between atoms: C_3  and  C_29
REMARK    4  A    between atoms: C_29  and  C_31
REMARK                            x       y       z     vdW  Elec       q    Type
REMARK                         _______ _______ _______ _____ _____    ______ ____
ROOT
ATOM      1  C   UNL     1       3.136  -3.045  24.280  0.00  0.00    +0.093 C 
ATOM      2  C   UNL     1       3.537  -4.211  23.657  0.00  0.00    +0.101 C 
ATOM      3  C   UNL     1       3.306  -4.392  22.295  0.00  0.00    +0.058 C 
ATOM      4  C   UNL     1       2.677  -3.426  21.526  0.00  0.00    +0.005 C 
ATOM      5  C   UNL     1       2.282  -2.272  22.152  0.00  0.00    +0.002 C 
ATOM      6  C   UNL     1       2.511  -2.096  23.497  0.00  0.00    +0.018 C 
ENDROOT
BRANCH   2   7
ATOM      7  N   UNL     1       4.171  -5.163  24.487  0.00  0.00    -0.228 N 
ATOM      8  N   UNL     1       5.469  -5.321  24.658  0.00  0.00    -0.165 NA
ATOM      9  C   UNL     1       5.689  -6.335  25.545  0.00  0.00    +0.103 A 
ATOM     10  C   UNL     1       6.829  -6.986  26.144  0.00  0.00    +0.022 C 
ATOM     11  C   UNL     1       6.649  -8.020  27.043  0.00  0.00    +0.040 C 
ATOM     12  C   UNL     1       5.291  -8.479  27.407  0.00  0.00    +0.196 C 
ATOM     13  O   UNL     1       5.076  -9.401  28.207  0.00  0.00    -0.287 OA
ATOM     14  C   UNL     1       4.182  -7.790  26.777  0.00  0.00    +0.042 C 
ATOM     15  C   UNL     1       4.451  -6.781  25.902  0.00  0.00    +0.040 A 
ATOM     16  C   UNL     1       3.509  -6.048  25.241  0.00  0.00    +0.084 A 
ATOM     17  C   UNL     1       2.188  -6.348  25.469  0.00  0.00    +0.019 C 
ATOM     18  C   UNL     1       1.848  -7.377  26.360  0.00  0.00    +0.002 C 
ATOM     19  C   UNL     1       2.848  -8.100  27.015  0.00  0.00    +0.003 C 
ATOM     20  C   UNL     1       7.744  -8.639  27.612  0.00  0.00    +0.003 C 
ATOM     21  C   UNL     1       9.028  -8.227  27.286  0.00  0.00    +0.000 C 
ATOM     22  C   UNL     1       9.179  -7.197  26.390  0.00  0.00    +0.000 C 
ATOM     23  C   UNL     1       8.091  -6.580  25.822  0.00  0.00    +0.002 C 
ENDBRANCH   2   7
BRANCH   1  24
ATOM     24  N   UNL     1       3.346  -2.825  25.649  0.00  0.00    -0.167 N 
ATOM     25  N   UNL     1       2.403  -3.076  26.579  0.00  0.00    -0.150 NA
ATOM     26  C   UNL     1       2.862  -2.778  27.805  0.00  0.00    +0.219 C 
ATOM     27  N   UNL     1       4.122  -2.335  27.600  0.00  0.00    -0.203 NA
ATOM     28  C   UNL     1       4.425  -2.360  26.291  0.00  0.00    +0.190 C 
ENDBRANCH   1  24
BRANCH   3  29
ATOM     29  C   UNL     1       3.745  -5.615  21.638  0.00  0.00    +0.197 C 
ATOM     30  O   UNL     1       4.942  -5.768  21.308  0.00  0.00    -0.287 OA
BRANCH  29  31
ATOM     31  C   UNL     1       2.817  -6.695  21.341  0.00  0.00    +0.039 C 
ATOM     32  C   UNL     1       1.673  -6.913  22.075  0.00  0.00    +0.003 C 
ATOM     33  C   UNL     1       0.804  -7.933  21.754  0.00  0.00    +0.000 C 
ATOM     34  C   UNL     1       1.039  -8.773  20.695  0.00  0.00    +0.000 C 
ATOM     35  C   UNL     1       2.187  -8.561  19.953  0.00  0.00    +0.000 C 
ATOM     36  C   UNL     1       3.065  -7.546  20.262  0.00  0.00    +0.003 C 
ENDBRANCH  29  31
ENDBRANCH   3  29
TORSDOF 4
