REMARK  Name = =
REMARK  5 active torsions:
REMARK  status: ('A' for Active; 'I' for Inactive)
REMARK    1  A    between atoms: C_1  and  N_24
REMARK    2  A    between atoms: C_2  and  N_7
REMARK    3  A    between atoms: C_3  and  C_35
REMARK    4  A    between atoms: C_26  and  C_29
REMARK    5  A    between atoms: C_35  and  C_37
REMARK                            x       y       z     vdW  Elec       q    Type
REMARK                         _______ _______ _______ _____ _____    ______ ____
ROOT
ATOM      1  C   UNL     1       4.328  -5.762  21.121  0.00  0.00    +0.093 C 
ATOM      2  C   UNL     1       4.879  -5.343  22.311  0.00  0.00    +0.101 C 
ATOM      3  C   UNL     1       6.060  -4.637  22.305  0.00  0.00    +0.058 C 
ATOM      4  C   UNL     1       6.712  -4.335  21.136  0.00  0.00    +0.005 C 
ATOM      5  C   UNL     1       6.176  -4.745  19.941  0.00  0.00    +0.002 C 
ATOM      6  C   UNL     1       4.999  -5.448  19.939  0.00  0.00    +0.018 C 
ENDROOT
BRANCH   2   7
ATOM      7  N   UNL     1       4.214  -5.648  23.524  0.00  0.00    -0.228 N 
ATOM      8  N   UNL     1       3.452  -4.823  24.256  0.00  0.00    -0.165 NA
ATOM      9  C   UNL     1       2.975  -5.440  25.347  0.00  0.00    +0.103 A 
ATOM     10  C   UNL     1       2.119  -5.093  26.491  0.00  0.00    +0.022 C 
ATOM     11  C   UNL     1       1.860  -6.071  27.443  0.00  0.00    +0.040 C 
ATOM     12  C   UNL     1       2.409  -7.431  27.347  0.00  0.00    +0.196 C 
ATOM     13  O   UNL     1       2.180  -8.313  28.199  0.00  0.00    -0.287 OA
ATOM     14  C   UNL     1       3.253  -7.723  26.193  0.00  0.00    +0.042 C 
ATOM     15  C   UNL     1       3.465  -6.711  25.294  0.00  0.00    +0.040 A 
ATOM     16  C   UNL     1       4.230  -6.827  24.160  0.00  0.00    +0.084 A 
ATOM     17  C   UNL     1       4.805  -8.060  23.952  0.00  0.00    +0.019 C 
ATOM     18  C   UNL     1       4.606  -9.112  24.855  0.00  0.00    +0.002 C 
ATOM     19  C   UNL     1       3.832  -8.986  25.995  0.00  0.00    +0.003 C 
ATOM     20  C   UNL     1       1.057  -5.726  28.509  0.00  0.00    +0.003 C 
ATOM     21  C   UNL     1       0.536  -4.464  28.617  0.00  0.00    +0.000 C 
ATOM     22  C   UNL     1       0.802  -3.489  27.656  0.00  0.00    +0.000 C 
ATOM     23  C   UNL     1       1.616  -3.834  26.575  0.00  0.00    +0.002 C 
ENDBRANCH   2   7
BRANCH   1  24
ATOM     24  N   UNL     1       3.110  -6.493  21.101  0.00  0.00    -0.167 N 
ATOM     25  N   UNL     1       3.079  -7.813  20.893  0.00  0.00    -0.155 NA
ATOM     26  C   UNL     1       1.814  -8.271  20.917  0.00  0.00    +0.185 C 
ATOM     27  N   UNL     1       1.043  -7.200  21.148  0.00  0.00    -0.207 NA
ATOM     28  C   UNL     1       1.851  -6.119  21.258  0.00  0.00    +0.190 C 
BRANCH  26  29
ATOM     29  C   UNL     1       1.342  -9.668  20.728  0.00  0.00    +0.175 C 
ATOM     30  O   UNL     1       0.251  -9.722  19.868  0.00  0.00    -0.349 OA
ATOM     31  C   UNL     1       0.190 -11.031  19.376  0.00  0.00    +0.143 C 
ATOM     32  C   UNL     1       0.312 -12.080  20.429  0.00  0.00    +0.032 C 
ATOM     33  C   UNL     1       0.088 -11.522  21.829  0.00  0.00    +0.006 C 
ATOM     34  C   UNL     1       0.982 -10.304  22.036  0.00  0.00    +0.038 C 
ENDBRANCH  26  29
ENDBRANCH   1  24
BRANCH   3  35
ATOM     35  C   UNL     1       6.652  -4.211  23.551  0.00  0.00    +0.197 C 
ATOM     36  O   UNL     1       7.218  -5.055  24.275  0.00  0.00    -0.287 OA
BRANCH  35  37
ATOM     37  C   UNL     1       6.602  -2.833  23.970  0.00  0.00    +0.039 C 
ATOM     38  C   UNL     1       5.508  -2.028  23.748  0.00  0.00    +0.003 C 
ATOM     39  C   UNL     1       5.497  -0.687  24.154  0.00  0.00    +0.000 C 
ATOM     40  C   UNL     1       6.579  -0.133  24.786  0.00  0.00    +0.000 C 
ATOM     41  C   UNL     1       7.682  -0.928  25.015  0.00  0.00    +0.000 C 
ATOM     42  C   UNL     1       7.695  -2.246  24.618  0.00  0.00    +0.003 C 
ENDBRANCH  35  37
ENDBRANCH   3  35
TORSDOF 5
