REMARK  Name = =
REMARK  2 active torsions:
REMARK  status: ('A' for Active; 'I' for Inactive)
REMARK    1  A    between atoms: C_1  and  N_3
REMARK    2  A    between atoms: C_1  and  S_4
REMARK                            x       y       z     vdW  Elec       q    Type
REMARK                         _______ _______ _______ _____ _____    ______ ____
ROOT
ATOM      1  C   UNL     1      52.044 155.920  28.978  0.00  0.00    +0.101 C 
ATOM      2  S   UNL     1      52.395 157.509  29.154  0.00  0.00    -0.029 S 
ENDROOT
BRANCH   1   3
ATOM      3  N   UNL     1      51.397 155.164  29.968  0.00  0.00    -0.347 N 
ATOM      4  H   UNL     1      51.133 155.587  30.817  0.00  0.00    +0.143 HD
ATOM      5  H   UNL     1      51.207 154.210  29.814  0.00  0.00    +0.143 HD
ENDBRANCH   1   3
BRANCH   1   6
ATOM      6  S   UNL     1      52.543 155.184  27.414  0.00  0.00    -0.121 S 
ATOM      7  H   UNL     1      53.144 156.127  26.640  0.00  0.00    +0.109 HD
ENDBRANCH   1   6
TORSDOF 2
