REMARK  Name = =
REMARK  3 active torsions:
REMARK  status: ('A' for Active; 'I' for Inactive)
REMARK    1  A    between atoms: C_1  and  N_8
REMARK    2  A    between atoms: N_8  and  C_9
REMARK    3  A    between atoms: C_9  and  S_11
REMARK                            x       y       z     vdW  Elec       q    Type
REMARK                         _______ _______ _______ _____ _____    ______ ____
ROOT
ATOM      1  C   UNL     1      52.488 155.729  26.532  0.00  0.00    +0.191 C 
ATOM      2  O   UNL     1      53.032 154.677  25.879  0.00  0.00    -0.330 OA
ATOM      3  C   UNL     1      53.846 154.920  24.823  0.00  0.00    +0.208 C 
ATOM      4  C   UNL     1      54.363 156.269  24.681  0.00  0.00    +0.181 C 
ATOM      5  O   UNL     1      54.860 156.627  23.584  0.00  0.00    -0.293 OA
ATOM      6  C   UNL     1      54.301 157.190  25.807  0.00  0.00    +0.071 C 
ATOM      7  C   UNL     1      53.358 156.896  26.711  0.00  0.00    +0.059 C 
ENDROOT
BRANCH   1   8
ATOM      8  N   UNL     1      52.092 155.291  27.854  0.00  0.00    -0.302 N 
ATOM      9  H   UNL     1      52.130 154.330  28.064  0.00  0.00    +0.150 HD
BRANCH   8  10
ATOM     10  C   UNL     1      51.654 156.186  28.854  0.00  0.00    +0.106 C 
ATOM     11  S   UNL     1      50.483 155.707  29.876  0.00  0.00    -0.028 S 
BRANCH  10  12
ATOM     12  S   UNL     1      52.360 157.837  29.022  0.00  0.00    -0.120 S 
ATOM     13  H   UNL     1      53.314 158.021  28.071  0.00  0.00    +0.109 HD
ENDBRANCH  10  12
ENDBRANCH   8  10
ENDBRANCH   1   8
TORSDOF 3
