REMARK  Name = =
REMARK  0 active torsions:
REMARK  status: ('A' for Active; 'I' for Inactive)
REMARK                            x       y       z     vdW  Elec       q    Type
REMARK                         _______ _______ _______ _____ _____    ______ ____
ROOT
ATOM      1  C   UNL     1      -4.216  -5.235  32.489  0.00  0.00    +0.004 C 
ATOM      2  C   UNL     1      -4.234  -3.813  32.837  0.00  0.00    +0.000 C 
ATOM      3  C   UNL     1      -4.142  -2.834  31.732  0.00  0.00    +0.000 C 
ATOM      4  C   UNL     1      -5.145  -1.747  32.102  0.00  0.00    +0.000 C 
ATOM      5  C   UNL     1      -6.277  -2.600  32.678  0.00  0.00    +0.000 C 
ATOM      6  C   UNL     1      -5.497  -3.502  33.621  0.00  0.00    +0.000 C 
ATOM      7  C   UNL     1      -4.431  -3.416  30.370  0.00  0.00    +0.000 C 
ATOM      8  C   UNL     1      -3.514  -4.586  30.166  0.00  0.00    +0.004 C 
ATOM      9  C   UNL     1      -3.700  -5.645  31.193  0.00  0.00    +0.022 C 
ATOM     10  C   UNL     1      -2.579  -6.599  31.201  0.00  0.00    -0.026 C 
ATOM     11  C   UNL     1      -1.935  -6.960  32.339  0.00  0.00    -0.026 C 
ATOM     12  C   UNL     1      -2.337  -6.401  33.631  0.00  0.00    +0.026 C 
ATOM     13  C   UNL     1      -3.818  -6.064  33.664  0.00  0.00    +0.005 C 
ATOM     14  C   UNL     1      -0.881  -7.862  32.312  0.00  0.00    -0.005 C 
ATOM     15  C   UNL     1      -0.503  -8.384  31.116  0.00  0.00    -0.000 C 
ATOM     16  C   UNL     1      -1.115  -8.058  29.946  0.00  0.00    -0.000 C 
ATOM     17  C   UNL     1      -2.168  -7.149  30.005  0.00  0.00    -0.005 C 
ENDROOT
TORSDOF 0
