REMARK  Name = =
REMARK  3 active torsions:
REMARK  status: ('A' for Active; 'I' for Inactive)
REMARK    1  A    between atoms: C_1  and  N_18
REMARK    2  A    between atoms: C_4  and  C_19
REMARK    3  A    between atoms: C_19  and  N_20
REMARK                            x       y       z     vdW  Elec       q    Type
REMARK                         _______ _______ _______ _____ _____    ______ ____
ROOT
ATOM      1  C   UNL     1      -3.713  -5.467  32.231  0.00  0.00    +0.043 C 
ATOM      2  C   UNL     1      -4.776  -4.498  32.462  0.00  0.00    +0.013 C 
ATOM      3  C   UNL     1      -5.140  -3.558  31.412  0.00  0.00    +0.003 C 
ATOM      4  C   UNL     1      -5.416  -2.220  31.989  0.00  0.00    +0.016 C 
ATOM      5  C   UNL     1      -5.692  -2.555  33.460  0.00  0.00    +0.001 C 
ATOM      6  C   UNL     1      -4.704  -3.699  33.717  0.00  0.00    +0.001 C 
ATOM      7  C   UNL     1      -4.406  -3.593  30.142  0.00  0.00    +0.000 C 
ATOM      8  C   UNL     1      -3.053  -4.177  30.166  0.00  0.00    +0.006 C 
ATOM      9  C   UNL     1      -2.779  -5.242  31.118  0.00  0.00    +0.035 C 
ATOM     10  C   UNL     1      -2.091  -6.429  30.617  0.00  0.00    -0.025 C 
ATOM     11  C   UNL     1      -2.312  -7.706  31.088  0.00  0.00    -0.026 C 
ATOM     12  C   UNL     1      -3.302  -7.944  32.171  0.00  0.00    +0.027 C 
ATOM     13  C   UNL     1      -4.352  -6.851  32.045  0.00  0.00    +0.019 C 
ATOM     14  C   UNL     1      -1.614  -8.766  30.553  0.00  0.00    -0.005 C 
ATOM     15  C   UNL     1      -0.683  -8.611  29.546  0.00  0.00    -0.000 C 
ATOM     16  C   UNL     1      -0.460  -7.346  29.077  0.00  0.00    -0.000 C 
ATOM     17  C   UNL     1      -1.156  -6.271  29.607  0.00  0.00    -0.005 C 
ENDROOT
BRANCH   1  18
ATOM     18  N   UNL     1      -2.919  -5.587  33.467  0.00  0.00    -0.323 NA
ATOM     19  H   UNL     1      -2.457  -4.699  33.662  0.00  0.00    +0.119 HD
ATOM     20  H   UNL     1      -2.216  -6.317  33.350  0.00  0.00    +0.119 HD
ENDBRANCH   1  18
BRANCH   4  21
ATOM     21  C   UNL     1      -6.686  -1.680  31.332  0.00  0.00    +0.065 C 
BRANCH  21  22
ATOM     22  N   UNL     1      -6.906  -0.354  31.830  0.00  0.00    -0.321 NA
ATOM     23  H   UNL     1      -7.750   0.032  31.407  0.00  0.00    +0.119 HD
ATOM     24  H   UNL     1      -6.107   0.235  31.594  0.00  0.00    +0.119 HD
ENDBRANCH  21  22
ENDBRANCH   4  21
TORSDOF 3
