REMARK  Name = =
REMARK  8 active torsions:
REMARK  status: ('A' for Active; 'I' for Inactive)
REMARK    1  A    between atoms: C_1  and  O_21
REMARK    2  A    between atoms: C_2  and  C_12
REMARK    3  A    between atoms: C_6  and  O_20
REMARK    4  A    between atoms: C_8  and  O_19
REMARK    5  A    between atoms: C_15  and  O_18
REMARK    6  A    between atoms: O_21  and  C_23
REMARK    7  A    between atoms: C_22  and  C_24
REMARK    8  A    between atoms: C_23  and  C_29
REMARK                            x       y       z     vdW  Elec       q    Type
REMARK                         _______ _______ _______ _____ _____    ______ ____
ROOT
ATOM      1  C   UNL     1     -10.348  -1.933  30.896  0.00  0.00    +0.218 A 
ATOM      2  C   UNL     1     -11.535  -1.914  31.564  0.00  0.00    +0.183 A 
ATOM      3  O   UNL     1     -12.560  -1.193  31.096  0.00  0.00    -0.450 OA
ATOM      4  C   UNL     1     -12.528  -0.476  30.010  0.00  0.00    +0.155 A 
ATOM      5  C   UNL     1     -11.371  -0.436  29.265  0.00  0.00    +0.110 A 
ATOM      6  C   UNL     1     -11.286   0.304  28.112  0.00  0.00    +0.143 C 
ATOM      7  C   UNL     1     -12.387   1.022  27.695  0.00  0.00    +0.073 C 
ATOM      8  C   UNL     1     -13.538   0.982  28.438  0.00  0.00    +0.140 C 
ATOM      9  C   UNL     1     -13.644   0.249  29.592  0.00  0.00    +0.074 C 
ATOM     10  C   UNL     1     -10.277  -1.176  29.723  0.00  0.00    +0.239 A 
ATOM     11  O   UNL     1      -9.230  -1.140  29.049  0.00  0.00    -0.283 OA
ENDROOT
BRANCH   2  12
ATOM     12  C   UNL     1     -11.770  -2.651  32.792  0.00  0.00    +0.038 C 
ATOM     13  C   UNL     1     -11.385  -2.223  34.026  0.00  0.00    +0.006 C 
ATOM     14  C   UNL     1     -11.701  -2.989  35.143  0.00  0.00    +0.037 C 
ATOM     15  C   UNL     1     -12.388  -4.163  35.045  0.00  0.00    +0.134 C 
ATOM     16  C   UNL     1     -12.789  -4.621  33.812  0.00  0.00    +0.037 C 
ATOM     17  C   UNL     1     -12.474  -3.859  32.718  0.00  0.00    +0.006 C 
BRANCH  15  18
ATOM     18  O   UNL     1     -12.699  -4.924  36.174  0.00  0.00    -0.506 OA
ATOM     19  H   UNL     1     -12.435  -4.631  37.024  0.00  0.00    +0.292 HD
ENDBRANCH  15  18
ENDBRANCH   2  12
BRANCH   8  20
ATOM     20  O   UNL     1     -14.681   1.703  28.043  0.00  0.00    -0.505 OA
ATOM     21  H   UNL     1     -14.662   2.220  27.262  0.00  0.00    +0.292 HD
ENDBRANCH   8  20
BRANCH   6  22
ATOM     22  O   UNL     1     -10.082   0.298  27.405  0.00  0.00    -0.505 OA
ATOM     23  H   UNL     1      -9.356  -0.203  27.721  0.00  0.00    +0.292 HD
ENDBRANCH   6  22
BRANCH   1  24
ATOM     24  O   UNL     1      -9.236  -2.605  31.265  0.00  0.00    -0.444 OA
BRANCH  24  26
ATOM     25  C   UNL     1      -6.963  -2.577  31.912  0.00  0.00    +0.075 C 
ATOM     26  C   UNL     1      -8.140  -2.033  31.914  0.00  0.00    +0.188 C 
BRANCH  25  27
ATOM     27  C   UNL     1      -5.832  -1.939  32.608  0.00  0.00    +0.263 C 
ATOM     28  O   UNL     1      -5.460  -2.619  33.753  0.00  0.00    -0.324 OA
ATOM     29  C   UNL     1      -4.471  -3.516  33.428  0.00  0.00    +0.177 C 
ATOM     30  C   UNL     1      -4.227  -3.320  31.972  0.00  0.00    +0.177 C 
ATOM     31  O   UNL     1      -4.732  -2.038  31.739  0.00  0.00    -0.324 OA
ENDBRANCH  25  27
BRANCH  26  32
ATOM     32  C   UNL     1      -8.351  -0.784  32.609  0.00  0.00    +0.271 C 
ATOM     33  O   UNL     1      -8.275   0.296  31.944  0.00  0.00    -0.280 OA
ENDBRANCH  26  32
ENDBRANCH  24  26
ENDBRANCH   1  24
TORSDOF 8
