REMARK  Name = =
REMARK  3 active torsions:
REMARK  status: ('A' for Active; 'I' for Inactive)
REMARK    1  A    between atoms: C_1  and  N_24
REMARK    2  A    between atoms: C_4  and  C_25
REMARK    3  A    between atoms: C_25  and  N_26
REMARK                            x       y       z     vdW  Elec       q    Type
REMARK                         _______ _______ _______ _____ _____    ______ ____
ROOT
ATOM      1  C   UNL     1      -4.033  -4.912  31.002  0.00  0.00    +0.039 C 
ATOM      2  C   UNL     1      -4.876  -3.739  30.981  0.00  0.00    +0.013 C 
ATOM      3  C   UNL     1      -5.602  -3.689  32.331  0.00  0.00    +0.003 C 
ATOM      4  C   UNL     1      -6.206  -2.301  32.260  0.00  0.00    +0.016 C 
ATOM      5  C   UNL     1      -5.281  -1.479  31.380  0.00  0.00    +0.001 C 
ATOM      6  C   UNL     1      -4.130  -2.407  31.041  0.00  0.00    +0.001 C 
ATOM      7  C   UNL     1      -4.782  -3.916  33.517  0.00  0.00    +0.000 C 
ATOM      8  C   UNL     1      -3.503  -4.686  33.388  0.00  0.00    +0.001 C 
ATOM      9  C   UNL     1      -2.889  -4.509  32.084  0.00  0.00    +0.013 C 
ATOM     10  C   UNL     1      -1.971  -5.479  31.529  0.00  0.00    +0.002 C 
ATOM     11  C   UNL     1      -2.104  -6.764  31.419  0.00  0.00    +0.004 C 
ATOM     12  C   UNL     1      -2.169  -6.312  29.956  0.00  0.00    +0.002 C 
ATOM     13  C   UNL     1      -0.840  -5.588  30.637  0.00  0.00    +0.000 C 
ATOM     14  C   UNL     1      -0.507  -4.424  29.721  0.00  0.00    +0.000 C 
ATOM     15  C   UNL     1       0.704  -3.668  30.198  0.00  0.00    +0.000 C 
ATOM     16  C   UNL     1       1.830  -4.581  30.632  0.00  0.00    +0.000 C 
ATOM     17  C   UNL     1       1.532  -5.911  30.012  0.00  0.00    +0.000 C 
ATOM     18  C   UNL     1       0.276  -6.452  30.759  0.00  0.00    +0.004 C 
ATOM     19  C   UNL     1      -3.262  -5.335  29.814  0.00  0.00    +0.014 C 
ATOM     20  C   UNL     1      -2.090  -8.062  32.086  0.00  0.00    +0.026 C 
ATOM     21  C   UNL     1      -1.058  -8.557  32.861  0.00  0.00    -0.031 C 
ATOM     22  C   UNL     1       0.326  -8.001  32.796  0.00  0.00    -0.031 C 
ATOM     23  C   UNL     1       0.820  -6.990  32.029  0.00  0.00    +0.026 C 
ENDROOT
BRANCH   1  24
ATOM     24  N   UNL     1      -4.735  -6.057  31.531  0.00  0.00    -0.323 NA
ATOM     25  H   UNL     1      -5.271  -5.777  32.352  0.00  0.00    +0.119 HD
ATOM     26  H   UNL     1      -4.062  -6.777  31.794  0.00  0.00    +0.119 HD
ENDBRANCH   1  24
BRANCH   4  27
ATOM     27  C   UNL     1      -7.539  -2.450  31.511  0.00  0.00    +0.065 C 
BRANCH  27  28
ATOM     28  N   UNL     1      -8.105  -1.147  31.242  0.00  0.00    -0.321 NA
ATOM     29  H   UNL     1      -8.989  -1.256  30.745  0.00  0.00    +0.119 HD
ATOM     30  H   UNL     1      -7.457  -0.607  30.669  0.00  0.00    +0.119 HD
ENDBRANCH  27  28
ENDBRANCH   4  27
TORSDOF 3
