REMARK  Name = =
REMARK  5 active torsions:
REMARK  status: ('A' for Active; 'I' for Inactive)
REMARK    1  A    between atoms: C_1  and  N_24
REMARK    2  A    between atoms: C_4  and  C_30
REMARK    3  A    between atoms: N_24  and  N_25
REMARK    4  A    between atoms: C_26  and  C_28
REMARK    5  A    between atoms: C_30  and  N_31
REMARK                            x       y       z     vdW  Elec       q    Type
REMARK                         _______ _______ _______ _____ _____    ______ ____
ROOT
ATOM      1  C   UNL     1      -2.045  -3.556  30.456  0.00  0.00    +0.058 C 
ATOM      2  C   UNL     1      -3.061  -3.216  31.406  0.00  0.00    +0.015 C 
ATOM      3  C   UNL     1      -4.281  -3.979  31.573  0.00  0.00    +0.003 C 
ATOM      4  C   UNL     1      -5.150  -3.291  32.554  0.00  0.00    +0.016 C 
ATOM      5  C   UNL     1      -4.613  -1.876  32.665  0.00  0.00    +0.001 C 
ATOM      6  C   UNL     1      -3.281  -1.862  31.915  0.00  0.00    +0.001 C 
ATOM      7  C   UNL     1      -4.921  -4.529  30.353  0.00  0.00    +0.000 C 
ATOM      8  C   UNL     1      -4.037  -4.460  29.137  0.00  0.00    +0.001 C 
ATOM      9  C   UNL     1      -2.611  -4.521  29.321  0.00  0.00    +0.015 C 
ATOM     10  C   UNL     1      -1.978  -5.714  29.856  0.00  0.00    +0.002 C 
ATOM     11  C   UNL     1      -2.204  -6.328  30.965  0.00  0.00    +0.004 C 
ATOM     12  C   UNL     1      -0.800  -5.771  31.182  0.00  0.00    +0.002 C 
ATOM     13  C   UNL     1      -0.767  -6.502  29.708  0.00  0.00    +0.000 C 
ATOM     14  C   UNL     1       0.367  -5.895  28.907  0.00  0.00    +0.000 C 
ATOM     15  C   UNL     1       0.162  -6.376  27.458  0.00  0.00    +0.000 C 
ATOM     16  C   UNL     1       0.232  -7.877  27.385  0.00  0.00    +0.000 C 
ATOM     17  C   UNL     1       0.476  -8.405  28.763  0.00  0.00    +0.000 C 
ATOM     18  C   UNL     1      -0.648  -7.913  29.727  0.00  0.00    +0.004 C 
ATOM     19  C   UNL     1      -0.866  -4.316  31.045  0.00  0.00    +0.016 C 
ATOM     20  C   UNL     1      -3.055  -7.206  31.759  0.00  0.00    +0.026 C 
ATOM     21  C   UNL     1      -3.454  -8.484  31.386  0.00  0.00    -0.031 C 
ATOM     22  C   UNL     1      -2.781  -9.232  30.288  0.00  0.00    -0.031 C 
ATOM     23  C   UNL     1      -1.750  -8.880  29.481  0.00  0.00    +0.026 C 
ENDROOT
BRANCH   1  24
ATOM     24  N   UNL     1      -1.485  -2.414  29.824  0.00  0.00    -0.232 NA
ATOM     25  H   UNL     1      -0.476  -2.475  29.958  0.00  0.00    +0.145 HD
BRANCH  24  26
ATOM     26  N   UNL     1      -1.683  -2.174  28.506  0.00  0.00    -0.246 N 
ATOM     27  C   UNL     1      -0.585  -2.047  27.574  0.00  0.00    +0.259 C 
ATOM     28  O   UNL     1       0.576  -2.175  28.100  0.00  0.00    -0.269 OA
ATOM     29  H   UNL     1      -2.604  -2.083  28.172  0.00  0.00    +0.169 HD
BRANCH  27  30
ATOM     30  C   UNL     1      -0.672  -1.802  26.171  0.00  0.00    +0.059 C 
ATOM     31  C   UNL     1      -1.791  -1.805  25.522  0.00  0.00    +0.005 C 
ENDBRANCH  27  30
ENDBRANCH  24  26
ENDBRANCH   1  24
BRANCH   4  32
ATOM     32  C   UNL     1      -6.618  -3.338  32.254  0.00  0.00    +0.065 C 
BRANCH  32  33
ATOM     33  N   UNL     1      -7.333  -2.541  33.260  0.00  0.00    -0.321 NA
ATOM     34  H   UNL     1      -8.334  -2.566  33.065  0.00  0.00    +0.119 HD
ATOM     35  H   UNL     1      -7.004  -1.576  33.226  0.00  0.00    +0.119 HD
ENDBRANCH  32  33
ENDBRANCH   4  32
TORSDOF 5
