REMARK  Name = =
REMARK  5 active torsions:
REMARK  status: ('A' for Active; 'I' for Inactive)
REMARK    1  A    between atoms: C_1  and  N_24
REMARK    2  A    between atoms: C_4  and  C_31
REMARK    3  A    between atoms: N_24  and  N_26
REMARK    4  A    between atoms: C_27  and  C_29
REMARK    5  A    between atoms: C_31  and  N_32
REMARK                            x       y       z     vdW  Elec       q    Type
REMARK                         _______ _______ _______ _____ _____    ______ ____
ROOT
ATOM      1  C   UNL     1      -1.138  -5.291  29.588  0.00  0.00    +0.059 C 
ATOM      2  C   UNL     1      -0.773  -6.612  30.063  0.00  0.00    +0.015 C 
ATOM      3  C   UNL     1      -0.247  -7.669  29.263  0.00  0.00    +0.003 C 
ATOM      4  C   UNL     1      -0.405  -8.897  30.057  0.00  0.00    +0.016 C 
ATOM      5  C   UNL     1      -1.232  -8.534  31.300  0.00  0.00    +0.001 C 
ATOM      6  C   UNL     1      -1.074  -7.010  31.443  0.00  0.00    +0.001 C 
ATOM      7  C   UNL     1      -0.591  -7.726  27.817  0.00  0.00    +0.000 C 
ATOM      8  C   UNL     1      -0.939  -6.357  27.252  0.00  0.00    +0.001 C 
ATOM      9  C   UNL     1      -0.869  -5.225  28.067  0.00  0.00    +0.015 C 
ATOM     10  C   UNL     1       0.216  -4.254  28.097  0.00  0.00    +0.002 C 
ATOM     11  C   UNL     1       0.084  -2.977  28.166  0.00  0.00    +0.004 C 
ATOM     12  C   UNL     1       0.682  -3.360  29.527  0.00  0.00    +0.002 C 
ATOM     13  C   UNL     1       1.649  -4.138  28.420  0.00  0.00    +0.000 C 
ATOM     14  C   UNL     1       2.290  -5.288  29.139  0.00  0.00    +0.000 C 
ATOM     15  C   UNL     1       3.743  -5.177  29.405  0.00  0.00    +0.000 C 
ATOM     16  C   UNL     1       4.363  -4.918  28.024  0.00  0.00    +0.000 C 
ATOM     17  C   UNL     1       4.005  -3.464  27.834  0.00  0.00    +0.000 C 
ATOM     18  C   UNL     1       2.513  -3.221  27.716  0.00  0.00    +0.004 C 
ATOM     19  C   UNL     1      -0.224  -4.268  30.216  0.00  0.00    +0.016 C 
ATOM     20  C   UNL     1      -0.248  -1.700  27.528  0.00  0.00    +0.026 C 
ATOM     21  C   UNL     1       0.303  -1.272  26.330  0.00  0.00    -0.031 C 
ATOM     22  C   UNL     1       1.524  -1.897  25.734  0.00  0.00    -0.031 C 
ATOM     23  C   UNL     1       2.320  -2.858  26.278  0.00  0.00    +0.026 C 
ENDROOT
BRANCH   1  24
ATOM     24  N   UNL     1      -2.527  -5.108  29.756  0.00  0.00    -0.220 NA
ATOM     25  H   UNL     1      -2.852  -5.934  30.258  0.00  0.00    +0.146 HD
BRANCH  24  27
ATOM     26  I   UNL     1      -2.982  -2.166  29.574  0.00  0.00    +0.065 I 
ATOM     27  N   UNL     1      -3.087  -4.074  30.374  0.00  0.00    -0.170 N 
ATOM     28  C   UNL     1      -3.797  -4.207  31.590  0.00  0.00    +0.270 C 
ATOM     29  O   UNL     1      -3.864  -5.415  32.067  0.00  0.00    -0.268 OA
BRANCH  28  30
ATOM     30  C   UNL     1      -4.438  -3.187  32.349  0.00  0.00    +0.060 C 
ATOM     31  C   UNL     1      -5.411  -3.532  33.200  0.00  0.00    +0.005 C 
ENDBRANCH  28  30
ENDBRANCH  24  27
ENDBRANCH   1  24
BRANCH   4  32
ATOM     32  C   UNL     1      -1.066 -10.066  29.420  0.00  0.00    +0.065 C 
BRANCH  32  33
ATOM     33  N   UNL     1      -0.431 -10.591  28.257  0.00  0.00    -0.321 NA
ATOM     34  H   UNL     1      -0.967 -11.385  27.906  0.00  0.00    +0.119 HD
ATOM     35  H   UNL     1       0.513 -10.896  28.493  0.00  0.00    +0.119 HD
ENDBRANCH  32  33
ENDBRANCH   4  32
TORSDOF 5
