MODEL 1
REMARK VINA RESULT:    -7.837      0.000      0.000
REMARK INTER + INTRA:         -10.683
REMARK INTER:                  -9.669
REMARK INTRA:                  -1.014
REMARK UNBOUND:                -1.014
REMARK  Name = =
REMARK  4 active torsions:
REMARK  status: ('A' for Active; 'I' for Inactive)
REMARK    1  A    between atoms: C_1  and  O_19
REMARK    2  A    between atoms: C_7  and  C_8
REMARK    3  A    between atoms: C_13  and  C_14
REMARK    4  A    between atoms: O_19  and  C_26
REMARK                            x       y       z     vdW  Elec       q    Type
REMARK                         _______ _______ _______ _____ _____    ______ ____
ROOT
ATOM      1  C   UNL     1      52.549 157.107  28.835  0.00  0.00    +0.174 C 
ATOM      2  C   UNL     1      52.774 155.644  29.324  0.00  0.00    +0.044 C 
ATOM      3  C   UNL     1      51.942 154.734  28.503  0.00  0.00    +0.004 C 
ATOM      4  C   UNL     1      50.548 154.492  29.022  0.00  0.00    +0.000 C 
ATOM      5  C   UNL     1      49.772 155.778  29.176  0.00  0.00    +0.000 C 
ATOM      6  C   UNL     1      50.443 156.709  30.170  0.00  0.00    +0.008 C 
ATOM      7  C   UNL     1      51.364 157.694  29.443  0.00  0.00    +0.062 C 
ENDROOT
BRANCH   7   8
ATOM      8  C   UNL     1      51.459 159.000  30.176  0.00  0.00    -0.023 C 
ATOM      9  C   UNL     1      52.591 159.650  29.933  0.00  0.00    -0.004 C 
ATOM     10  C   UNL     1      52.887 160.913  30.548  0.00  0.00    -0.000 C 
ATOM     11  C   UNL     1      52.055 161.456  31.380  0.00  0.00    -0.000 C 
ATOM     12  C   UNL     1      50.800 160.829  31.739  0.00  0.00    -0.005 C 
ATOM     13  C   UNL     1      50.448 159.527  31.101  0.00  0.00    -0.026 C 
BRANCH  13  14
ATOM     14  C   UNL     1      49.025 159.587  30.561  0.00  0.00    +0.022 C 
ATOM     15  C   UNL     1      48.544 160.949  30.214  0.00  0.00    +0.004 C 
ATOM     16  C   UNL     1      47.316 161.228  31.092  0.00  0.00    +0.000 C 
ATOM     17  C   UNL     1      46.785 159.878  31.458  0.00  0.00    +0.000 C 
ATOM     18  C   UNL     1      48.033 159.030  31.545  0.00  0.00    +0.004 C 
ENDBRANCH  13  14
ENDBRANCH   7   8
BRANCH   1  19
ATOM     19  O   UNL     1      52.406 156.907  27.421  0.00  0.00    -0.438 OA
BRANCH  19  26
ATOM     20  C   UNL     1      53.922 153.578  23.962  0.00  0.00    +0.004 C 
ATOM     21  C   UNL     1      53.011 153.575  25.174  0.00  0.00    +0.022 C 
ATOM     22  C   UNL     1      52.427 154.957  25.300  0.00  0.00    +0.097 C 
ATOM     23  N   UNL     1      53.518 155.877  25.477  0.00  0.00    -0.246 N 
ATOM     24  C   UNL     1      54.673 155.884  24.623  0.00  0.00    +0.097 C 
ATOM     25  C   UNL     1      55.084 154.491  24.204  0.00  0.00    +0.022 C 
ATOM     26  C   UNL     1      53.469 156.840  26.550  0.00  0.00    +0.405 C 
ATOM     27  O   UNL     1      54.413 157.660  26.719  0.00  0.00    -0.226 OA
ENDBRANCH  19  26
ENDBRANCH   1  19
TORSDOF 4
ENDMDL
