REMARK  Name = =
REMARK  4 active torsions:
REMARK  status: ('A' for Active; 'I' for Inactive)
REMARK    1  A    between atoms: C_1  and  C_11
REMARK    2  A    between atoms: C_5  and  C_27
REMARK    3  A    between atoms: C_8  and  C_22
REMARK    4  A    between atoms: N_24  and  C_25
REMARK                            x       y       z     vdW  Elec       q    Type
REMARK                         _______ _______ _______ _____ _____    ______ ____
ROOT
ATOM      1  C   UNL     1      -0.031  -3.290  28.588  0.00  0.00    +0.077 A 
ATOM      2  C   UNL     1       0.679  -2.751  27.549  0.00  0.00    +0.032 A 
ATOM      3  C   UNL     1       0.328  -1.482  27.035  0.00  0.00    +0.084 A 
ATOM      4  N   UNL     1      -0.700  -0.858  27.600  0.00  0.00    -0.224 NA
ATOM      5  C   UNL     1      -1.415  -1.358  28.617  0.00  0.00    +0.205 A 
ATOM      6  N   UNL     1      -1.062  -2.564  29.087  0.00  0.00    -0.227 NA
ATOM      7  C   UNL     1       1.025  -0.922  25.987  0.00  0.00    +0.024 C 
ATOM      8  C   UNL     1       2.075  -1.618  25.440  0.00  0.00    +0.056 C 
ATOM      9  C   UNL     1       2.414  -2.846  25.937  0.00  0.00    +0.005 C 
ATOM     10  C   UNL     1       1.723  -3.409  26.982  0.00  0.00    +0.003 C 
ENDROOT
BRANCH   1  11
ATOM     11  C   UNL     1       0.299  -4.589  29.164  0.00  0.00    +0.163 C 
ATOM     12  C   UNL     1      -0.264  -5.619  28.195  0.00  0.00    +0.186 C 
ATOM     13  O   UNL     1      -1.365  -5.446  27.620  0.00  0.00    -0.290 OA
ATOM     14  C   UNL     1       0.643  -6.736  28.080  0.00  0.00    +0.038 C 
ATOM     15  C   UNL     1       1.857  -6.310  28.600  0.00  0.00    +0.038 C 
ATOM     16  C   UNL     1       2.886  -7.244  28.587  0.00  0.00    +0.003 C 
ATOM     17  C   UNL     1       2.722  -8.519  28.088  0.00  0.00    +0.000 C 
ATOM     18  C   UNL     1       1.500  -8.883  27.585  0.00  0.00    +0.000 C 
ATOM     19  C   UNL     1       0.448  -7.988  27.578  0.00  0.00    +0.003 C 
ATOM     20  C   UNL     1       1.741  -4.928  29.052  0.00  0.00    +0.186 C 
ATOM     21  O   UNL     1       2.721  -4.180  29.297  0.00  0.00    -0.290 OA
ENDBRANCH   1  11
BRANCH   8  22
ATOM     22  C   UNL     1       2.804  -1.033  24.329  0.00  0.00    +0.258 C 
ATOM     23  O   UNL     1       3.051   0.216  24.317  0.00  0.00    -0.269 OA
ATOM     24  N   UNL     1       3.262  -1.793  23.244  0.00  0.00    -0.219 N 
ATOM     25  H   UNL     1       3.095  -2.763  23.218  0.00  0.00    +0.167 HD
BRANCH  24  26
ATOM     26  C   UNL     1       3.966  -1.165  22.183  0.00  0.00    +0.173 C 
ATOM     27  N   UNL     1       4.524  -0.645  21.317  0.00  0.00    -0.174 NA
ENDBRANCH  24  26
ENDBRANCH   8  22
BRANCH   5  28
ATOM     28  C   UNL     1      -2.543  -0.614  29.200  0.00  0.00    +0.273 C 
ATOM     29  O   UNL     1      -3.353  -1.153  29.953  0.00  0.00    -0.280 OA
ENDBRANCH   5  28
TORSDOF 4
