REMARK  Name = =
REMARK  6 active torsions:
REMARK  status: ('A' for Active; 'I' for Inactive)
REMARK    1  A    between atoms: C_1  and  C_12
REMARK    2  A    between atoms: C_8  and  N_29
REMARK    3  A    between atoms: C_16  and  C_27
REMARK    4  A    between atoms: C_19  and  C_22
REMARK    5  A    between atoms: N_24  and  C_25
REMARK    6  A    between atoms: N_29  and  C_30
REMARK                            x       y       z     vdW  Elec       q    Type
REMARK                         _______ _______ _______ _____ _____    ______ ____
ROOT
ATOM      1  C   UNL     1       2.038  -2.779  27.436  0.00  0.00    +0.163 C 
ATOM      2  C   UNL     1       1.293  -1.483  27.336  0.00  0.00    +0.186 C 
ATOM      3  O   UNL     1       1.675  -0.391  26.908  0.00  0.00    -0.290 OA
ATOM      4  C   UNL     1      -0.027  -1.788  27.868  0.00  0.00    +0.040 C 
ATOM      5  C   UNL     1      -0.267  -3.161  27.716  0.00  0.00    +0.038 C 
ATOM      6  C   UNL     1      -1.466  -3.685  28.158  0.00  0.00    +0.004 C 
ATOM      7  C   UNL     1      -2.417  -2.882  28.739  0.00  0.00    +0.015 C 
ATOM      8  C   UNL     1      -2.228  -1.538  28.910  0.00  0.00    +0.048 C 
ATOM      9  C   UNL     1      -1.007  -1.017  28.458  0.00  0.00    +0.018 C 
ATOM     10  C   UNL     1       0.918  -3.714  27.081  0.00  0.00    +0.186 C 
ATOM     11  O   UNL     1       0.960  -4.753  26.391  0.00  0.00    -0.290 OA
ENDROOT
BRANCH   1  12
ATOM     12  C   UNL     1       3.069  -2.931  26.418  0.00  0.00    +0.077 A 
ATOM     13  C   UNL     1       4.097  -3.836  26.516  0.00  0.00    +0.032 A 
ATOM     14  C   UNL     1       5.074  -3.964  25.539  0.00  0.00    +0.084 A 
ATOM     15  N   UNL     1       4.992  -3.160  24.461  0.00  0.00    -0.224 NA
ATOM     16  C   UNL     1       3.993  -2.262  24.336  0.00  0.00    +0.205 A 
ATOM     17  N   UNL     1       3.056  -2.152  25.292  0.00  0.00    -0.227 NA
ATOM     18  C   UNL     1       6.109  -4.873  25.621  0.00  0.00    +0.024 C 
ATOM     19  C   UNL     1       6.223  -5.718  26.704  0.00  0.00    +0.056 C 
ATOM     20  C   UNL     1       5.262  -5.601  27.677  0.00  0.00    +0.005 C 
ATOM     21  C   UNL     1       4.235  -4.693  27.590  0.00  0.00    +0.003 C 
BRANCH  19  22
ATOM     22  C   UNL     1       7.300  -6.693  26.810  0.00  0.00    +0.258 C 
ATOM     23  O   UNL     1       7.415  -7.406  27.859  0.00  0.00    -0.269 OA
ATOM     24  N   UNL     1       8.264  -6.921  25.802  0.00  0.00    -0.219 N 
ATOM     25  H   UNL     1       8.230  -6.399  24.968  0.00  0.00    +0.167 HD
BRANCH  24  26
ATOM     26  C   UNL     1       9.278  -7.893  25.980  0.00  0.00    +0.173 C 
ATOM     27  N   UNL     1      10.128  -8.706  26.110  0.00  0.00    -0.174 NA
ENDBRANCH  24  26
ENDBRANCH  19  22
BRANCH  16  28
ATOM     28  C   UNL     1       3.971  -1.441  23.143  0.00  0.00    +0.273 C 
ATOM     29  O   UNL     1       4.777  -1.636  22.203  0.00  0.00    -0.280 OA
ENDBRANCH  16  28
ENDBRANCH   1  12
BRANCH   8  30
ATOM     30  N   UNL     1      -3.108  -0.645  29.524  0.00  0.00    -0.313 N 
ATOM     31  H   UNL     1      -3.018   0.299  29.259  0.00  0.00    +0.152 HD
BRANCH  30  32
ATOM     32  C   UNL     1      -4.109  -0.927  30.476  0.00  0.00    +0.048 C 
ATOM     33  C   UNL     1      -4.874   0.043  31.080  0.00  0.00    +0.015 C 
ATOM     34  C   UNL     1      -5.835  -0.208  32.040  0.00  0.00    +0.001 C 
ATOM     35  C   UNL     1      -6.035  -1.547  32.412  0.00  0.00    +0.000 C 
ATOM     36  C   UNL     1      -5.302  -2.526  31.839  0.00  0.00    +0.001 C 
ATOM     37  C   UNL     1      -4.338  -2.226  30.872  0.00  0.00    +0.015 C 
ENDBRANCH  30  32
ENDBRANCH   8  30
TORSDOF 6
