MODEL 1
REMARK VINA RESULT:    -5.474      0.000      0.000
REMARK INTER + INTRA:          -3.444
REMARK INTER:                  -7.554
REMARK INTRA:                   4.110
REMARK UNBOUND:                 4.110
REMARK  Name = =
REMARK  8 active torsions:
REMARK  status: ('A' for Active; 'I' for Inactive)
REMARK    1  A    between atoms: C_1  and  N_9
REMARK    2  A    between atoms: C_1  and  N_17
REMARK    3  A    between atoms: C_4  and  C_35
REMARK    4  A    between atoms: C_5  and  S_34
REMARK    5  A    between atoms: N_17  and  C_23
REMARK    6  A    between atoms: C_23  and  S_30
REMARK    7  A    between atoms: S_30  and  N_33
REMARK    8  A    between atoms: C_35  and  O_37
REMARK                            x       y       z     vdW  Elec       q    Type
REMARK                         _______ _______ _______ _____ _____    ______ ____
ROOT
ATOM      1  C   UNL     1      60.158 162.426  39.746  0.00  0.00    +0.199 C 
ATOM      2  C   UNL     1      61.236 161.635  39.347  0.00  0.00    +0.124 C 
ATOM      3  N   UNL     1      62.122 162.779  39.770  0.00  0.00    -0.249 N 
ATOM      4  C   UNL     1      63.323 162.486  39.096  0.00  0.00    +0.132 C 
ATOM      5  C   UNL     1      63.445 161.176  38.922  0.00  0.00    +0.021 C 
ATOM      6  C   UNL     1      62.174 160.625  39.570  0.00  0.00    +0.058 C 
ATOM      7  C   UNL     1      61.063 163.294  40.544  0.00  0.00    +0.262 C 
ATOM      8  O   UNL     1      61.054 164.140  41.493  0.00  0.00    -0.271 OA
ENDROOT
BRANCH   1   9
ATOM      9  N   UNL     1      59.728 163.235  38.545  0.00  0.00    -0.249 NA
ATOM     10  C   UNL     1      60.641 164.269  38.199  0.00  0.00    +0.095 C 
ATOM     11  C   UNL     1      59.857 165.195  37.227  0.00  0.00    +0.111 C 
ATOM     12  N   UNL     1      59.760 164.417  36.016  0.00  0.00    -0.270 N 
ATOM     13  C   UNL     1      60.030 163.005  36.108  0.00  0.00    +0.111 C 
ATOM     14  C   UNL     1      59.478 162.437  37.403  0.00  0.00    +0.095 C 
ATOM     15  C   UNL     1      59.413 165.024  34.809  0.00  0.00    +0.303 C 
ATOM     16  O   UNL     1      59.177 166.253  34.759  0.00  0.00    -0.265 OA
ENDBRANCH   1   9
BRANCH   1  17
ATOM     17  N   UNL     1      58.959 162.085  40.408  0.00  0.00    -0.224 N 
ATOM     18  C   UNL     1      58.075 163.188  40.736  0.00  0.00    +0.313 C 
ATOM     19  O   UNL     1      56.946 162.967  41.301  0.00  0.00    -0.252 OA
ATOM     20  N   UNL     1      58.347 164.535  40.482  0.00  0.00    -0.232 N 
ATOM     21  C   UNL     1      57.406 165.569  40.842  0.00  0.00    +0.307 C 
ATOM     22  O   UNL     1      56.322 165.279  41.386  0.00  0.00    -0.265 OA
ATOM     23  H   UNL     1      59.195 164.783  40.050  0.00  0.00    +0.160 HD
BRANCH  17  24
ATOM     24  C   UNL     1      58.365 160.853  40.865  0.00  0.00    +0.240 C 
ATOM     25  C   UNL     1      58.480 159.921  39.652  0.00  0.00    +0.050 C 
ATOM     26  C   UNL     1      59.065 158.609  39.769  0.00  0.00    +0.004 C 
ATOM     27  C   UNL     1      59.139 157.945  41.091  0.00  0.00    +0.008 C 
ATOM     28  C   UNL     1      59.545 158.882  42.164  0.00  0.00    +0.068 C 
ATOM     29  C   UNL     1      59.245 160.302  41.934  0.00  0.00    +0.189 C 
ATOM     30  O   UNL     1      59.765 161.097  42.690  0.00  0.00    -0.293 OA
BRANCH  24  31
ATOM     31  S   UNL     1      56.765 160.823  41.471  0.00  0.00    +0.057 S 
ATOM     32  O   UNL     1      55.656 161.320  40.683  0.00  0.00    -0.156 OA
ATOM     33  O   UNL     1      56.448 159.382  41.907  0.00  0.00    -0.156 OA
BRANCH  31  34
ATOM     34  N   UNL     1      56.656 161.652  43.035  0.00  0.00    -0.206 NA
ATOM     35  H   UNL     1      57.569 162.036  43.280  0.00  0.00    +0.144 HD
ATOM     36  H   UNL     1      56.363 160.988  43.751  0.00  0.00    +0.144 HD
ENDBRANCH  31  34
ENDBRANCH  24  31
ENDBRANCH  17  24
ENDBRANCH   1  17
BRANCH   5  37
ATOM     37  S   UNL     1      64.765 160.302  38.131  0.00  0.00    -0.144 S 
ATOM     38  H   UNL     1      65.120 160.953  36.992  0.00  0.00    +0.107 HD
ENDBRANCH   5  37
BRANCH   4  39
ATOM     39  C   UNL     1      64.294 163.514  38.661  0.00  0.00    +0.352 C 
ATOM     40  O   UNL     1      64.042 164.285  37.705  0.00  0.00    -0.244 OA
BRANCH  39  41
ATOM     41  O   UNL     1      65.515 163.661  39.294  0.00  0.00    -0.476 OA
ATOM     42  H   UNL     1      66.255 163.981  38.815  0.00  0.00    +0.295 HD
ENDBRANCH  39  41
ENDBRANCH   4  39
TORSDOF 8
ENDMDL
