REMARK  Name = =
REMARK  3 active torsions:
REMARK  status: ('A' for Active; 'I' for Inactive)
REMARK    1  A    between atoms: C_1  and  O_8
REMARK    2  A    between atoms: N_3  and  S_4
REMARK    3  A    between atoms: S_4  and  O_7
REMARK                            x       y       z     vdW  Elec       q    Type
REMARK                         _______ _______ _______ _____ _____    ______ ____
ROOT
ATOM      1  C   UNL     1      52.576 157.072  28.727  0.00  0.00    +0.417 C 
ATOM      2  O   UNL     1      52.864 157.239  27.515  0.00  0.00    -0.225 OA
ATOM      3  N   UNL     1      52.394 155.766  29.255  0.00  0.00    -0.151 N 
ATOM      4  H   UNL     1      52.166 155.621  30.202  0.00  0.00    +0.180 HD
ENDROOT
BRANCH   3   5
ATOM      5  S   UNL     1      52.590 154.443  28.162  0.00  0.00    +0.064 S 
ATOM      6  O   UNL     1      53.057 155.038  26.859  0.00  0.00    -0.053 OA
ATOM      7  O   UNL     1      51.261 153.828  27.977  0.00  0.00    -0.053 OA
BRANCH   5   8
ATOM      8  O   UNL     1      53.763 153.367  28.678  0.00  0.00    -0.256 OA
ATOM      9  H   UNL     1      54.608 153.833  28.779  0.00  0.00    +0.244 HD
ENDBRANCH   5   8
ENDBRANCH   3   5
BRANCH   1  10
ATOM     10  O   UNL     1      52.444 158.215  29.518  0.00  0.00    -0.465 OA
ATOM     11  H   UNL     1      52.230 158.134  30.427  0.00  0.00    +0.297 HD
ENDBRANCH   1  10
TORSDOF 3
