REMARK  Name = =
REMARK  4 active torsions:
REMARK  status: ('A' for Active; 'I' for Inactive)
REMARK    1  A    between atoms: C_1  and  O_8
REMARK    2  A    between atoms: N_3  and  S_4
REMARK    3  A    between atoms: S_4  and  O_7
REMARK    4  A    between atoms: O_8  and  N_9
REMARK                            x       y       z     vdW  Elec       q    Type
REMARK                         _______ _______ _______ _____ _____    ______ ____
ROOT
ATOM      1  C   UNL     1      51.980 156.697  29.174  0.00  0.00    +0.439 C 
ATOM      2  O   UNL     1      51.808 157.224  28.056  0.00  0.00    -0.223 OA
ATOM      3  N   UNL     1      52.378 155.339  29.223  0.00  0.00    -0.150 N 
ATOM      4  H   UNL     1      52.515 154.930  30.108  0.00  0.00    +0.180 HD
ENDROOT
BRANCH   3   5
ATOM      5  S   UNL     1      52.634 154.372  27.853  0.00  0.00    +0.064 S 
ATOM      6  O   UNL     1      51.322 153.903  27.265  0.00  0.00    -0.053 OA
ATOM      7  O   UNL     1      53.364 153.111  28.278  0.00  0.00    -0.053 OA
BRANCH   5   8
ATOM      8  O   UNL     1      53.554 155.131  26.669  0.00  0.00    -0.256 OA
ATOM      9  H   UNL     1      54.393 155.429  27.053  0.00  0.00    +0.244 HD
ENDBRANCH   5   8
ENDBRANCH   3   5
BRANCH   1  10
ATOM     10  O   UNL     1      51.769 157.481  30.286  0.00  0.00    -0.349 OA
BRANCH  10  11
ATOM     11  N   UNL     1      51.046 158.595  30.299  0.00  0.00    -0.116 NA
ATOM     12  C   UNL     1      49.646 158.498  30.182  0.00  0.00    +0.114 C 
ATOM     13  C   UNL     1      49.010 159.849  29.979  0.00  0.00    +0.021 C 
ATOM     14  C   UNL     1      49.601 160.832  30.942  0.00  0.00    +0.003 C 
ATOM     15  C   UNL     1      51.081 160.965  30.728  0.00  0.00    +0.021 C 
ATOM     16  C   UNL     1      51.656 159.805  29.906  0.00  0.00    +0.114 C 
ENDBRANCH  10  11
ENDBRANCH   1  10
TORSDOF 4
