REMARK  Name = =
REMARK  5 active torsions:
REMARK  status: ('A' for Active; 'I' for Inactive)
REMARK    1  A    between atoms: N_1  and  O_21
REMARK    2  A    between atoms: C_2  and  C_7
REMARK    3  A    between atoms: O_21  and  C_22
REMARK    4  A    between atoms: N_24  and  S_25
REMARK    5  A    between atoms: S_25  and  O_28
REMARK                            x       y       z     vdW  Elec       q    Type
REMARK                         _______ _______ _______ _____ _____    ______ ____
ROOT
ATOM      1  N   UNL     1      49.100 160.727  30.823  0.00  0.00    -0.113 NA
ATOM      2  C   UNL     1      49.267 159.381  31.292  0.00  0.00    +0.118 C 
ATOM      3  C   UNL     1      47.853 158.818  31.399  0.00  0.00    +0.024 C 
ATOM      4  C   UNL     1      46.893 159.861  31.918  0.00  0.00    +0.003 C 
ATOM      5  C   UNL     1      47.564 160.934  32.730  0.00  0.00    +0.021 C 
ATOM      6  C   UNL     1      48.814 161.479  32.070  0.00  0.00    +0.114 C 
ENDROOT
BRANCH   2   7
ATOM      7  C   UNL     1      50.067 158.464  30.487  0.00  0.00    -0.003 C 
ATOM      8  C   UNL     1      49.482 157.279  30.054  0.00  0.00    -0.003 C 
ATOM      9  C   UNL     1      50.204 156.361  29.331  0.00  0.00    +0.001 C 
ATOM     10  C   UNL     1      51.512 156.617  29.037  0.00  0.00    +0.019 C 
ATOM     11  C   UNL     1      52.099 157.806  29.472  0.00  0.00    +0.081 C 
ATOM     12  C   UNL     1      51.392 158.752  30.203  0.00  0.00    +0.015 C 
ATOM     13  C   UNL     1      51.977 159.923  30.616  0.00  0.00    +0.003 C 
ATOM     14  C   UNL     1      53.303 160.131  30.276  0.00  0.00    +0.018 C 
ATOM     15  C   UNL     1      54.020 159.201  29.550  0.00  0.00    +0.081 C 
ATOM     16  N   UNL     1      53.383 158.078  29.180  0.00  0.00    -0.245 NA
ATOM     17  C   UNL     1      55.346 159.433  29.220  0.00  0.00    +0.019 C 
ATOM     18  C   UNL     1      55.979 160.597  29.608  0.00  0.00    +0.002 C 
ATOM     19  C   UNL     1      55.281 161.531  30.330  0.00  0.00    +0.000 C 
ATOM     20  C   UNL     1      53.970 161.270  30.641  0.00  0.00    +0.001 C 
ENDBRANCH   2   7
BRANCH   1  21
ATOM     21  O   UNL     1      48.096 160.894  29.914  0.00  0.00    -0.349 OA
BRANCH  21  22
ATOM     22  C   UNL     1      47.231 161.966  30.078  0.00  0.00    +0.439 C 
ATOM     23  O   UNL     1      47.319 162.790  31.045  0.00  0.00    -0.223 OA
ATOM     24  N   UNL     1      46.152 162.256  29.180  0.00  0.00    -0.150 N 
ATOM     25  H   UNL     1      46.009 161.680  28.395  0.00  0.00    +0.180 HD
BRANCH  24  26
ATOM     26  S   UNL     1      45.098 163.596  29.449  0.00  0.00    +0.064 S 
ATOM     27  O   UNL     1      44.485 163.981  28.138  0.00  0.00    -0.053 OA
ATOM     28  O   UNL     1      44.007 163.181  30.414  0.00  0.00    -0.053 OA
BRANCH  26  29
ATOM     29  O   UNL     1      45.894 164.940  30.043  0.00  0.00    -0.256 OA
ATOM     30  H   UNL     1      46.304 164.723  30.895  0.00  0.00    +0.244 HD
ENDBRANCH  26  29
ENDBRANCH  24  26
ENDBRANCH  21  22
ENDBRANCH   1  21
TORSDOF 5
