REMARK  Name = =
REMARK  6 active torsions:
REMARK  status: ('A' for Active; 'I' for Inactive)
REMARK    1  A    between atoms: C_1  and  C_16
REMARK    2  A    between atoms: C_12  and  C_29
REMARK    3  A    between atoms: N_15  and  O_21
REMARK    4  A    between atoms: O_21  and  C_22
REMARK    5  A    between atoms: N_24  and  S_25
REMARK    6  A    between atoms: S_25  and  O_28
REMARK                            x       y       z     vdW  Elec       q    Type
REMARK                         _______ _______ _______ _____ _____    ______ ____
ROOT
ATOM      1  C   UNL     1      55.037 162.867  32.016  0.00  0.00    +0.003 C 
ATOM      2  C   UNL     1      54.805 161.514  31.902  0.00  0.00    -0.002 C 
ATOM      3  C   UNL     1      55.568 160.558  32.529  0.00  0.00    +0.001 C 
ATOM      4  C   UNL     1      56.620 160.941  33.314  0.00  0.00    +0.019 C 
ATOM      5  C   UNL     1      56.889 162.297  33.455  0.00  0.00    +0.081 C 
ATOM      6  C   UNL     1      56.105 163.255  32.813  0.00  0.00    +0.016 C 
ATOM      7  C   UNL     1      56.430 164.582  32.997  0.00  0.00    +0.003 C 
ATOM      8  C   UNL     1      57.505 164.964  33.797  0.00  0.00    +0.018 C 
ATOM      9  C   UNL     1      58.254 163.985  34.414  0.00  0.00    +0.081 C 
ATOM     10  N   UNL     1      57.919 162.701  34.220  0.00  0.00    -0.245 NA
ATOM     11  C   UNL     1      59.328 164.378  35.211  0.00  0.00    +0.019 C 
ATOM     12  C   UNL     1      59.618 165.733  35.365  0.00  0.00    +0.001 C 
ATOM     13  C   UNL     1      58.853 166.688  34.737  0.00  0.00    +0.000 C 
ATOM     14  C   UNL     1      57.787 166.316  33.946  0.00  0.00    +0.001 C 
ENDROOT
BRANCH   1  16
ATOM     15  N   UNL     1      53.875 163.552  30.013  0.00  0.00    -0.187 N 
ATOM     16  C   UNL     1      54.233 163.876  31.353  0.00  0.00    +0.144 C 
ATOM     17  C   UNL     1      52.917 164.123  32.078  0.00  0.00    +0.035 C 
ATOM     18  C   UNL     1      52.079 165.163  31.435  0.00  0.00    +0.030 C 
ATOM     19  C   UNL     1      52.340 165.487  30.022  0.00  0.00    -0.004 C 
ATOM     20  C   UNL     1      53.288 164.621  29.280  0.00  0.00    +0.108 C 
BRANCH  15  21
ATOM     21  O   UNL     1      53.465 162.309  29.754  0.00  0.00    -0.320 OA
BRANCH  21  22
ATOM     22  C   UNL     1      52.332 161.690  30.228  0.00  0.00    +0.444 C 
ATOM     23  O   UNL     1      51.522 162.377  30.892  0.00  0.00    -0.222 OA
ATOM     24  N   UNL     1      52.006 160.321  30.023  0.00  0.00    -0.149 N 
ATOM     25  H   UNL     1      52.623 159.753  29.508  0.00  0.00    +0.180 HD
BRANCH  24  26
ATOM     26  S   UNL     1      50.550 159.627  30.657  0.00  0.00    +0.064 S 
ATOM     27  O   UNL     1      50.104 160.448  31.820  0.00  0.00    -0.053 OA
ATOM     28  O   UNL     1      49.502 159.608  29.556  0.00  0.00    -0.053 OA
BRANCH  26  29
ATOM     29  O   UNL     1      50.814 158.014  31.077  0.00  0.00    -0.256 OA
ATOM     30  H   UNL     1      51.479 157.968  31.781  0.00  0.00    +0.244 HD
ENDBRANCH  26  29
ENDBRANCH  24  26
ENDBRANCH  21  22
ENDBRANCH  15  21
ENDBRANCH   1  16
BRANCH  12  31
ATOM     31  C   UNL     1      60.750 166.109  36.205  0.00  0.00    +0.000 C 
ATOM     32  C   UNL     1      61.660 165.192  36.687  0.00  0.00    +0.000 C 
ATOM     33  C   UNL     1      62.722 165.579  37.476  0.00  0.00    +0.000 C 
ATOM     34  C   UNL     1      62.895 166.906  37.800  0.00  0.00    +0.000 C 
ATOM     35  C   UNL     1      61.975 167.805  37.309  0.00  0.00    +0.000 C 
ATOM     36  C   UNL     1      60.906 167.448  36.519  0.00  0.00    +0.000 C 
ENDBRANCH  12  31
TORSDOF 6
