REMARK  Name = =
REMARK  10 active torsions:
REMARK  status: ('A' for Active; 'I' for Inactive)
REMARK    1  A    between atoms: C_1  and  C_16
REMARK    2  A    between atoms: C_12  and  C_29
REMARK    3  A    between atoms: N_15  and  O_21
REMARK    4  A    between atoms: O_21  and  C_22
REMARK    5  A    between atoms: N_24  and  S_25
REMARK    6  A    between atoms: S_25  and  O_28
REMARK    7  A    between atoms: C_31  and  O_35
REMARK    8  A    between atoms: O_35  and  C_36
REMARK    9  A    between atoms: C_36  and  O_38
REMARK   10  A    between atoms: O_38  and  C_39
REMARK                            x       y       z     vdW  Elec       q    Type
REMARK                         _______ _______ _______ _____ _____    ______ ____
ROOT
ATOM      1  C   UNL     1      60.655 164.864  36.538  0.00  0.00    -0.003 C 
ATOM      2  C   UNL     1      60.969 166.194  36.721  0.00  0.00    -0.003 C 
ATOM      3  C   UNL     1      60.389 167.232  35.998  0.00  0.00    +0.001 C 
ATOM      4  C   UNL     1      59.451 166.909  35.052  0.00  0.00    +0.019 C 
ATOM      5  C   UNL     1      59.095 165.579  34.830  0.00  0.00    +0.081 C 
ATOM      6  C   UNL     1      59.685 164.566  35.558  0.00  0.00    +0.015 C 
ATOM      7  C   UNL     1      59.247 163.270  35.380  0.00  0.00    +0.003 C 
ATOM      8  C   UNL     1      58.219 162.951  34.486  0.00  0.00    +0.018 C 
ATOM      9  C   UNL     1      57.665 164.002  33.784  0.00  0.00    +0.081 C 
ATOM     10  N   UNL     1      58.115 165.272  33.973  0.00  0.00    -0.245 NA
ATOM     11  C   UNL     1      56.615 163.762  32.933  0.00  0.00    +0.019 C 
ATOM     12  C   UNL     1      56.079 162.506  32.742  0.00  0.00    +0.002 C 
ATOM     13  C   UNL     1      56.645 161.458  33.449  0.00  0.00    +0.000 C 
ATOM     14  C   UNL     1      57.711 161.690  34.314  0.00  0.00    +0.001 C 
ENDROOT
BRANCH   1  16
ATOM     15  N   UNL     1      61.739 164.219  38.591  0.00  0.00    -0.113 NA
ATOM     16  C   UNL     1      61.364 163.779  37.236  0.00  0.00    +0.118 C 
ATOM     17  C   UNL     1      60.486 162.568  37.465  0.00  0.00    +0.024 C 
ATOM     18  C   UNL     1      59.251 162.811  38.250  0.00  0.00    +0.003 C 
ATOM     19  C   UNL     1      59.622 163.271  39.641  0.00  0.00    +0.021 C 
ATOM     20  C   UNL     1      60.929 164.002  39.674  0.00  0.00    +0.114 C 
BRANCH  15  21
ATOM     21  O   UNL     1      63.072 164.006  38.867  0.00  0.00    -0.349 OA
BRANCH  21  22
ATOM     22  C   UNL     1      63.512 162.799  39.359  0.00  0.00    +0.439 C 
ATOM     23  O   UNL     1      62.905 161.725  39.145  0.00  0.00    -0.223 OA
ATOM     24  N   UNL     1      64.699 162.653  40.158  0.00  0.00    -0.150 N 
ATOM     25  H   UNL     1      65.235 163.446  40.389  0.00  0.00    +0.180 HD
BRANCH  24  26
ATOM     26  S   UNL     1      65.191 161.081  40.717  0.00  0.00    +0.064 S 
ATOM     27  O   UNL     1      64.067 160.069  40.494  0.00  0.00    -0.053 OA
ATOM     28  O   UNL     1      65.652 161.082  42.130  0.00  0.00    -0.053 OA
BRANCH  26  29
ATOM     29  O   UNL     1      66.470 160.511  39.751  0.00  0.00    -0.256 OA
ATOM     30  H   UNL     1      67.231 161.106  39.838  0.00  0.00    +0.244 HD
ENDBRANCH  26  29
ENDBRANCH  24  26
ENDBRANCH  21  22
ENDBRANCH  15  21
ENDBRANCH   1  16
BRANCH  12  31
ATOM     31  C   UNL     1      54.940 162.357  31.858  0.00  0.00    +0.003 C 
ATOM     32  C   UNL     1      53.945 161.461  32.182  0.00  0.00    +0.038 C 
ATOM     33  C   UNL     1      52.823 161.245  31.366  0.00  0.00    +0.152 C 
ATOM     34  C   UNL     1      52.741 161.969  30.205  0.00  0.00    +0.038 C 
ATOM     35  C   UNL     1      53.728 162.886  29.843  0.00  0.00    +0.003 C 
ATOM     36  C   UNL     1      54.813 163.057  30.688  0.00  0.00    +0.000 C 
BRANCH  33  37
ATOM     37  O   UNL     1      51.848 160.336  31.730  0.00  0.00    -0.394 OA
BRANCH  37  38
ATOM     38  C   UNL     1      51.244 159.490  30.798  0.00  0.00    +0.518 C 
ATOM     39  O   UNL     1      52.027 159.000  29.935  0.00  0.00    -0.202 OA
BRANCH  38  40
ATOM     40  O   UNL     1      49.912 159.193  30.791  0.00  0.00    -0.385 OA
BRANCH  40  41
ATOM     41  C   UNL     1      48.952 159.909  30.037  0.00  0.00    +0.396 C 
ATOM     42  O   UNL     1      49.191 161.141  29.958  0.00  0.00    -0.167 OA
ENDBRANCH  40  41
ENDBRANCH  38  40
ENDBRANCH  37  38
ENDBRANCH  33  37
ENDBRANCH  12  31
TORSDOF 10
