MODEL 1
REMARK VINA RESULT:    -8.538      0.000      0.000
REMARK INTER + INTRA:         -10.330
REMARK INTER:                 -10.785
REMARK INTRA:                   0.455
REMARK UNBOUND:                 0.455
REMARK  Name = =
REMARK  5 active torsions:
REMARK  status: ('A' for Active; 'I' for Inactive)
REMARK    1  A    between atoms: N_1  and  C_15
REMARK    2  A    between atoms: C_6  and  N_16
REMARK    3  A    between atoms: N_16  and  O_17
REMARK    4  A    between atoms: N_16  and  O_18
REMARK    5  A    between atoms: O_18  and  C_19
REMARK                            x       y       z     vdW  Elec       q    Type
REMARK                         _______ _______ _______ _____ _____    ______ ____
ROOT
ATOM      1  N   UNL     1      52.107 155.184  27.518  0.00  0.00    -0.263 N 
ATOM      2  C   UNL     1      51.335 153.925  27.582  0.00  0.00    +0.168 C 
ATOM      3  N   UNL     1      51.790 153.312  28.838  0.00  0.00    -0.267 NA
ATOM      4  C   UNL     1      51.443 154.151  29.939  0.00  0.00    +0.146 C 
ATOM      5  N   UNL     1      51.986 155.490  29.888  0.00  0.00    -0.251 NA
ATOM      6  C   UNL     1      51.797 156.103  28.586  0.00  0.00    +0.262 C 
ATOM      7  H   UNL     1      51.343 152.403  28.952  0.00  0.00    +0.126 HD
ATOM      8  H   UNL     1      52.985 155.449  30.090  0.00  0.00    +0.127 HD
ENDROOT
BRANCH   1  17
ATOM      9  O   UNL     1      54.765 152.019  24.698  0.00  0.00    -0.265 OA
ATOM     10  C   UNL     1      53.934 151.848  25.632  0.00  0.00    +0.305 C 
ATOM     11  N   UNL     1      53.334 152.975  26.241  0.00  0.00    -0.261 N 
ATOM     12  C   UNL     1      53.641 154.291  25.829  0.00  0.00    +0.148 C 
ATOM     13  N   UNL     1      54.528 154.464  24.828  0.00  0.00    -0.228 NA
ATOM     14  C   UNL     1      54.856 155.693  24.396  0.00  0.00    +0.100 C 
ATOM     15  C   UNL     1      54.274 156.786  24.986  0.00  0.00    +0.022 C 
ATOM     16  C   UNL     1      53.366 156.622  26.009  0.00  0.00    +0.019 C 
ATOM     17  C   UNL     1      53.015 155.370  26.470  0.00  0.00    +0.083 C 
ATOM     18  H   UNL     1      52.687 152.840  26.970  0.00  0.00    +0.157 HD
ENDBRANCH   1  17
BRANCH   6  19
ATOM     19  N   UNL     1      52.445 157.361  28.548  0.00  0.00    +0.028 NA
BRANCH  19  20
ATOM     20  O   UNL     1      53.543 157.497  29.301  0.00  0.00    -0.276 OA
ATOM     21  H   UNL     1      53.990 156.640  29.379  0.00  0.00    +0.240 HD
ENDBRANCH  19  20
BRANCH  19  22
ATOM     22  O   UNL     1      51.667 158.438  28.600  0.00  0.00    -0.355 OA
BRANCH  22  23
ATOM     23  C   UNL     1      51.304 159.164  29.698  0.00  0.00    +0.251 C 
ATOM     24  C   UNL     1      50.087 158.868  30.290  0.00  0.00    +0.060 C 
ATOM     25  C   UNL     1      49.641 159.542  31.389  0.00  0.00    +0.006 C 
ATOM     26  C   UNL     1      50.404 160.549  31.944  0.00  0.00    +0.021 C 
ATOM     27  C   UNL     1      51.612 160.821  31.332  0.00  0.00    +0.102 C 
ATOM     28  N   UNL     1      52.038 160.148  30.247  0.00  0.00    -0.208 NA
ENDBRANCH  22  23
ENDBRANCH  19  22
ENDBRANCH   6  19
TORSDOF 5
ENDMDL
