REMARK  Name = =
REMARK  5 active torsions:
REMARK  status: ('A' for Active; 'I' for Inactive)
REMARK    1  A    between atoms: N_1  and  C_15
REMARK    2  A    between atoms: C_6  and  N_16
REMARK    3  A    between atoms: N_16  and  O_17
REMARK    4  A    between atoms: N_16  and  O_18
REMARK    5  A    between atoms: O_18  and  C_19
REMARK                            x       y       z     vdW  Elec       q    Type
REMARK                         _______ _______ _______ _____ _____    ______ ____
ROOT
ATOM      1  N   UNL     1      53.366 154.428  26.339  0.00  0.00    -0.263 N 
ATOM      2  C   UNL     1      53.948 154.491  24.982  0.00  0.00    +0.168 C 
ATOM      3  N   UNL     1      53.114 155.491  24.301  0.00  0.00    -0.267 NA
ATOM      4  C   UNL     1      53.250 156.756  24.947  0.00  0.00    +0.146 C 
ATOM      5  N   UNL     1      52.893 156.773  26.348  0.00  0.00    -0.251 NA
ATOM      6  C   UNL     1      53.485 155.664  27.073  0.00  0.00    +0.262 C 
ATOM      7  H   UNL     1      53.411 155.574  23.329  0.00  0.00    +0.126 HD
ATOM      8  H   UNL     1      51.878 156.716  26.430  0.00  0.00    +0.127 HD
ENDROOT
BRANCH   1  17
ATOM      9  O   UNL     1      53.752 149.689  24.781  0.00  0.00    -0.265 OA
ATOM     10  C   UNL     1      54.283 150.766  24.396  0.00  0.00    +0.305 C 
ATOM     11  N   UNL     1      53.966 151.973  25.063  0.00  0.00    -0.261 N 
ATOM     12  C   UNL     1      53.069 152.003  26.153  0.00  0.00    +0.148 C 
ATOM     13  N   UNL     1      52.508 150.846  26.560  0.00  0.00    -0.228 NA
ATOM     14  C   UNL     1      51.648 150.816  27.592  0.00  0.00    +0.100 C 
ATOM     15  C   UNL     1      51.341 151.986  28.240  0.00  0.00    +0.022 C 
ATOM     16  C   UNL     1      51.908 153.174  27.833  0.00  0.00    +0.019 C 
ATOM     17  C   UNL     1      52.792 153.229  26.776  0.00  0.00    +0.083 C 
ATOM     18  H   UNL     1      54.381 152.813  24.760  0.00  0.00    +0.157 HD
ENDBRANCH   1  17
BRANCH   6  19
ATOM     19  N   UNL     1      53.014 155.656  28.408  0.00  0.00    +0.028 NA
BRANCH  19  20
ATOM     20  O   UNL     1      53.356 154.605  29.163  0.00  0.00    -0.276 OA
ATOM     21  H   UNL     1      54.283 154.374  28.995  0.00  0.00    +0.240 HD
ENDBRANCH  19  20
BRANCH  19  22
ATOM     22  O   UNL     1      51.748 156.017  28.599  0.00  0.00    -0.355 OA
BRANCH  22  23
ATOM     23  C   UNL     1      51.274 157.115  29.258  0.00  0.00    +0.251 C 
ATOM     24  C   UNL     1      50.084 156.982  29.954  0.00  0.00    +0.060 C 
ATOM     25  C   UNL     1      49.534 158.025  30.640  0.00  0.00    +0.006 C 
ATOM     26  C   UNL     1      50.160 159.254  30.657  0.00  0.00    +0.021 C 
ATOM     27  C   UNL     1      51.345 159.356  29.954  0.00  0.00    +0.102 C 
ATOM     28  N   UNL     1      51.875 158.318  29.281  0.00  0.00    -0.208 NA
ENDBRANCH  22  23
ENDBRANCH  19  22
ENDBRANCH   6  19
TORSDOF 5
