REMARK  Name = =
REMARK  3 active torsions:
REMARK  status: ('A' for Active; 'I' for Inactive)
REMARK    1  A    between atoms: C_1  and  C_16
REMARK    2  A    between atoms: C_16  and  C_18
REMARK    3  A    between atoms: C_18  and  O_20
REMARK                            x       y       z     vdW  Elec       q    Type
REMARK                         _______ _______ _______ _____ _____    ______ ____
ROOT
ATOM      1  C   UNL     1     -10.284  -8.308  21.001  0.00  0.00    +0.144 C 
ATOM      2  N   UNL     1      -9.714  -9.448  20.551  0.00  0.00    -0.239 NA
ATOM      3  C   UNL     1      -8.828 -10.163  21.268  0.00  0.00    +0.099 C 
ATOM      4  C   UNL     1      -8.509  -9.680  22.521  0.00  0.00    +0.022 C 
ATOM      5  C   UNL     1      -9.076  -8.514  23.012  0.00  0.00    +0.021 C 
ATOM      6  C   UNL     1      -9.981  -7.801  22.253  0.00  0.00    +0.104 C 
ATOM      7  N   UNL     1     -10.564  -6.660  22.681  0.00  0.00    -0.227 NA
ATOM      8  C   UNL     1     -10.285  -6.150  23.894  0.00  0.00    +0.155 C 
ATOM      9  N   UNL     1     -10.901  -4.932  24.362  0.00  0.00    -0.171 N 
ATOM     10  N   UNL     1     -10.856  -3.748  23.782  0.00  0.00    -0.171 NA
ATOM     11  C   UNL     1     -11.537  -2.827  24.482  0.00  0.00    +0.120 C 
ATOM     12  C   UNL     1     -12.050  -3.476  25.585  0.00  0.00    +0.040 C 
ATOM     13  C   UNL     1     -11.632  -4.783  25.475  0.00  0.00    +0.093 C 
ATOM     14  C   UNL     1      -9.382  -6.848  24.668  0.00  0.00    +0.036 C 
ATOM     15  C   UNL     1      -8.771  -8.015  24.258  0.00  0.00    +0.005 C 
ENDROOT
BRANCH   1  16
ATOM     16  C   UNL     1     -11.223  -7.603  20.167  0.00  0.00    +0.289 C 
ATOM     17  O   UNL     1     -12.458  -7.822  20.236  0.00  0.00    -0.278 OA
BRANCH  16  18
ATOM     18  C   UNL     1     -10.769  -6.602  19.207  0.00  0.00    +0.379 C 
ATOM     19  O   UNL     1     -10.138  -6.985  18.174  0.00  0.00    -0.241 OA
BRANCH  18  20
ATOM     20  O   UNL     1     -11.005  -5.247  19.381  0.00  0.00    -0.475 OA
ATOM     21  H   UNL     1     -11.469  -4.946  20.137  0.00  0.00    +0.296 HD
ENDBRANCH  18  20
ENDBRANCH  16  18
ENDBRANCH   1  16
TORSDOF 3
