REMARK  Name = =
REMARK  0 active torsions:
REMARK  status: ('A' for Active; 'I' for Inactive)
REMARK                            x       y       z     vdW  Elec       q    Type
REMARK                         _______ _______ _______ _____ _____    ______ ____
ROOT
ATOM      1  C   UNL     1      49.577 157.171  30.451  0.00  0.00    +0.012 C 
ATOM      2  C   UNL     1      50.559 157.303  29.352  0.00  0.00    -0.027 C 
ATOM      3  C   UNL     1      51.607 158.402  29.542  0.00  0.00    +0.028 C 
ATOM      4  C   UNL     1      50.999 159.538  30.165  0.00  0.00    +0.028 C 
ATOM      5  C   UNL     1      50.186 159.403  31.388  0.00  0.00    +0.065 C 
ATOM      6  C   UNL     1      50.701 160.144  32.572  0.00  0.00    +0.027 C 
ATOM      7  C   UNL     1      51.129 161.521  32.185  0.00  0.00    +0.089 C 
ATOM      8  N   UNL     1      51.986 161.572  31.014  0.00  0.00    -0.219 NA
ATOM      9  C   UNL     1      51.312 160.932  29.870  0.00  0.00    +0.078 C 
ATOM     10  C   UNL     1      50.022 161.725  29.586  0.00  0.00    +0.044 C 
ATOM     11  C   UNL     1      48.821 161.101  30.173  0.00  0.00    -0.022 C 
ATOM     12  C   UNL     1      47.559 161.563  29.884  0.00  0.00    -0.004 C 
ATOM     13  C   UNL     1      46.454 160.890  30.411  0.00  0.00    +0.003 C 
ATOM     14  C   UNL     1      46.618 159.768  31.217  0.00  0.00    +0.037 C 
ATOM     15  C   UNL     1      47.905 159.295  31.514  0.00  0.00    +0.135 C 
ATOM     16  C   UNL     1      48.890 160.012  30.963  0.00  0.00    +0.011 C 
ATOM     17  O   UNL     1      48.458 158.241  32.245  0.00  0.00    -0.475 OA
ATOM     18  C   UNL     1      49.788 157.979  31.672  0.00  0.00    +0.191 C 
ENDROOT
TORSDOF 0
