REMARK  Name = =
REMARK  2 active torsions:
REMARK  status: ('A' for Active; 'I' for Inactive)
REMARK    1  A    between atoms: C_1  and  C_19
REMARK    2  A    between atoms: C_20  and  C_21
REMARK                            x       y       z     vdW  Elec       q    Type
REMARK                         _______ _______ _______ _____ _____    ______ ____
ROOT
ATOM      1  C   UNL     1      49.834 157.905  30.137  0.00  0.00    +0.063 C 
ATOM      2  C   UNL     1      51.074 158.490  29.530  0.00  0.00    +0.008 C 
ATOM      3  C   UNL     1      50.891 160.017  29.622  0.00  0.00    +0.002 C 
ATOM      4  C   UNL     1      50.940 160.359  31.075  0.00  0.00    +0.024 C 
ATOM      5  C   UNL     1      49.842 159.675  31.844  0.00  0.00    +0.061 C 
ATOM      6  C   UNL     1      49.920 160.067  33.281  0.00  0.00    +0.026 C 
ATOM      7  C   UNL     1      51.094 161.016  33.458  0.00  0.00    +0.089 C 
ATOM      8  N   UNL     1      50.900 162.201  32.674  0.00  0.00    -0.219 NA
ATOM      9  C   UNL     1      50.750 161.845  31.269  0.00  0.00    +0.077 C 
ATOM     10  C   UNL     1      49.447 162.395  30.798  0.00  0.00    +0.043 C 
ATOM     11  C   UNL     1      48.341 161.411  30.800  0.00  0.00    -0.022 C 
ATOM     12  C   UNL     1      47.083 161.673  30.317  0.00  0.00    -0.004 C 
ATOM     13  C   UNL     1      46.103 160.702  30.328  0.00  0.00    +0.003 C 
ATOM     14  C   UNL     1      46.376 159.448  30.826  0.00  0.00    +0.037 C 
ATOM     15  C   UNL     1      47.654 159.146  31.328  0.00  0.00    +0.134 C 
ATOM     16  C   UNL     1      48.559 160.159  31.281  0.00  0.00    +0.011 C 
ATOM     17  O   UNL     1      48.281 158.044  31.885  0.00  0.00    -0.479 OA
ATOM     18  C   UNL     1      49.693 158.204  31.619  0.00  0.00    +0.173 C 
ENDROOT
BRANCH   1  19
ATOM     19  C   UNL     1      49.572 156.502  29.823  0.00  0.00    -0.012 C 
ATOM     20  C   UNL     1      50.361 155.628  29.266  0.00  0.00    +0.074 C 
BRANCH  20  21
ATOM     21  C   UNL     1      51.718 155.887  28.830  0.00  0.00    +0.101 C 
ATOM     22  N   UNL     1      52.807 156.074  28.478  0.00  0.00    -0.191 NA
ENDBRANCH  20  21
ENDBRANCH   1  19
TORSDOF 2
