REMARK  Name = =
REMARK  5 active torsions:
REMARK  status: ('A' for Active; 'I' for Inactive)
REMARK    1  A    between atoms: C_1  and  C_25
REMARK    2  A    between atoms: P_19  and  O_20
REMARK    3  A    between atoms: P_19  and  C_23
REMARK    4  A    between atoms: O_20  and  O_21
REMARK    5  A    between atoms: C_26  and  C_27
REMARK                            x       y       z     vdW  Elec       q    Type
REMARK                         _______ _______ _______ _____ _____    ______ ____
ROOT
ATOM      1  C   UNL     1      51.471 159.462  30.410  0.00  0.00    +0.062 C 
ATOM      2  C   UNL     1      51.454 160.635  29.448  0.00  0.00    +0.008 C 
ATOM      3  C   UNL     1      50.064 161.203  29.142  0.00  0.00    +0.002 C 
ATOM      4  C   UNL     1      49.185 161.428  30.245  0.00  0.00    +0.024 C 
ATOM      5  C   UNL     1      49.607 160.673  31.520  0.00  0.00    +0.061 C 
ATOM      6  C   UNL     1      50.119 161.528  32.590  0.00  0.00    +0.026 C 
ATOM      7  C   UNL     1      50.555 162.911  32.082  0.00  0.00    +0.089 C 
ATOM      8  N   UNL     1      49.441 163.584  31.415  0.00  0.00    -0.219 NA
ATOM      9  C   UNL     1      48.590 162.660  30.709  0.00  0.00    +0.077 C 
ATOM     10  C   UNL     1      47.311 162.334  31.547  0.00  0.00    +0.043 C 
ATOM     11  C   UNL     1      47.253 160.937  31.895  0.00  0.00    -0.022 C 
ATOM     12  C   UNL     1      46.052 160.269  32.289  0.00  0.00    -0.004 C 
ATOM     13  C   UNL     1      46.043 158.988  32.596  0.00  0.00    +0.003 C 
ATOM     14  C   UNL     1      47.217 158.116  32.547  0.00  0.00    +0.037 C 
ATOM     15  C   UNL     1      48.412 158.780  32.145  0.00  0.00    +0.134 C 
ATOM     16  C   UNL     1      48.263 160.058  31.886  0.00  0.00    +0.011 C 
ATOM     17  O   UNL     1      49.765 158.394  31.927  0.00  0.00    -0.479 OA
ATOM     18  C   UNL     1      50.239 159.441  31.131  0.00  0.00    +0.173 C 
ENDROOT
BRANCH   1  19
ATOM     19  C   UNL     1      52.540 159.762  31.432  0.00  0.00    -0.026 C 
ATOM     20  C   UNL     1      53.357 160.737  31.567  0.00  0.00    -0.010 C 
BRANCH  20  21
ATOM     21  C   UNL     1      53.414 161.867  30.685  0.00  0.00    +0.135 C 
ATOM     22  N   UNL     1      53.471 162.876  29.902  0.00  0.00    -0.126 NA
ENDBRANCH  20  21
ENDBRANCH   1  19
TORSDOF 2
REMARK  Name = =
REMARK  5 active torsions:
REMARK  status: ('A' for Active; 'I' for Inactive)
REMARK    1  A    between atoms: C_1  and  C_25
REMARK    2  A    between atoms: P_19  and  O_20
REMARK    3  A    between atoms: P_19  and  C_23
REMARK    4  A    between atoms: O_20  and  O_21
REMARK    5  A    between atoms: C_26  and  C_27
REMARK                            x       y       z     vdW  Elec       q    Type
REMARK                         _______ _______ _______ _____ _____    ______ ____
ROOT
ATOM      1  P   UNL     1      51.877 157.954  29.523  0.00  0.00    +0.163 P 
ENDROOT
BRANCH   1   2
ATOM      2  C   UNL     1      51.918 158.077  27.716  0.00  0.00    +0.031 C 
ATOM      3  C   UNL     1      52.518 157.183  27.108  0.00  0.00    +0.003 C 
ENDBRANCH   1   2
BRANCH   1   4
ATOM      4  O   UNL     1      53.266 158.560  29.393  0.00  0.00    -0.204 OA
BRANCH   4   5
ATOM      5  O   UNL     1      53.382 157.206  29.923  0.00  0.00    -0.246 OA
ATOM      6  H   UNL     1      54.317 156.997  30.073  0.00  0.00    +0.253 HD
ENDBRANCH   4   5
ENDBRANCH   1   4
TORSDOF 3
REMARK  Name = =
REMARK  5 active torsions:
REMARK  status: ('A' for Active; 'I' for Inactive)
REMARK    1  A    between atoms: C_1  and  C_25
REMARK    2  A    between atoms: P_19  and  O_20
REMARK    3  A    between atoms: P_19  and  C_23
REMARK    4  A    between atoms: O_20  and  O_21
REMARK    5  A    between atoms: C_26  and  C_27
REMARK                            x       y       z     vdW  Elec       q    Type
REMARK                         _______ _______ _______ _____ _____    ______ ____
ROOT
ATOM      1  O   HOH     1      50.804 156.872  30.178  0.00  0.00    -0.410 OA
ATOM      2  H   HOH     0      51.774 156.872  30.178  0.00  0.00    +0.205 HD
ATOM      3  H   HOH     0      50.481 156.678  29.284  0.00  0.00    +0.205 HD
ENDROOT
TORSDOF 0
