MODEL 1
REMARK VINA RESULT:    -5.290      0.000      0.000
REMARK INTER + INTRA:          -9.184
REMARK INTER:                  -8.538
REMARK INTRA:                  -0.647
REMARK UNBOUND:                -0.647
REMARK  Name = =
REMARK  12 active torsions:
REMARK  status: ('A' for Active; 'I' for Inactive)
REMARK    1  A    between atoms: N_1  and  C_5
REMARK    2  A    between atoms: N_1  and  O_37
REMARK    3  A    between atoms: N_4  and  N_23
REMARK    4  A    between atoms: C_5  and  C_12
REMARK    5  A    between atoms: C_12  and  C_19
REMARK    6  A    between atoms: C_19  and  C_22
REMARK    7  A    between atoms: C_24  and  S_30
REMARK    8  A    between atoms: S_30  and  P_31
REMARK    9  A    between atoms: P_31  and  S_32
REMARK   10  A    between atoms: S_32  and  P_33
REMARK   11  A    between atoms: P_33  and  O_35
REMARK   12  A    between atoms: P_33  and  O_36
REMARK                            x       y       z     vdW  Elec       q    Type
REMARK                         _______ _______ _______ _____ _____    ______ ____
ROOT
ATOM      1  N   UNL     1      61.598 165.816  38.158  0.00  0.00    -0.122 N 
ATOM      2  C   UNL     1      60.594 164.820  38.240  0.00  0.00    +0.345 C 
ATOM      3  O   UNL     1      59.473 164.847  37.701  0.00  0.00    -0.249 OA
ATOM      4  N   UNL     1      60.836 163.616  39.016  0.00  0.00    -0.212 N 
ATOM      5  H   UNL     1      61.696 163.499  39.480  0.00  0.00    +0.175 HD
ENDROOT
BRANCH   1   6
ATOM      6  C   UNL     1      61.432 167.078  37.409  0.00  0.00    +0.226 C 
ATOM      7  O   UNL     1      60.080 167.408  37.666  0.00  0.00    -0.436 OA
ATOM      8  C   UNL     1      59.593 168.410  38.466  0.00  0.00    +0.318 C 
ATOM      9  O   UNL     1      58.389 168.437  38.881  0.00  0.00    -0.250 OA
ATOM     10  C   UNL     1      60.491 169.520  38.874  0.00  0.00    +0.110 C 
ATOM     11  C   UNL     1      61.626 169.518  37.834  0.00  0.00    +0.017 C 
ATOM     12  C   UNL     1      62.277 168.140  38.030  0.00  0.00    +0.063 C 
BRANCH   6  13
ATOM     13  C   UNL     1      61.730 166.891  35.959  0.00  0.00    +0.080 C 
ATOM     14  C   UNL     1      62.805 167.741  35.374  0.00  0.00    +0.010 C 
ATOM     15  C   UNL     1      63.596 166.899  34.378  0.00  0.00    +0.001 C 
ATOM     16  C   UNL     1      62.565 165.788  34.094  0.00  0.00    +0.001 C 
ATOM     17  C   UNL     1      62.238 165.514  35.580  0.00  0.00    +0.009 C 
ATOM     18  C   UNL     1      63.631 165.205  36.024  0.00  0.00    +0.001 C 
ATOM     19  C   UNL     1      64.578 166.086  35.195  0.00  0.00    +0.000 C 
BRANCH  13  20
ATOM     20  C   UNL     1      60.488 167.153  35.169  0.00  0.00    +0.051 C 
ATOM     21  C   UNL     1      60.185 168.379  34.753  0.00  0.00    +0.006 C 
BRANCH  20  23
ATOM     22  N   UNL     1      58.861 165.237  34.491  0.00  0.00    -0.191 NA
ATOM     23  C   UNL     1      59.595 166.104  34.809  0.00  0.00    +0.096 C 
ENDBRANCH  20  23
ENDBRANCH  13  20
ENDBRANCH   6  13
ENDBRANCH   1   6
BRANCH   4  24
ATOM     24  N   UNL     1      59.862 162.629  39.108  0.00  0.00    -0.196 N 
ATOM     25  C   UNL     1      58.881 162.634  40.159  0.00  0.00    +0.139 C 
ATOM     26  C   UNL     1      58.149 161.375  40.382  0.00  0.00    +0.058 C 
ATOM     27  C   UNL     1      58.192 160.262  39.436  0.00  0.00    -0.019 C 
ATOM     28  C   UNL     1      59.115 160.324  38.313  0.00  0.00    +0.055 C 
ATOM     29  C   UNL     1      59.831 161.593  38.149  0.00  0.00    +0.265 C 
ATOM     30  O   UNL     1      60.467 161.750  37.055  0.00  0.00    -0.268 OA
BRANCH  25  31
ATOM     31  S   UNL     1      59.764 163.043  41.705  0.00  0.00    -0.156 S 
ATOM     32  H   UNL     1      58.856 163.362  42.667  0.00  0.00    +0.099 HD
BRANCH  31  33
ATOM     33  P   UNL     1      60.813 161.550  42.299  0.00  0.00    +0.046 P 
BRANCH  33  34
ATOM     34  S   UNL     1      61.891 160.232  40.996  0.00  0.00    -0.076 S 
ATOM     35  H   UNL     1      61.089 159.794  39.988  0.00  0.00    +0.108 HD
BRANCH  34  36
ATOM     36  P   UNL     1      63.341 161.305  40.297  0.00  0.00    +0.379 P 
ATOM     37  O   UNL     1      63.080 162.669  40.931  0.00  0.00    -0.247 OA
BRANCH  36  38
ATOM     38  O   UNL     1      63.150 161.487  38.631  0.00  0.00    -0.317 OA
ATOM     39  H   UNL     1      63.134 162.431  38.409  0.00  0.00    +0.221 HD
ENDBRANCH  36  38
BRANCH  36  40
ATOM     40  O   UNL     1      64.823 160.666  40.735  0.00  0.00    -0.317 OA
ATOM     41  H   UNL     1      64.700 159.762  41.064  0.00  0.00    +0.221 HD
ENDBRANCH  36  40
ENDBRANCH  34  36
ENDBRANCH  33  34
ENDBRANCH  31  33
ENDBRANCH  25  31
ENDBRANCH   4  24
BRANCH   1  42
ATOM     42  O   UNL     1      62.770 165.585  38.750  0.00  0.00    -0.288 OA
ATOM     43  H   UNL     1      63.357 166.345  38.613  0.00  0.00    +0.242 HD
ENDBRANCH   1  42
TORSDOF 12
ENDMDL
