MODEL 1
REMARK VINA RESULT:    -5.105      0.000      0.000
REMARK INTER + INTRA:          -5.747
REMARK INTER:                  -7.044
REMARK INTRA:                   1.297
REMARK UNBOUND:                 1.297
REMARK  Name = =
REMARK  7 active torsions:
REMARK  status: ('A' for Active; 'I' for Inactive)
REMARK    1  A    between atoms: C_1  and  C_12
REMARK    2  A    between atoms: N_2  and  O_24
REMARK    3  A    between atoms: C_12  and  O_13
REMARK    4  A    between atoms: C_12  and  C_18
REMARK    5  A    between atoms: C_12  and  C_19
REMARK    6  A    between atoms: C_15  and  C_17
REMARK    7  A    between atoms: C_17  and  C_18
REMARK                            x       y       z     vdW  Elec       q    Type
REMARK                         _______ _______ _______ _____ _____    ______ ____
ROOT
ATOM      1  C   UNL     1      59.506 160.450  38.427  0.00  0.00    +0.180 C 
ATOM      2  N   UNL     1      58.955 159.547  37.602  0.00  0.00    -0.073 NA
ATOM      3  N   UNL     1      59.737 161.466  37.517  0.00  0.00    -0.252 N 
ATOM      4  C   UNL     1      60.244 162.701  37.790  0.00  0.00    +0.309 C 
ATOM      5  O   UNL     1      60.482 162.815  39.000  0.00  0.00    -0.252 OA
ATOM      6  N   UNL     1      60.453 163.680  36.841  0.00  0.00    -0.259 N 
ATOM      7  C   UNL     1      60.964 164.937  37.332  0.00  0.00    +0.127 C 
ATOM      8  C   UNL     1      60.142 166.084  36.761  0.00  0.00    +0.164 C 
ATOM      9  O   UNL     1      59.962 165.931  35.387  0.00  0.00    -0.350 OA
ATOM     10  C   UNL     1      59.283 164.774  35.100  0.00  0.00    +0.164 C 
ATOM     11  C   UNL     1      60.208 163.589  35.407  0.00  0.00    +0.127 C 
ATOM     12  H   UNL     1      59.512 161.277  36.577  0.00  0.00    +0.158 HD
ENDROOT
BRANCH   2  13
ATOM     13  O   UNL     1      58.553 158.455  38.230  0.00  0.00    -0.408 OA
ATOM     14  H   UNL     1      57.668 158.387  38.532  0.00  0.00    +0.328 HD
ENDBRANCH   2  13
BRANCH   1  15
ATOM     15  C   UNL     1      59.533 159.984  39.792  0.00  0.00    +0.178 C 
BRANCH  15  16
ATOM     16  C   UNL     1      58.421 160.648  40.573  0.00  0.00    +0.100 C 
ATOM     17  N   UNL     1      57.158 160.499  40.392  0.00  0.00    -0.192 NA
ATOM     18  C   UNL     1      56.420 161.284  41.326  0.00  0.00    +0.185 C 
ATOM     19  N   UNL     1      57.416 161.931  42.126  0.00  0.00    -0.224 NA
ATOM     20  C   UNL     1      58.573 161.566  41.691  0.00  0.00    +0.115 C 
ENDBRANCH  15  16
BRANCH  15  21
ATOM     21  O   UNL     1      59.342 158.615  39.901  0.00  0.00    -0.343 OA
ATOM     22  C   UNL     1      59.307 158.075  41.142  0.00  0.00    +0.175 C 
ENDBRANCH  15  21
BRANCH  15  23
ATOM     23  C   UNL     1      60.767 160.366  40.559  0.00  0.00    +0.048 C 
BRANCH  23  24
ATOM     24  C   UNL     1      61.974 160.028  40.123  0.00  0.00    +0.075 C 
BRANCH  24  25
ATOM     25  C   UNL     1      62.964 159.900  41.215  0.00  0.00    +0.207 C 
ATOM     26  O   UNL     1      62.679 159.259  42.245  0.00  0.00    -0.288 OA
ENDBRANCH  24  25
ENDBRANCH  23  24
ENDBRANCH  15  23
ENDBRANCH   1  15
TORSDOF 7
ENDMDL
