REMARK  Name = =
REMARK  7 active torsions:
REMARK  status: ('A' for Active; 'I' for Inactive)
REMARK    1  A    between atoms: C_1  and  C_12
REMARK    2  A    between atoms: N_2  and  O_24
REMARK    3  A    between atoms: C_12  and  O_13
REMARK    4  A    between atoms: C_12  and  C_18
REMARK    5  A    between atoms: C_12  and  C_19
REMARK    6  A    between atoms: C_15  and  C_17
REMARK    7  A    between atoms: C_17  and  C_18
REMARK                            x       y       z     vdW  Elec       q    Type
REMARK                         _______ _______ _______ _____ _____    ______ ____
ROOT
ATOM      1  C   UNL     1      53.128 153.324  25.990  0.00  0.00    +0.180 C 
ATOM      2  N   UNL     1      52.613 152.096  26.154  0.00  0.00    -0.073 NA
ATOM      3  N   UNL     1      52.335 154.015  26.889  0.00  0.00    -0.252 N 
ATOM      4  C   UNL     1      52.435 155.336  27.211  0.00  0.00    +0.309 C 
ATOM      5  O   UNL     1      53.359 155.868  26.581  0.00  0.00    -0.252 OA
ATOM      6  N   UNL     1      51.616 155.976  28.118  0.00  0.00    -0.259 N 
ATOM      7  C   UNL     1      51.902 157.371  28.353  0.00  0.00    +0.127 C 
ATOM      8  C   UNL     1      51.949 157.641  29.850  0.00  0.00    +0.164 C 
ATOM      9  O   UNL     1      50.852 157.070  30.493  0.00  0.00    -0.350 OA
ATOM     10  C   UNL     1      50.836 155.708  30.336  0.00  0.00    +0.164 C 
ATOM     11  C   UNL     1      50.507 155.401  28.869  0.00  0.00    +0.127 C 
ATOM     12  H   UNL     1      51.628 153.501  27.342  0.00  0.00    +0.158 HD
ENDROOT
BRANCH   2  13
ATOM     13  O   UNL     1      53.244 151.175  25.445  0.00  0.00    -0.408 OA
ATOM     14  H   UNL     1      52.966 150.281  25.485  0.00  0.00    +0.328 HD
ENDBRANCH   2  13
BRANCH   1  15
ATOM     15  C   UNL     1      54.234 153.324  25.064  0.00  0.00    +0.178 C 
BRANCH  15  16
ATOM     16  C   UNL     1      54.582 154.747  24.694  0.00  0.00    +0.100 C 
ATOM     17  N   UNL     1      55.748 155.287  24.720  0.00  0.00    -0.192 NA
ATOM     18  C   UNL     1      55.682 156.647  24.297  0.00  0.00    +0.185 C 
ATOM     19  N   UNL     1      54.301 156.867  23.988  0.00  0.00    -0.224 NA
ATOM     20  C   UNL     1      53.664 155.771  24.219  0.00  0.00    +0.115 C 
ENDBRANCH  15  16
BRANCH  15  21
ATOM     21  O   UNL     1      55.382 152.751  25.592  0.00  0.00    -0.343 OA
ATOM     22  C   UNL     1      55.472 151.401  25.599  0.00  0.00    +0.175 C 
ENDBRANCH  15  21
BRANCH  15  23
ATOM     23  C   UNL     1      53.938 152.685  23.737  0.00  0.00    +0.048 C 
BRANCH  23  24
ATOM     24  C   UNL     1      54.036 151.372  23.573  0.00  0.00    +0.075 C 
BRANCH  24  25
ATOM     25  C   UNL     1      54.457 150.669  24.804  0.00  0.00    +0.207 C 
ATOM     26  O   UNL     1      53.964 149.560  25.090  0.00  0.00    -0.288 OA
ENDBRANCH  24  25
ENDBRANCH  23  24
ENDBRANCH  15  23
ENDBRANCH   1  15
TORSDOF 7
