MODEL 1
REMARK VINA RESULT:    -9.450      0.000      0.000
REMARK INTER + INTRA:         -15.510
REMARK INTER:                 -14.423
REMARK INTRA:                  -1.087
REMARK UNBOUND:                -1.087
REMARK  Name = =
REMARK  9 active torsions:
REMARK  status: ('A' for Active; 'I' for Inactive)
REMARK    1  A    between atoms: C_1  and  C_3
REMARK    2  A    between atoms: C_1  and  C_15
REMARK    3  A    between atoms: C_3  and  O_5
REMARK    4  A    between atoms: O_5  and  C_6
REMARK    5  A    between atoms: C_15  and  C_16
REMARK    6  A    between atoms: C_16  and  C_21
REMARK    7  A    between atoms: N_17  and  N_22
REMARK    8  A    between atoms: N_22  and  O_23
REMARK    9  A    between atoms: O_23  and  C_24
REMARK                            x       y       z     vdW  Elec       q    Type
REMARK                         _______ _______ _______ _____ _____    ______ ____
ROOT
ATOM      1  C   UNL     1      51.724 156.325  29.207  0.00  0.00    +0.054 C 
ATOM      2  C   UNL     1      50.592 156.008  29.799  0.00  0.00    +0.002 C 
ENDROOT
BRANCH   1   3
ATOM      3  C   UNL     1      52.214 157.705  29.146  0.00  0.00    +0.338 C 
ATOM      4  O   UNL     1      53.443 157.956  29.075  0.00  0.00    -0.245 OA
BRANCH   3   5
ATOM      5  O   UNL     1      51.384 158.790  29.161  0.00  0.00    -0.437 OA
BRANCH   5   6
ATOM      6  C   UNL     1      51.087 159.646  30.157  0.00  0.00    +0.251 C 
ATOM      7  C   UNL     1      49.877 159.551  30.776  0.00  0.00    +0.058 C 
ATOM      8  C   UNL     1      48.678 158.871  30.832  0.00  0.00    +0.043 C 
ATOM      9  C   UNL     1      47.906 159.435  31.828  0.00  0.00    +0.179 C 
ATOM     10  O   UNL     1      48.615 160.413  32.347  0.00  0.00    -0.454 OA
ATOM     11  C   UNL     1      49.783 160.510  31.752  0.00  0.00    +0.130 C 
ATOM     12  C   UNL     1      50.878 161.251  31.817  0.00  0.00    +0.133 C 
ATOM     13  C   UNL     1      51.783 160.741  30.797  0.00  0.00    +0.202 C 
ATOM     14  O   UNL     1      52.919 161.134  30.503  0.00  0.00    -0.291 OA
ENDBRANCH   5   6
ENDBRANCH   3   5
ENDBRANCH   1   3
BRANCH   1  15
ATOM     15  C   UNL     1      52.524 155.251  28.587  0.00  0.00    +0.039 C 
BRANCH  15  16
ATOM     16  C   UNL     1      51.961 154.789  27.260  0.00  0.00    +0.050 C 
BRANCH  16  21
ATOM     17  N   UNL     1      53.953 154.108  25.829  0.00  0.00    -0.126 N 
ATOM     18  N   UNL     1      54.731 154.686  24.913  0.00  0.00    -0.160 NA
ATOM     19  C   UNL     1      54.356 155.947  24.702  0.00  0.00    +0.120 C 
ATOM     20  C   UNL     1      53.273 156.158  25.548  0.00  0.00    +0.036 C 
ATOM     21  C   UNL     1      53.034 154.997  26.245  0.00  0.00    +0.069 C 
BRANCH  17  22
ATOM     22  N   UNL     1      54.080 152.800  26.275  0.00  0.00    -0.046 NA
ATOM     23  H   UNL     1      53.742 152.781  27.236  0.00  0.00    +0.194 HD
BRANCH  22  24
ATOM     24  O   UNL     1      53.435 151.788  25.605  0.00  0.00    -0.341 OA
BRANCH  24  25
ATOM     25  C   UNL     1      54.117 151.127  24.596  0.00  0.00    +0.439 C 
ATOM     26  O   UNL     1      54.273 149.881  24.605  0.00  0.00    -0.236 OA
ENDBRANCH  24  25
ENDBRANCH  22  24
ENDBRANCH  17  22
ENDBRANCH  16  21
ENDBRANCH  15  16
ENDBRANCH   1  15
TORSDOF 9
ENDMDL
