REMARK  Name = =
REMARK  9 active torsions:
REMARK  status: ('A' for Active; 'I' for Inactive)
REMARK    1  A    between atoms: C_1  and  C_3
REMARK    2  A    between atoms: C_1  and  C_15
REMARK    3  A    between atoms: C_3  and  O_5
REMARK    4  A    between atoms: O_5  and  C_6
REMARK    5  A    between atoms: C_15  and  C_16
REMARK    6  A    between atoms: C_16  and  C_21
REMARK    7  A    between atoms: N_17  and  N_22
REMARK    8  A    between atoms: N_22  and  O_23
REMARK    9  A    between atoms: O_23  and  C_24
REMARK                            x       y       z     vdW  Elec       q    Type
REMARK                         _______ _______ _______ _____ _____    ______ ____
ROOT
ATOM      1  C   UNL     1      53.043 155.681  26.187  0.00  0.00    +0.054 C 
ATOM      2  C   UNL     1      52.440 156.507  25.359  0.00  0.00    +0.002 C 
ENDROOT
BRANCH   1   3
ATOM      3  C   UNL     1      52.827 155.730  27.636  0.00  0.00    +0.338 C 
ATOM      4  O   UNL     1      52.893 154.691  28.339  0.00  0.00    -0.245 OA
BRANCH   3   5
ATOM      5  O   UNL     1      52.544 156.886  28.306  0.00  0.00    -0.437 OA
BRANCH   5   6
ATOM      6  C   UNL     1      51.479 157.219  29.059  0.00  0.00    +0.251 C 
ATOM      7  C   UNL     1      51.469 158.421  29.702  0.00  0.00    +0.058 C 
ATOM      8  C   UNL     1      52.164 159.588  29.941  0.00  0.00    +0.043 C 
ATOM      9  C   UNL     1      51.401 160.383  30.774  0.00  0.00    +0.179 C 
ATOM     10  O   UNL     1      50.295 159.718  31.022  0.00  0.00    -0.454 OA
ATOM     11  C   UNL     1      50.300 158.557  30.406  0.00  0.00    +0.130 C 
ATOM     12  C   UNL     1      49.520 157.496  30.268  0.00  0.00    +0.133 C 
ATOM     13  C   UNL     1      50.229 156.572  29.394  0.00  0.00    +0.202 C 
ATOM     14  O   UNL     1      49.874 155.455  28.997  0.00  0.00    -0.291 OA
ENDBRANCH   5   6
ENDBRANCH   3   5
ENDBRANCH   1   3
BRANCH   1  15
ATOM     15  C   UNL     1      53.967 154.672  25.633  0.00  0.00    +0.039 C 
BRANCH  15  16
ATOM     16  C   UNL     1      53.387 153.930  24.448  0.00  0.00    +0.050 C 
BRANCH  16  21
ATOM     17  N   UNL     1      53.516 151.802  25.839  0.00  0.00    -0.126 N 
ATOM     18  N   UNL     1      53.841 150.525  25.630  0.00  0.00    -0.160 NA
ATOM     19  C   UNL     1      54.185 150.328  24.359  0.00  0.00    +0.120 C 
ATOM     20  C   UNL     1      54.063 151.569  23.744  0.00  0.00    +0.036 C 
ATOM     21  C   UNL     1      53.643 152.480  24.685  0.00  0.00    +0.069 C 
BRANCH  17  22
ATOM     22  N   UNL     1      53.113 152.335  27.056  0.00  0.00    -0.046 NA
ATOM     23  H   UNL     1      53.463 153.292  27.090  0.00  0.00    +0.194 HD
BRANCH  22  24
ATOM     24  O   UNL     1      51.775 152.388  27.365  0.00  0.00    -0.341 OA
BRANCH  24  25
ATOM     25  C   UNL     1      51.189 151.275  27.946  0.00  0.00    +0.439 C 
ATOM     26  O   UNL     1      51.838 150.224  28.172  0.00  0.00    -0.236 OA
ENDBRANCH  24  25
ENDBRANCH  22  24
ENDBRANCH  17  22
ENDBRANCH  16  21
ENDBRANCH  15  16
ENDBRANCH   1  15
TORSDOF 9
