MODEL 1
REMARK VINA RESULT:    -7.368      0.000      0.000
REMARK INTER + INTRA:          -9.835
REMARK INTER:                  -9.522
REMARK INTRA:                  -0.313
REMARK UNBOUND:                -0.313
REMARK  Name = =
REMARK  5 active torsions:
REMARK  status: ('A' for Active; 'I' for Inactive)
REMARK    1  A    between atoms: N_1  and  N_12
REMARK    2  A    between atoms: C_2  and  C_3
REMARK    3  A    between atoms: C_8  and  C_9
REMARK    4  A    between atoms: N_12  and  N_13
REMARK    5  A    between atoms: N_13  and  N_16
REMARK                            x       y       z     vdW  Elec       q    Type
REMARK                         _______ _______ _______ _____ _____    ______ ____
ROOT
ATOM      1  N   UNL     1      52.269 152.396  27.735  0.00  0.00    -0.168 NA
ATOM      2  C   UNL     1      51.593 153.451  27.845  0.00  0.00    +0.122 C 
ENDROOT
BRANCH   2   3
ATOM      3  C   UNL     1      52.002 154.818  27.987  0.00  0.00    +0.058 C 
ATOM      4  C   UNL     1      51.748 155.451  29.229  0.00  0.00    +0.104 C 
ATOM      5  N   UNL     1      52.127 156.729  29.369  0.00  0.00    -0.222 NA
ATOM      6  C   UNL     1      52.730 157.420  28.390  0.00  0.00    +0.199 C 
ATOM      7  N   UNL     1      52.969 156.823  27.219  0.00  0.00    -0.224 NA
ATOM      8  C   UNL     1      52.612 155.506  26.987  0.00  0.00    +0.087 C 
BRANCH   8   9
ATOM      9  C   UNL     1      52.903 154.923  25.697  0.00  0.00    +0.025 C 
ATOM     10  C   UNL     1      54.139 154.499  25.417  0.00  0.00    +0.037 C 
ATOM     11  I   UNL     1      54.545 153.660  23.547  0.00  0.00    -0.042 I 
ENDBRANCH   8   9
ENDBRANCH   2   3
BRANCH   1  12
ATOM     12  N   UNL     1      51.674 151.149  27.606  0.00  0.00    -0.185 N 
ATOM     13  H   UNL     1      51.002 150.839  28.255  0.00  0.00    +0.191 HD
BRANCH  12  14
ATOM     14  N   UNL     1      52.056 150.344  26.526  0.00  0.00    -0.145 NA
ATOM     15  H   UNL     1      51.265 150.250  25.890  0.00  0.00    +0.169 HD
BRANCH  14  18
ATOM     16  C   UNL     1      53.949 150.033  25.008  0.00  0.00    +0.315 C 
ATOM     17  O   UNL     1      53.634 148.813  24.969  0.00  0.00    -0.264 OA
ATOM     18  N   UNL     1      53.139 150.880  25.820  0.00  0.00    -0.226 N 
ATOM     19  H   UNL     1      53.342 151.841  25.885  0.00  0.00    +0.171 HD
ENDBRANCH  14  18
ENDBRANCH  12  14
ENDBRANCH   1  12
TORSDOF 5
ENDMDL
