REMARK  Name = =
REMARK  5 active torsions:
REMARK  status: ('A' for Active; 'I' for Inactive)
REMARK    1  A    between atoms: N_1  and  N_12
REMARK    2  A    between atoms: C_2  and  C_3
REMARK    3  A    between atoms: C_8  and  C_9
REMARK    4  A    between atoms: N_12  and  N_13
REMARK    5  A    between atoms: N_13  and  N_16
REMARK                            x       y       z     vdW  Elec       q    Type
REMARK                         _______ _______ _______ _____ _____    ______ ____
ROOT
ATOM      1  N   UNL     1      53.033 155.007  25.535  0.00  0.00    -0.168 NA
ATOM      2  C   UNL     1      52.896 156.001  26.293  0.00  0.00    +0.122 C 
ENDROOT
BRANCH   2   3
ATOM      3  C   UNL     1      52.374 156.101  27.625  0.00  0.00    +0.058 C 
ATOM      4  C   UNL     1      52.269 157.396  28.191  0.00  0.00    +0.104 C 
ATOM      5  N   UNL     1      51.783 157.497  29.436  0.00  0.00    -0.222 NA
ATOM      6  C   UNL     1      51.398 156.432  30.155  0.00  0.00    +0.199 C 
ATOM      7  N   UNL     1      51.497 155.211  29.621  0.00  0.00    -0.224 NA
ATOM      8  C   UNL     1      51.988 155.014  28.342  0.00  0.00    +0.087 C 
BRANCH   8   9
ATOM      9  C   UNL     1      52.066 153.665  27.827  0.00  0.00    +0.025 C 
ATOM     10  C   UNL     1      51.588 152.645  28.546  0.00  0.00    +0.037 C 
ATOM     11  I   UNL     1      51.709 150.702  27.789  0.00  0.00    -0.042 I 
ENDBRANCH   8   9
ENDBRANCH   2   3
BRANCH   1  12
ATOM     12  N   UNL     1      53.568 155.121  24.259  0.00  0.00    -0.185 N 
ATOM     13  H   UNL     1      52.984 155.205  23.471  0.00  0.00    +0.191 HD
BRANCH  12  14
ATOM     14  N   UNL     1      54.962 155.113  24.125  0.00  0.00    -0.145 NA
ATOM     15  H   UNL     1      55.200 155.329  23.157  0.00  0.00    +0.169 HD
BRANCH  14  18
ATOM     16  C   UNL     1      55.443 157.443  24.694  0.00  0.00    +0.315 C 
ATOM     17  O   UNL     1      54.748 157.763  23.692  0.00  0.00    -0.264 OA
ATOM     18  N   UNL     1      55.582 156.049  24.960  0.00  0.00    -0.226 N 
ATOM     19  H   UNL     1      56.114 155.745  25.731  0.00  0.00    +0.171 HD
ENDBRANCH  14  18
ENDBRANCH  12  14
ENDBRANCH   1  12
TORSDOF 5
