MODEL 1
REMARK VINA RESULT:    -7.291      0.000      0.000
REMARK INTER + INTRA:         -13.377
REMARK INTER:                 -10.488
REMARK INTRA:                  -2.889
REMARK UNBOUND:                -2.889
REMARK  Name = =
REMARK  8 active torsions:
REMARK  status: ('A' for Active; 'I' for Inactive)
REMARK    1  A    between atoms: C_1  and  C_15
REMARK    2  A    between atoms: N_3  and  S_28
REMARK    3  A    between atoms: N_3  and  N_37
REMARK    4  A    between atoms: C_4  and  C_18
REMARK    5  A    between atoms: S_28  and  C_31
REMARK    6  A    between atoms: N_37  and  N_43
REMARK    7  A    between atoms: C_38  and  C_40
REMARK    8  A    between atoms: C_44  and  O_46
REMARK                            x       y       z     vdW  Elec       q    Type
REMARK                         _______ _______ _______ _____ _____    ______ ____
ROOT
ATOM      1  C   UNL     1      60.363 162.747  41.851  0.00  0.00    +0.164 C 
ATOM      2  N   UNL     1      59.845 162.736  43.024  0.00  0.00    -0.282 NA
ATOM      3  N   UNL     1      60.934 161.453  41.493  0.00  0.00    -0.079 N 
ATOM      4  H   UNL     1      59.426 163.551  43.384  0.00  0.00    +0.188 HD
ENDROOT
BRANCH   1  16
ATOM      5  C   UNL     1      60.682 165.988  39.074  0.00  0.00    +0.021 C 
ATOM      6  C   UNL     1      59.546 165.827  39.860  0.00  0.00    +0.001 C 
ATOM      7  C   UNL     1      59.418 164.774  40.777  0.00  0.00    +0.003 C 
ATOM      8  C   UNL     1      58.252 164.707  41.526  0.00  0.00    -0.002 C 
ATOM      9  C   UNL     1      57.217 165.611  41.426  0.00  0.00    +0.003 C 
ATOM     10  C   UNL     1      57.345 166.629  40.538  0.00  0.00    -0.021 C 
ATOM     11  C   UNL     1      58.511 166.724  39.765  0.00  0.00    -0.004 C 
ATOM     12  C   UNL     1      56.242 167.620  40.406  0.00  0.00    +0.058 C 
ATOM     13  C   UNL     1      55.379 167.517  41.636  0.00  0.00    +0.147 C 
ATOM     14  O   UNL     1      54.948 166.186  41.737  0.00  0.00    -0.349 OA
ATOM     15  C   UNL     1      55.997 165.445  42.288  0.00  0.00    +0.168 C 
ATOM     16  C   UNL     1      60.419 163.850  40.941  0.00  0.00    +0.034 C 
ATOM     17  C   UNL     1      61.539 164.005  40.171  0.00  0.00    +0.003 C 
ATOM     18  C   UNL     1      61.684 165.048  39.250  0.00  0.00    +0.002 C 
BRANCH   5  19
ATOM     19  C   UNL     1      60.795 167.018  38.042  0.00  0.00    +0.120 C 
ATOM     20  N   UNL     1      61.327 168.224  38.239  0.00  0.00    -0.146 NA
ATOM     21  N   UNL     1      61.494 169.163  37.345  0.00  0.00    -0.146 NA
ATOM     22  C   UNL     1      61.115 168.971  36.073  0.00  0.00    +0.125 C 
ATOM     23  C   UNL     1      60.550 167.745  35.776  0.00  0.00    +0.059 C 
ATOM     24  C   UNL     1      60.381 166.746  36.756  0.00  0.00    +0.105 C 
ATOM     25  N   UNL     1      59.846 165.620  36.319  0.00  0.00    -0.222 NA
ATOM     26  C   UNL     1      59.456 165.327  35.078  0.00  0.00    +0.199 C 
ATOM     27  N   UNL     1      59.618 166.286  34.136  0.00  0.00    -0.222 NA
ATOM     28  C   UNL     1      60.156 167.471  34.486  0.00  0.00    +0.104 C 
ENDBRANCH   5  19
ENDBRANCH   1  16
BRANCH   3  29
ATOM     29  S   UNL     1      62.588 161.180  41.882  0.00  0.00    +0.094 S 
ATOM     30  O   UNL     1      63.087 162.247  42.849  0.00  0.00    -0.148 OA
ATOM     31  O   UNL     1      62.750 159.874  42.645  0.00  0.00    -0.148 OA
BRANCH  29  32
ATOM     32  C   UNL     1      63.650 161.227  40.504  0.00  0.00    +0.127 C 
ATOM     33  C   UNL     1      64.598 162.245  40.366  0.00  0.00    +0.020 C 
ATOM     34  C   UNL     1      65.441 162.296  39.287  0.00  0.00    +0.001 C 
ATOM     35  C   UNL     1      65.395 161.360  38.299  0.00  0.00    +0.000 C 
ATOM     36  C   UNL     1      64.471 160.338  38.399  0.00  0.00    +0.001 C 
ATOM     37  C   UNL     1      63.629 160.296  39.490  0.00  0.00    +0.020 C 
ENDBRANCH  29  32
ENDBRANCH   3  29
BRANCH   3  38
ATOM     38  N   UNL     1      60.144 160.483  40.897  0.00  0.00    -0.099 N 
ATOM     39  C   UNL     1      59.939 160.417  39.488  0.00  0.00    +0.336 C 
ATOM     40  O   UNL     1      60.504 161.282  38.781  0.00  0.00    -0.262 OA
BRANCH  39  41
ATOM     41  C   UNL     1      59.124 159.416  38.830  0.00  0.00    +0.300 C 
ATOM     42  O   UNL     1      59.268 158.186  39.086  0.00  0.00    -0.265 OA
ATOM     43  N   UNL     1      58.132 159.767  37.876  0.00  0.00    -0.321 N 
ATOM     44  H   UNL     1      57.984 160.712  37.645  0.00  0.00    +0.145 HD
ATOM     45  H   UNL     1      57.593 159.065  37.446  0.00  0.00    +0.145 HD
ENDBRANCH  39  41
BRANCH  38  46
ATOM     46  N   UNL     1      59.509 159.516  41.663  0.00  0.00    -0.178 N 
ATOM     47  C   UNL     1      58.224 159.699  42.234  0.00  0.00    +0.416 C 
ATOM     48  O   UNL     1      57.616 160.788  42.049  0.00  0.00    -0.225 OA
ATOM     49  H   UNL     1      59.973 158.662  41.817  0.00  0.00    +0.178 HD
BRANCH  47  50
ATOM     50  O   UNL     1      57.574 158.745  43.002  0.00  0.00    -0.465 OA
ATOM     51  H   UNL     1      58.065 158.062  43.413  0.00  0.00    +0.297 HD
ENDBRANCH  47  50
ENDBRANCH  38  46
ENDBRANCH   3  38
TORSDOF 8
ENDMDL
