REMARK  Name = =
REMARK  8 active torsions:
REMARK  status: ('A' for Active; 'I' for Inactive)
REMARK    1  A    between atoms: C_1  and  C_15
REMARK    2  A    between atoms: N_3  and  S_28
REMARK    3  A    between atoms: N_3  and  N_37
REMARK    4  A    between atoms: C_4  and  C_18
REMARK    5  A    between atoms: S_28  and  C_31
REMARK    6  A    between atoms: N_37  and  N_43
REMARK    7  A    between atoms: C_38  and  C_40
REMARK    8  A    between atoms: C_44  and  O_46
REMARK                            x       y       z     vdW  Elec       q    Type
REMARK                         _______ _______ _______ _____ _____    ______ ____
ROOT
ATOM      1  C   UNL     1      60.639 166.076  40.082  0.00  0.00    +0.164 C 
ATOM      2  N   UNL     1      60.596 167.338  40.303  0.00  0.00    -0.282 NA
ATOM      3  N   UNL     1      61.879 165.677  39.424  0.00  0.00    -0.079 N 
ATOM      4  H   UNL     1      59.809 167.734  40.743  0.00  0.00    +0.188 HD
ENDROOT
BRANCH   1  16
ATOM      5  C   UNL     1      57.763 163.057  41.049  0.00  0.00    +0.021 C 
ATOM      6  C   UNL     1      57.396 164.396  40.965  0.00  0.00    +0.001 C 
ATOM      7  C   UNL     1      58.320 165.403  40.650  0.00  0.00    +0.003 C 
ATOM      8  C   UNL     1      57.853 166.708  40.576  0.00  0.00    -0.002 C 
ATOM      9  C   UNL     1      56.542 167.073  40.790  0.00  0.00    +0.003 C 
ATOM     10  C   UNL     1      55.651 166.095  41.095  0.00  0.00    -0.021 C 
ATOM     11  C   UNL     1      56.091 164.766  41.178  0.00  0.00    -0.004 C 
ATOM     12  C   UNL     1      54.228 166.459  41.334  0.00  0.00    +0.058 C 
ATOM     13  C   UNL     1      53.995 167.826  40.744  0.00  0.00    +0.147 C 
ATOM     14  O   UNL     1      54.920 168.700  41.333  0.00  0.00    -0.349 OA
ATOM     15  C   UNL     1      56.144 168.518  40.684  0.00  0.00    +0.168 C 
ATOM     16  C   UNL     1      59.637 165.107  40.406  0.00  0.00    +0.034 C 
ATOM     17  C   UNL     1      60.002 163.791  40.485  0.00  0.00    +0.003 C 
ATOM     18  C   UNL     1      59.096 162.773  40.800  0.00  0.00    +0.002 C 
BRANCH   5  19
ATOM     19  C   UNL     1      56.840 162.005  41.473  0.00  0.00    +0.120 C 
ATOM     20  N   UNL     1      55.527 162.173  41.627  0.00  0.00    -0.146 NA
ATOM     21  N   UNL     1      54.653 161.260  41.959  0.00  0.00    -0.146 NA
ATOM     22  C   UNL     1      55.038 159.996  42.186  0.00  0.00    +0.125 C 
ATOM     23  C   UNL     1      56.387 159.728  42.050  0.00  0.00    +0.059 C 
ATOM     24  C   UNL     1      57.312 160.728  41.690  0.00  0.00    +0.105 C 
ATOM     25  N   UNL     1      58.563 160.318  41.579  0.00  0.00    -0.222 NA
ATOM     26  C   UNL     1      59.040 159.087  41.765  0.00  0.00    +0.199 C 
ATOM     27  N   UNL     1      58.152 158.125  42.111  0.00  0.00    -0.222 NA
ATOM     28  C   UNL     1      56.851 158.447  42.249  0.00  0.00    +0.104 C 
ENDBRANCH   5  19
ENDBRANCH   1  16
BRANCH   3  29
ATOM     29  S   UNL     1      61.896 165.664  37.703  0.00  0.00    +0.094 S 
ATOM     30  O   UNL     1      61.477 167.025  37.160  0.00  0.00    -0.148 OA
ATOM     31  O   UNL     1      63.313 165.470  37.184  0.00  0.00    -0.148 OA
BRANCH  29  32
ATOM     32  C   UNL     1      60.814 164.497  37.000  0.00  0.00    +0.127 C 
ATOM     33  C   UNL     1      59.758 164.904  36.179  0.00  0.00    +0.020 C 
ATOM     34  C   UNL     1      58.897 163.997  35.618  0.00  0.00    +0.001 C 
ATOM     35  C   UNL     1      59.029 162.659  35.833  0.00  0.00    +0.000 C 
ATOM     36  C   UNL     1      60.060 162.217  36.639  0.00  0.00    +0.001 C 
ATOM     37  C   UNL     1      60.921 163.138  37.197  0.00  0.00    +0.020 C 
ENDBRANCH  29  32
ENDBRANCH   3  29
BRANCH   3  38
ATOM     38  N   UNL     1      62.998 165.362  40.178  0.00  0.00    -0.099 N 
ATOM     39  C   UNL     1      64.055 166.290  40.409  0.00  0.00    +0.336 C 
ATOM     40  O   UNL     1      63.948 167.428  39.898  0.00  0.00    -0.262 OA
BRANCH  39  41
ATOM     41  C   UNL     1      65.237 165.998  41.194  0.00  0.00    +0.300 C 
ATOM     42  O   UNL     1      65.281 164.991  41.958  0.00  0.00    -0.265 OA
ATOM     43  N   UNL     1      66.393 166.821  41.142  0.00  0.00    -0.321 N 
ATOM     44  H   UNL     1      66.406 167.616  40.562  0.00  0.00    +0.145 HD
ATOM     45  H   UNL     1      67.182 166.597  41.686  0.00  0.00    +0.145 HD
ENDBRANCH  39  41
BRANCH  38  46
ATOM     46  N   UNL     1      63.137 164.107  40.752  0.00  0.00    -0.178 N 
ATOM     47  C   UNL     1      63.623 162.979  40.043  0.00  0.00    +0.416 C 
ATOM     48  O   UNL     1      63.947 163.105  38.831  0.00  0.00    -0.225 OA
ATOM     49  H   UNL     1      62.886 163.994  41.697  0.00  0.00    +0.178 HD
BRANCH  47  50
ATOM     50  O   UNL     1      63.768 161.718  40.599  0.00  0.00    -0.465 OA
ATOM     51  H   UNL     1      63.541 161.573  41.496  0.00  0.00    +0.297 HD
ENDBRANCH  47  50
ENDBRANCH  38  46
ENDBRANCH   3  38
TORSDOF 8
