REMARK  Name = =
REMARK  8 active torsions:
REMARK  status: ('A' for Active; 'I' for Inactive)
REMARK    1  A    between atoms: S_1  and  N_27
REMARK    2  A    between atoms: C_2  and  C_7
REMARK    3  A    between atoms: C_9  and  C_12
REMARK    4  A    between atoms: N_14  and  N_15
REMARK    5  A    between atoms: N_27  and  N_28
REMARK    6  A    between atoms: C_29  and  C_31
REMARK    7  A    between atoms: C_32  and  O_38
REMARK    8  A    between atoms: C_33  and  O_37
REMARK                            x       y       z     vdW  Elec       q    Type
REMARK                         _______ _______ _______ _____ _____    ______ ____
ROOT
ATOM      1  S   UNL     1     -10.043 -44.475  28.595  0.00  0.00    -0.141 S 
ATOM      2  C   UNL     1     -11.245 -43.456  29.012  0.00  0.00    +0.073 C 
ATOM      3  C   UNL     1     -10.807 -42.040  29.306  0.00  0.00    +0.015 C 
ATOM      4  C   UNL     1      -9.757 -41.594  28.342  0.00  0.00    +0.002 C 
ATOM      5  C   UNL     1      -8.475 -42.299  28.751  0.00  0.00    +0.011 C 
ATOM      6  C   UNL     1      -8.536 -43.749  28.244  0.00  0.00    +0.053 C 
ATOM      7  H   UNL     1     -10.510 -44.953  27.411  0.00  0.00    +0.102 HD
ENDROOT
BRANCH   2   8
ATOM      8  C   UNL     1     -12.384 -43.337  28.027  0.00  0.00    +0.037 C 
ATOM      9  S   UNL     1     -12.841 -41.894  27.096  0.00  0.00    -0.065 S 
ATOM     10  C   UNL     1     -14.271 -42.792  26.237  0.00  0.00    +0.165 C 
ATOM     11  N   UNL     1     -14.159 -43.835  26.726  0.00  0.00    -0.232 NA
ATOM     12  C   UNL     1     -13.291 -44.249  27.611  0.00  0.00    +0.103 C 
BRANCH  10  13
ATOM     13  C   UNL     1     -15.074 -42.007  25.256  0.00  0.00    +0.287 C 
ATOM     14  O   UNL     1     -14.523 -41.270  24.414  0.00  0.00    -0.266 OA
ATOM     15  N   UNL     1     -16.473 -42.109  25.284  0.00  0.00    -0.206 N 
ATOM     16  H   UNL     1     -16.849 -42.706  25.970  0.00  0.00    +0.175 HD
BRANCH  15  17
ATOM     17  N   UNL     1     -17.390 -41.471  24.463  0.00  0.00    -0.078 N 
ATOM     18  S   UNL     1     -19.083 -41.388  24.905  0.00  0.00    +0.094 S 
ATOM     19  O   UNL     1     -19.275 -40.499  26.087  0.00  0.00    -0.148 OA
ATOM     20  O   UNL     1     -19.643 -42.755  25.097  0.00  0.00    -0.148 OA
ATOM     21  C   UNL     1     -19.641 -40.614  23.444  0.00  0.00    +0.132 C 
ATOM     22  C   UNL     1     -18.546 -40.362  22.686  0.00  0.00    +0.076 C 
ATOM     23  C   UNL     1     -18.781 -39.717  21.469  0.00  0.00    +0.006 C 
ATOM     24  C   UNL     1     -20.051 -39.362  21.065  0.00  0.00    +0.000 C 
ATOM     25  C   UNL     1     -21.161 -39.625  21.843  0.00  0.00    +0.001 C 
ATOM     26  C   UNL     1     -20.921 -40.260  23.042  0.00  0.00    +0.020 C 
ATOM     27  C   UNL     1     -17.298 -40.831  23.240  0.00  0.00    +0.285 C 
ATOM     28  O   UNL     1     -16.174 -40.667  22.634  0.00  0.00    -0.267 OA
ENDBRANCH  15  17
ENDBRANCH  10  13
ENDBRANCH   2   8
BRANCH   1  29
ATOM     29  N   UNL     1      -9.813 -46.019  29.799  0.00  0.00    -0.094 NA
BRANCH  29  30
ATOM     30  N   UNL     1      -9.099 -45.375  30.825  0.00  0.00    -0.220 N 
ATOM     31  C   UNL     1      -9.587 -44.160  31.374  0.00  0.00    +0.264 C 
ATOM     32  O   UNL     1     -10.675 -43.680  30.920  0.00  0.00    -0.269 OA
ATOM     33  H   UNL     1      -8.261 -45.766  31.163  0.00  0.00    +0.172 HD
BRANCH  31  34
ATOM     34  C   UNL     1      -8.877 -43.463  32.433  0.00  0.00    +0.091 C 
ATOM     35  C   UNL     1      -9.617 -42.694  33.339  0.00  0.00    +0.172 C 
ATOM     36  C   UNL     1      -9.037 -42.007  34.360  0.00  0.00    +0.168 C 
ATOM     37  C   UNL     1      -7.660 -42.083  34.493  0.00  0.00    +0.040 C 
ATOM     38  C   UNL     1      -6.901 -42.835  33.613  0.00  0.00    +0.003 C 
ATOM     39  C   UNL     1      -7.522 -43.523  32.585  0.00  0.00    +0.008 C 
BRANCH  36  40
ATOM     40  O   UNL     1      -9.822 -41.266  35.220  0.00  0.00    -0.503 OA
ATOM     41  H   UNL     1     -10.751 -41.238  35.100  0.00  0.00    +0.292 HD
ENDBRANCH  36  40
BRANCH  35  42
ATOM     42  O   UNL     1     -10.987 -42.644  33.171  0.00  0.00    -0.503 OA
ATOM     43  H   UNL     1     -11.390 -43.116  32.469  0.00  0.00    +0.292 HD
ENDBRANCH  35  42
ENDBRANCH  31  34
ENDBRANCH  29  30
ENDBRANCH   1  29
TORSDOF 8
