MODEL 1
REMARK VINA RESULT:    -9.355      0.000      0.000
REMARK INTER + INTRA:         -14.922
REMARK INTER:                 -14.004
REMARK INTRA:                  -0.918
REMARK UNBOUND:                -0.918
REMARK  Name = =
REMARK  9 active torsions:
REMARK  status: ('A' for Active; 'I' for Inactive)
REMARK    1  A    between atoms: C_12  and  O_38
REMARK    2  A    between atoms: C_15  and  C_27
REMARK    3  A    between atoms: C_19  and  C_34
REMARK    4  A    between atoms: C_19  and  O_41
REMARK    5  A    between atoms: N_29  and  N_30
REMARK    6  A    between atoms: N_30  and  S_31
REMARK    7  A    between atoms: N_36  and  N_37
REMARK    8  A    between atoms: O_38  and  C_39
REMARK    9  A    between atoms: O_41  and  N_42
REMARK                            x       y       z     vdW  Elec       q    Type
REMARK                         _______ _______ _______ _____ _____    ______ ____
ROOT
ATOM      1  C   UNL     1       1.960  -6.314  26.425  0.00  0.00    +0.076 C 
ATOM      2  C   UNL     1       2.432  -7.583  26.683  0.00  0.00    +0.095 C 
ATOM      3  C   UNL     1       2.536  -8.151  28.013  0.00  0.00    +0.016 C 
ATOM      4  C   UNL     1       2.179  -7.369  29.052  0.00  0.00    -0.025 C 
ATOM      5  C   UNL     1       1.741  -6.006  28.788  0.00  0.00    +0.027 C 
ATOM      6  C   UNL     1       1.058  -5.774  27.507  0.00  0.00    +0.041 C 
ATOM      7  C   UNL     1      -0.263  -6.535  27.381  0.00  0.00    +0.006 C 
ATOM      8  C   UNL     1      -1.054  -6.615  28.630  0.00  0.00    +0.008 C 
ATOM      9  C   UNL     1      -1.560  -8.005  28.996  0.00  0.00    +0.069 C 
ATOM     10  C   UNL     1      -2.397  -7.937  30.236  0.00  0.00    +0.195 C 
ATOM     11  O   UNL     1      -2.479  -8.976  30.863  0.00  0.00    -0.292 OA
ATOM     12  C   UNL     1      -3.094  -6.661  30.686  0.00  0.00    +0.248 C 
ATOM     13  C   UNL     1      -2.288  -5.842  31.599  0.00  0.00    +0.024 C 
ATOM     14  C   UNL     1      -2.048  -4.424  31.392  0.00  0.00    +0.026 C 
ATOM     15  C   UNL     1      -2.784  -3.671  30.319  0.00  0.00    +0.267 C 
ATOM     16  O   UNL     1      -2.000  -2.585  29.928  0.00  0.00    -0.435 OA
ATOM     17  C   UNL     1      -1.682  -1.963  28.792  0.00  0.00    +0.366 C 
ATOM     18  O   UNL     1      -2.371  -1.022  28.240  0.00  0.00    -0.246 OA
ATOM     19  C   UNL     1      -0.447  -2.280  27.990  0.00  0.00    +0.319 C 
ATOM     20  C   UNL     1      -0.415  -3.795  27.872  0.00  0.00    +0.064 C 
ATOM     21  C   UNL     1       0.947  -4.351  27.722  0.00  0.00    +0.011 C 
ATOM     22  C   UNL     1       1.530  -4.743  29.065  0.00  0.00    +0.005 C 
ATOM     23  N   UNL     1       3.046  -8.229  25.631  0.00  0.00    -0.241 NA
ATOM     24  C   UNL     1       3.171  -7.633  24.440  0.00  0.00    +0.119 C 
ATOM     25  C   UNL     1       2.692  -6.374  24.249  0.00  0.00    +0.119 C 
ATOM     26  N   UNL     1       2.073  -5.694  25.257  0.00  0.00    -0.245 NA
ENDROOT
BRANCH  15  27
ATOM     27  C   UNL     1      -4.058  -3.121  30.924  0.00  0.00    +0.281 C 
ATOM     28  O   UNL     1      -5.174  -3.651  30.719  0.00  0.00    -0.269 OA
ATOM     29  N   UNL     1      -3.996  -1.973  31.747  0.00  0.00    -0.229 N 
ATOM     30  H   UNL     1      -3.131  -1.539  31.925  0.00  0.00    +0.171 HD
BRANCH  29  31
ATOM     31  N   UNL     1      -5.190  -1.448  32.318  0.00  0.00    -0.115 NA
ATOM     32  H   UNL     1      -5.107  -1.422  33.334  0.00  0.00    +0.171 HD
BRANCH  31  33
ATOM     33  S   UNL     1      -5.409   0.138  31.710  0.00  0.00    +0.034 S 
ATOM     34  O   UNL     1      -6.800   0.302  31.184  0.00  0.00    -0.160 OA
ATOM     35  O   UNL     1      -4.418   0.333  30.576  0.00  0.00    -0.160 OA
ATOM     36  H   UNL     1      -5.209   1.053  32.696  0.00  0.00    +0.231 HD
ENDBRANCH  31  33
ENDBRANCH  29  31
ENDBRANCH  15  27
BRANCH  19  37
ATOM     37  C   UNL     1      -0.412  -1.611  26.698  0.00  0.00    +0.285 C 
ATOM     38  O   UNL     1       0.437  -0.739  26.368  0.00  0.00    -0.269 OA
ATOM     39  N   UNL     1      -1.392  -1.942  25.722  0.00  0.00    -0.250 N 
ATOM     40  H   UNL     1      -2.075  -2.616  25.941  0.00  0.00    +0.169 HD
BRANCH  39  41
ATOM     41  N   UNL     1      -1.415  -1.337  24.454  0.00  0.00    -0.254 NA
ATOM     42  H   UNL     1      -1.995  -1.891  23.824  0.00  0.00    +0.140 HD
ATOM     43  H   UNL     1      -0.465  -1.285  24.086  0.00  0.00    +0.140 HD
ENDBRANCH  39  41
ENDBRANCH  19  37
BRANCH  12  44
ATOM     44  O   UNL     1      -4.243  -7.160  31.404  0.00  0.00    -0.432 OA
BRANCH  44  45
ATOM     45  C   UNL     1      -4.381  -6.928  32.760  0.00  0.00    +0.419 C 
ATOM     46  O   UNL     1      -4.090  -7.796  33.626  0.00  0.00    -0.238 OA
ENDBRANCH  44  45
ENDBRANCH  12  44
BRANCH  19  47
ATOM     47  O   UNL     1       0.652  -1.935  28.803  0.00  0.00    -0.334 OA
BRANCH  47  48
ATOM     48  N   UNL     1       1.517  -0.924  28.546  0.00  0.00    +0.157 NA
ATOM     49  O   UNL     1       2.744  -1.014  28.649  0.00  0.00    -0.105 OA
ENDBRANCH  47  48
ENDBRANCH  19  47
TORSDOF 9
ENDMDL
