REMARK  Name = =
REMARK  9 active torsions:
REMARK  status: ('A' for Active; 'I' for Inactive)
REMARK    1  A    between atoms: C_12  and  O_38
REMARK    2  A    between atoms: C_15  and  C_27
REMARK    3  A    between atoms: C_19  and  C_34
REMARK    4  A    between atoms: C_19  and  O_41
REMARK    5  A    between atoms: N_29  and  N_30
REMARK    6  A    between atoms: N_30  and  S_31
REMARK    7  A    between atoms: N_36  and  N_37
REMARK    8  A    between atoms: O_38  and  C_39
REMARK    9  A    between atoms: O_41  and  N_42
REMARK                            x       y       z     vdW  Elec       q    Type
REMARK                         _______ _______ _______ _____ _____    ______ ____
ROOT
ATOM      1  C   UNL     1       0.232  -5.439  29.025  0.00  0.00    +0.076 C 
ATOM      2  C   UNL     1      -0.446  -4.424  29.664  0.00  0.00    +0.095 C 
ATOM      3  C   UNL     1       0.137  -3.132  29.971  0.00  0.00    +0.016 C 
ATOM      4  C   UNL     1       1.429  -2.939  29.636  0.00  0.00    -0.025 C 
ATOM      5  C   UNL     1       2.167  -4.031  29.019  0.00  0.00    +0.027 C 
ATOM      6  C   UNL     1       1.388  -4.958  28.184  0.00  0.00    +0.041 C 
ATOM      7  C   UNL     1       0.773  -4.289  26.954  0.00  0.00    +0.006 C 
ATOM      8  C   UNL     1       1.627  -3.265  26.312  0.00  0.00    +0.008 C 
ATOM      9  C   UNL     1       0.943  -1.937  26.010  0.00  0.00    +0.069 C 
ATOM     10  C   UNL     1       1.893  -1.019  25.305  0.00  0.00    +0.195 C 
ATOM     11  O   UNL     1       1.640   0.167  25.409  0.00  0.00    -0.292 OA
ATOM     12  C   UNL     1       3.091  -1.526  24.516  0.00  0.00    +0.248 C 
ATOM     13  C   UNL     1       4.320  -1.625  25.313  0.00  0.00    +0.024 C 
ATOM     14  C   UNL     1       5.139  -2.824  25.365  0.00  0.00    +0.026 C 
ATOM     15  C   UNL     1       4.868  -3.977  24.440  0.00  0.00    +0.267 C 
ATOM     16  O   UNL     1       5.327  -5.146  25.048  0.00  0.00    -0.435 OA
ATOM     17  C   UNL     1       4.924  -6.411  25.172  0.00  0.00    +0.366 C 
ATOM     18  O   UNL     1       5.162  -7.356  24.326  0.00  0.00    -0.246 OA
ATOM     19  C   UNL     1       4.125  -6.916  26.345  0.00  0.00    +0.319 C 
ATOM     20  C   UNL     1       3.004  -5.909  26.539  0.00  0.00    +0.064 C 
ATOM     21  C   UNL     1       2.517  -5.821  27.933  0.00  0.00    +0.011 C 
ATOM     22  C   UNL     1       3.232  -4.722  28.694  0.00  0.00    +0.005 C 
ATOM     23  N   UNL     1      -1.654  -4.764  30.235  0.00  0.00    -0.241 NA
ATOM     24  C   UNL     1      -2.115  -6.018  30.166  0.00  0.00    +0.119 C 
ATOM     25  C   UNL     1      -1.396  -6.980  29.528  0.00  0.00    +0.119 C 
ATOM     26  N   UNL     1      -0.197  -6.693  28.943  0.00  0.00    -0.245 NA
ENDROOT
BRANCH  15  27
ATOM     27  C   UNL     1       5.682  -3.768  23.181  0.00  0.00    +0.281 C 
ATOM     28  O   UNL     1       5.939  -2.625  22.737  0.00  0.00    -0.269 OA
ATOM     29  N   UNL     1       6.173  -4.891  22.477  0.00  0.00    -0.229 N 
ATOM     30  H   UNL     1       5.987  -5.800  22.806  0.00  0.00    +0.171 HD
BRANCH  29  31
ATOM     31  N   UNL     1       6.938  -4.703  21.291  0.00  0.00    -0.115 NA
ATOM     32  H   UNL     1       7.774  -4.157  21.500  0.00  0.00    +0.171 HD
BRANCH  31  33
ATOM     33  S   UNL     1       7.384  -6.249  20.704  0.00  0.00    +0.034 S 
ATOM     34  O   UNL     1       7.984  -7.065  21.806  0.00  0.00    -0.160 OA
ATOM     35  O   UNL     1       8.418  -6.042  19.613  0.00  0.00    -0.160 OA
ATOM     36  H   UNL     1       6.293  -6.905  20.226  0.00  0.00    +0.231 HD
ENDBRANCH  31  33
ENDBRANCH  29  31
ENDBRANCH  15  27
BRANCH  19  37
ATOM     37  C   UNL     1       3.639  -8.277  26.168  0.00  0.00    +0.285 C 
ATOM     38  O   UNL     1       2.467  -8.576  25.812  0.00  0.00    -0.269 OA
ATOM     39  N   UNL     1       4.525  -9.363  26.408  0.00  0.00    -0.250 N 
ATOM     40  H   UNL     1       5.448  -9.172  26.691  0.00  0.00    +0.169 HD
BRANCH  39  41
ATOM     41  N   UNL     1       4.123 -10.700  26.254  0.00  0.00    -0.254 NA
ATOM     42  H   UNL     1       3.147 -10.730  25.959  0.00  0.00    +0.140 HD
ATOM     43  H   UNL     1       4.225 -11.190  27.143  0.00  0.00    +0.140 HD
ENDBRANCH  39  41
ENDBRANCH  19  37
BRANCH  12  44
ATOM     44  O   UNL     1       3.271  -0.503  23.513  0.00  0.00    -0.432 OA
BRANCH  44  45
ATOM     45  C   UNL     1       2.655  -0.611  22.279  0.00  0.00    +0.419 C 
ATOM     46  O   UNL     1       1.938  -1.599  21.967  0.00  0.00    -0.238 OA
ENDBRANCH  44  45
ENDBRANCH  12  44
BRANCH  19  47
ATOM     47  O   UNL     1       4.957  -6.787  27.476  0.00  0.00    -0.334 OA
BRANCH  47  48
ATOM     48  N   UNL     1       6.165  -7.383  27.621  0.00  0.00    +0.157 NA
ATOM     49  O   UNL     1       7.248  -6.802  27.505  0.00  0.00    -0.105 OA
ENDBRANCH  47  48
ENDBRANCH  19  47
TORSDOF 9
