REMARK  Name = =
REMARK  0 active torsions:
REMARK  status: ('A' for Active; 'I' for Inactive)
REMARK                            x       y       z     vdW  Elec       q    Type
REMARK                         _______ _______ _______ _____ _____    ______ ____
ROOT
ATOM      1  N   UNL     1      52.226 156.515  27.526  0.00  0.00    -0.278 N 
ATOM      2  C   UNL     1      53.228 156.363  26.541  0.00  0.00    +0.083 C 
ATOM      3  C   UNL     1      53.559 155.233  25.826  0.00  0.00    +0.155 C 
ATOM      4  N   UNL     1      54.531 155.244  24.915  0.00  0.00    -0.227 NA
ATOM      5  C   UNL     1      55.200 156.390  24.693  0.00  0.00    +0.100 C 
ATOM      6  C   UNL     1      54.912 157.548  25.377  0.00  0.00    +0.022 C 
ATOM      7  C   UNL     1      53.915 157.534  26.311  0.00  0.00    +0.019 C 
ATOM      8  N   UNL     1      52.972 153.917  25.894  0.00  0.00    -0.214 N 
ATOM      9  C   UNL     1      52.429 153.358  27.095  0.00  0.00    +0.064 C 
ATOM     10  C   UNL     1      51.745 154.046  28.084  0.00  0.00    +0.068 C 
ATOM     11  C   UNL     1      51.268 153.353  29.154  0.00  0.00    +0.006 C 
ATOM     12  C   UNL     1      51.477 151.972  29.235  0.00  0.00    +0.000 C 
ATOM     13  C   UNL     1      52.162 151.314  28.238  0.00  0.00    +0.001 C 
ATOM     14  C   UNL     1      52.651 152.003  27.149  0.00  0.00    +0.015 C 
ATOM     15  C   UNL     1      51.470 155.495  28.174  0.00  0.00    +0.251 C 
ATOM     16  O   UNL     1      50.501 155.819  28.877  0.00  0.00    -0.270 OA
ATOM     17  C   UNL     1      52.932 153.149  24.735  0.00  0.00    +0.312 C 
ATOM     18  O   UNL     1      52.408 152.050  24.595  0.00  0.00    -0.264 OA
ATOM     19  H   UNL     1      52.025 157.440  27.798  0.00  0.00    +0.155 HD
ENDROOT
TORSDOF 0
