REMARK  Name = =
REMARK  0 active torsions:
REMARK  status: ('A' for Active; 'I' for Inactive)
REMARK                            x       y       z     vdW  Elec       q    Type
REMARK                         _______ _______ _______ _____ _____    ______ ____
ROOT
ATOM      1  N   UNL     1      52.879 157.035  27.890  0.00  0.00    -0.009 NA
ATOM      2  N   UNL     1      53.090 155.809  27.264  0.00  0.00    -0.161 N 
ATOM      3  C   UNL     1      53.800 155.878  26.015  0.00  0.00    +0.105 C 
ATOM      4  C   UNL     1      54.310 154.805  25.319  0.00  0.00    +0.157 C 
ATOM      5  N   UNL     1      54.952 155.006  24.173  0.00  0.00    -0.227 NA
ATOM      6  C   UNL     1      55.095 156.273  23.711  0.00  0.00    +0.100 C 
ATOM      7  C   UNL     1      54.608 157.369  24.365  0.00  0.00    +0.022 C 
ATOM      8  C   UNL     1      53.935 157.179  25.561  0.00  0.00    +0.021 C 
ATOM      9  N   UNL     1      54.261 153.397  25.648  0.00  0.00    -0.214 N 
ATOM     10  C   UNL     1      53.272 152.727  26.408  0.00  0.00    +0.064 C 
ATOM     11  C   UNL     1      52.525 153.284  27.444  0.00  0.00    +0.069 C 
ATOM     12  C   UNL     1      51.618 152.477  28.070  0.00  0.00    +0.006 C 
ATOM     13  C   UNL     1      51.426 151.147  27.704  0.00  0.00    +0.000 C 
ATOM     14  C   UNL     1      52.164 150.598  26.679  0.00  0.00    +0.001 C 
ATOM     15  C   UNL     1      53.087 151.414  26.039  0.00  0.00    +0.015 C 
ATOM     16  C   UNL     1      52.568 154.654  27.955  0.00  0.00    +0.270 C 
ATOM     17  O   UNL     1      52.103 154.808  29.093  0.00  0.00    -0.268 OA
ATOM     18  C   UNL     1      55.304 152.592  25.165  0.00  0.00    +0.312 C 
ATOM     19  O   UNL     1      56.188 153.152  24.447  0.00  0.00    -0.264 OA
ENDROOT
TORSDOF 0
