REMARK  Name = =
REMARK  2 active torsions:
REMARK  status: ('A' for Active; 'I' for Inactive)
REMARK    1  A    between atoms: N_1  and  N_19
REMARK    2  A    between atoms: N_19  and  C_21
REMARK                            x       y       z     vdW  Elec       q    Type
REMARK                         _______ _______ _______ _____ _____    ______ ____
ROOT
ATOM      1  N   UNL     1      52.250 155.475  26.948  0.00  0.00    -0.161 N 
ATOM      2  C   UNL     1      53.326 155.643  26.011  0.00  0.00    +0.107 C 
ATOM      3  C   UNL     1      53.857 154.719  25.113  0.00  0.00    +0.157 C 
ATOM      4  N   UNL     1      54.871 155.031  24.293  0.00  0.00    -0.227 NA
ATOM      5  C   UNL     1      55.445 156.263  24.284  0.00  0.00    +0.100 C 
ATOM      6  C   UNL     1      54.949 157.207  25.159  0.00  0.00    +0.022 C 
ATOM      7  C   UNL     1      53.905 156.885  26.003  0.00  0.00    +0.021 C 
ATOM      8  N   UNL     1      53.383 153.362  24.961  0.00  0.00    -0.214 N 
ATOM      9  C   UNL     1      52.780 152.532  25.948  0.00  0.00    +0.064 C 
ATOM     10  C   UNL     1      52.008 152.884  27.052  0.00  0.00    +0.069 C 
ATOM     11  C   UNL     1      51.485 151.937  27.907  0.00  0.00    +0.006 C 
ATOM     12  C   UNL     1      51.744 150.600  27.648  0.00  0.00    +0.000 C 
ATOM     13  C   UNL     1      52.521 150.228  26.540  0.00  0.00    +0.001 C 
ATOM     14  C   UNL     1      53.019 151.209  25.720  0.00  0.00    +0.015 C 
ATOM     15  C   UNL     1      51.692 154.254  27.442  0.00  0.00    +0.271 C 
ATOM     16  O   UNL     1      50.815 154.353  28.327  0.00  0.00    -0.268 OA
ATOM     17  C   UNL     1      53.562 152.844  23.664  0.00  0.00    +0.312 C 
ATOM     18  O   UNL     1      54.136 153.501  22.741  0.00  0.00    -0.264 OA
ENDROOT
BRANCH   1  19
ATOM     19  N   UNL     1      51.707 156.662  27.416  0.00  0.00    -0.134 NA
BRANCH  19  21
ATOM     20  I   UNL     1      51.330 158.772  29.574  0.00  0.00    -0.023 I 
ATOM     21  C   UNL     1      52.067 156.953  28.772  0.00  0.00    +0.117 C 
ATOM     22  C   UNL     1      52.821 156.172  29.525  0.00  0.00    +0.026 C 
ENDBRANCH  19  21
ENDBRANCH   1  19
TORSDOF 2
