MODEL 1
REMARK VINA RESULT:    -7.064      0.000      0.000
REMARK INTER + INTRA:         -10.682
REMARK INTER:                  -9.336
REMARK INTRA:                  -1.346
REMARK UNBOUND:                -1.346
REMARK  Name = =
REMARK  7 active torsions:
REMARK  status: ('A' for Active; 'I' for Inactive)
REMARK    1  A    between atoms: C_10  and  N_11
REMARK    2  A    between atoms: N_11  and  N_12
REMARK    3  A    between atoms: N_12  and  N_13
REMARK    4  A    between atoms: P_20  and  O_30
REMARK    5  A    between atoms: C_23  and  C_24
REMARK    6  A    between atoms: P_26  and  O_28
REMARK    7  A    between atoms: P_26  and  O_29
REMARK                            x       y       z     vdW  Elec       q    Type
REMARK                         _______ _______ _______ _____ _____    ______ ____
ROOT
ATOM      1  C   UNL     1      52.187 163.766  41.158  0.00  0.00    +0.214 A 
ATOM      2  C   UNL     1      53.457 164.232  40.920  0.00  0.00    +0.268 A 
ATOM      3  N   UNL     1      54.567 163.473  41.160  0.00  0.00    -0.190 NA
ATOM      4  C   UNL     1      54.497 162.226  41.642  0.00  0.00    +0.170 A 
ATOM      5  N   UNL     1      55.581 161.469  41.882  0.00  0.00    -0.205 NA
ATOM      6  C   UNL     1      55.479 160.220  42.367  0.00  0.00    +0.200 C 
ATOM      7  N   UNL     1      54.258 159.734  42.610  0.00  0.00    -0.222 NA
ATOM      8  C   UNL     1      53.139 160.414  42.400  0.00  0.00    +0.105 C 
ATOM      9  C   UNL     1      53.240 161.703  41.901  0.00  0.00    +0.073 A 
ATOM     10  C   UNL     1      52.142 162.448  41.666  0.00  0.00    +0.103 A 
ATOM     11  O   UNL     1      51.024 164.400  40.969  0.00  0.00    -0.413 OA
ATOM     12  P   UNL     1      50.446 165.938  41.220  0.00  0.00    +0.419 P 
ATOM     13  O   UNL     1      49.717 166.023  42.580  0.00  0.00    -0.239 OA
ATOM     14  C   UNL     1      51.685 167.210  41.293  0.00  0.00    +0.172 C 
ATOM     15  C   UNL     1      51.354 168.482  41.269  0.00  0.00    +0.061 C 
ATOM     16  P   UNL     1      53.433 166.781  41.429  0.00  0.00    +0.326 P 
ATOM     17  O   UNL     1      53.574 165.507  42.259  0.00  0.00    -0.409 OA
ENDROOT
BRANCH  10  18
ATOM     18  N   UNL     1      50.849 161.871  41.950  0.00  0.00    -0.260 N 
ATOM     19  H   UNL     1      50.565 161.024  41.536  0.00  0.00    +0.168 HD
BRANCH  18  20
ATOM     20  N   UNL     1      50.027 162.551  42.820  0.00  0.00    -0.156 NA
ATOM     21  H   UNL     1      50.405 163.489  42.949  0.00  0.00    +0.168 HD
BRANCH  20  22
ATOM     22  N   UNL     1      48.712 162.668  42.392  0.00  0.00    -0.192 N 
ATOM     23  C   UNL     1      47.559 163.302  43.034  0.00  0.00    +0.136 C 
ATOM     24  C   UNL     1      46.887 163.931  41.839  0.00  0.00    +0.114 C 
ATOM     25  N   UNL     1      47.017 162.916  40.824  0.00  0.00    -0.286 N 
ATOM     26  C   UNL     1      48.195 162.165  41.166  0.00  0.00    +0.318 C 
ATOM     27  O   UNL     1      48.683 161.222  40.490  0.00  0.00    -0.251 OA
ATOM     28  H   UNL     1      46.421 162.766  40.054  0.00  0.00    +0.151 HD
ENDBRANCH  20  22
ENDBRANCH  18  20
ENDBRANCH  10  18
BRANCH  15  29
ATOM     29  C   UNL     1      52.342 169.536  41.348  0.00  0.00    +0.235 C 
ATOM     30  O   UNL     1      52.744 170.106  40.309  0.00  0.00    -0.283 OA
ENDBRANCH  15  29
BRANCH  16  31
ATOM     31  O   UNL     1      54.088 166.463  39.915  0.00  0.00    -0.323 OA
ATOM     32  H   UNL     1      54.899 165.939  40.017  0.00  0.00    +0.220 HD
ENDBRANCH  16  31
BRANCH  16  33
ATOM     33  O   UNL     1      54.250 168.006  42.228  0.00  0.00    -0.323 OA
ATOM     34  H   UNL     1      53.811 168.854  42.055  0.00  0.00    +0.220 HD
ENDBRANCH  16  33
BRANCH  12  35
ATOM     35  O   UNL     1      49.265 166.362  40.035  0.00  0.00    -0.312 OA
ATOM     36  H   UNL     1      49.575 166.088  39.157  0.00  0.00    +0.221 HD
ENDBRANCH  12  35
TORSDOF 7
ENDMDL
