MODEL 1
REMARK VINA RESULT:   -10.504      0.000      0.000
REMARK INTER + INTRA:         -15.737
REMARK INTER:                 -15.109
REMARK INTRA:                  -0.628
REMARK UNBOUND:                -0.628
REMARK  Name = =
REMARK  8 active torsions:
REMARK  status: ('A' for Active; 'I' for Inactive)
REMARK    1  A    between atoms: C_1  and  C_7
REMARK    2  A    between atoms: C_4  and  C_32
REMARK    3  A    between atoms: C_5  and  N_27
REMARK    4  A    between atoms: C_13  and  C_16
REMARK    5  A    between atoms: C_17  and  C_24
REMARK    6  A    between atoms: N_27  and  O_31
REMARK    7  A    between atoms: N_34  and  N_35
REMARK    8  A    between atoms: C_36  and  C_38
REMARK                            x       y       z     vdW  Elec       q    Type
REMARK                         _______ _______ _______ _____ _____    ______ ____
ROOT
ATOM      1  C   UNL     1       0.058  -2.004  25.905  0.00  0.00    +0.107 C 
ATOM      2  N   UNL     1      -0.832  -1.783  24.906  0.00  0.00    -0.148 NA
ATOM      3  N   UNL     1      -0.481  -1.293  23.739  0.00  0.00    -0.142 NA
ATOM      4  C   UNL     1       0.813  -0.976  23.461  0.00  0.00    +0.173 C 
ATOM      5  C   UNL     1       1.734  -1.193  24.451  0.00  0.00    +0.108 C 
ATOM      6  C   UNL     1       1.374  -1.710  25.690  0.00  0.00    +0.040 C 
ENDROOT
BRANCH   1   7
ATOM      7  C   UNL     1      -0.388  -2.507  27.197  0.00  0.00    +0.053 C 
ATOM      8  C   UNL     1      -0.182  -3.833  27.565  0.00  0.00    +0.136 C 
ATOM      9  C   UNL     1      -0.628  -4.327  28.757  0.00  0.00    +0.019 C 
ATOM     10  C   UNL     1      -1.289  -3.549  29.643  0.00  0.00    -0.001 C 
ATOM     11  C   UNL     1      -1.516  -2.230  29.328  0.00  0.00    -0.000 C 
ATOM     12  C   UNL     1      -1.056  -1.737  28.102  0.00  0.00    +0.005 C 
ATOM     13  C   UNL     1      -0.256  -5.788  28.768  0.00  0.00    +0.095 C 
ATOM     14  C   UNL     1       0.933  -5.799  27.860  0.00  0.00    +0.214 C 
ATOM     15  O   UNL     1       0.471  -4.847  26.850  0.00  0.00    -0.475 OA
BRANCH  13  16
ATOM     16  C   UNL     1       0.047  -6.230  30.115  0.00  0.00    +0.032 C 
ATOM     17  C   UNL     1       1.104  -5.839  30.766  0.00  0.00    +0.091 C 
ATOM     18  C   UNL     1       1.291  -6.345  32.155  0.00  0.00    +0.200 C 
ATOM     19  O   UNL     1       2.322  -5.987  32.824  0.00  0.00    -0.286 OA
ATOM     20  C   UNL     1       0.350  -7.241  32.794  0.00  0.00    +0.045 C 
ATOM     21  C   UNL     1      -0.705  -7.604  32.095  0.00  0.00    +0.045 C 
ATOM     22  C   UNL     1      -0.948  -7.151  30.741  0.00  0.00    +0.192 C 
ATOM     23  O   UNL     1      -1.968  -7.528  30.116  0.00  0.00    -0.287 OA
BRANCH  17  24
ATOM     24  C   UNL     1       2.140  -4.931  30.304  0.00  0.00    +0.246 C 
ATOM     25  O   UNL     1       1.963  -3.661  30.420  0.00  0.00    -0.270 OA
ATOM     26  N   UNL     1       3.379  -5.253  29.709  0.00  0.00    -0.325 N 
ATOM     27  H   UNL     1       3.628  -6.194  29.568  0.00  0.00    +0.145 HD
ATOM     28  H   UNL     1       3.995  -4.535  29.435  0.00  0.00    +0.145 HD
ENDBRANCH  17  24
ENDBRANCH  13  16
ENDBRANCH   1   7
BRANCH   5  29
ATOM     29  N   UNL     1       3.094  -0.866  24.174  0.00  0.00    -0.132 N 
ATOM     30  C   UNL     1       4.025  -1.855  23.768  0.00  0.00    +0.327 C 
ATOM     31  O   UNL     1       3.658  -3.048  23.627  0.00  0.00    -0.250 OA
ATOM     32  N   UNL     1       5.394  -1.496  23.514  0.00  0.00    -0.311 N 
ATOM     33  H   UNL     1       5.686  -0.562  23.624  0.00  0.00    +0.147 HD
ATOM     34  H   UNL     1       6.039  -2.184  23.231  0.00  0.00    +0.147 HD
BRANCH  29  35
ATOM     35  O   UNL     1       3.499   0.417  24.301  0.00  0.00    -0.286 OA
ATOM     36  H   UNL     1       3.223   0.759  25.166  0.00  0.00    +0.242 HD
ENDBRANCH  29  35
ENDBRANCH   5  29
BRANCH   4  37
ATOM     37  C   UNL     1       1.163  -0.404  22.158  0.00  0.00    +0.282 C 
ATOM     38  O   UNL     1       1.002  -1.041  21.100  0.00  0.00    -0.267 OA
ATOM     39  N   UNL     1       1.708   0.915  22.052  0.00  0.00    -0.229 N 
ATOM     40  H   UNL     1       1.835   1.436  22.878  0.00  0.00    +0.173 HD
BRANCH  39  41
ATOM     41  N   UNL     1       2.067   1.499  20.838  0.00  0.00    -0.233 N 
ATOM     42  C   UNL     1       1.706   2.838  20.466  0.00  0.00    +0.242 C 
ATOM     43  O   UNL     1       1.028   3.490  21.296  0.00  0.00    -0.273 OA
ATOM     44  H   UNL     1       2.597   0.965  20.203  0.00  0.00    +0.173 HD
BRANCH  42  45
ATOM     45  C   UNL     1       2.120   3.407  19.168  0.00  0.00    +0.108 C 
ATOM     46  C   UNL     1       2.306   4.890  19.196  0.00  0.00    +0.083 C 
ATOM     47  C   UNL     1       1.642   5.388  17.968  0.00  0.00    +0.174 C 
ATOM     48  O   UNL     1       1.690   6.548  17.470  0.00  0.00    -0.291 OA
ATOM     49  C   UNL     1       0.891   4.276  17.403  0.00  0.00    +0.033 C 
ATOM     50  C   UNL     1       1.158   3.169  18.074  0.00  0.00    -0.014 C 
ENDBRANCH  42  45
ENDBRANCH  39  41
ENDBRANCH   4  37
TORSDOF 8
ENDMDL
