REMARK  Name = =
REMARK  10 active torsions:
REMARK  status: ('A' for Active; 'I' for Inactive)
REMARK    1  A    between atoms: C_4  and  O_27
REMARK    2  A    between atoms: C_5  and  O_26
REMARK    3  A    between atoms: C_7  and  S_33
REMARK    4  A    between atoms: C_10  and  N_23
REMARK    5  A    between atoms: C_12  and  C_28
REMARK    6  A    between atoms: C_14  and  C_20
REMARK    7  A    between atoms: C_17  and  N_31
REMARK    8  A    between atoms: C_28  and  O_30
REMARK    9  A    between atoms: S_33  and  C_34
REMARK   10  A    between atoms: C_34  and  N_36
REMARK                            x       y       z     vdW  Elec       q    Type
REMARK                         _______ _______ _______ _____ _____    ______ ____
ROOT
ATOM      1  C   UNL     1       4.712  -8.367  24.543  0.00  0.00    -0.016 C 
ATOM      2  C   UNL     1       4.769  -9.591  24.925  0.00  0.00    -0.010 C 
ATOM      3  C   UNL     1       3.613 -10.412  24.779  0.00  0.00    +0.036 C 
ATOM      4  C   UNL     1       2.439  -9.952  24.251  0.00  0.00    +0.167 C 
ATOM      5  C   UNL     1       2.373  -8.643  23.845  0.00  0.00    +0.167 C 
ATOM      6  C   UNL     1       3.503  -7.869  23.995  0.00  0.00    +0.036 C 
ATOM      7  C   UNL     1       5.982 -10.164  25.644  0.00  0.00    +0.108 C 
ATOM      8  C   UNL     1       5.933  -7.453  24.589  0.00  0.00    +0.072 C 
ATOM      9  C   UNL     1       5.964  -6.739  23.253  0.00  0.00    +0.038 C 
ATOM     10  C   UNL     1       5.793  -5.474  23.253  0.00  0.00    +0.046 C 
ATOM     11  C   UNL     1       5.622  -4.676  24.505  0.00  0.00    +0.084 C 
ATOM     12  C   UNL     1       5.692  -5.213  25.686  0.00  0.00    +0.024 C 
ATOM     13  C   UNL     1       5.995  -6.671  25.786  0.00  0.00    +0.117 C 
ATOM     14  I   UNL     1       5.401  -4.149  27.472  0.00  0.00    -0.046 I 
ATOM     15  I   UNL     1       5.622  -4.336  21.482  0.00  0.00    -0.041 I 
ATOM     16  C   UNL     1       5.771  -9.698  27.090  0.00  0.00    +0.160 C 
ATOM     17  N   UNL     1       4.920  -8.531  27.087  0.00  0.00    -0.200 NA
ATOM     18  C   UNL     1       5.522  -7.267  27.047  0.00  0.00    +0.104 C 
ENDROOT
BRANCH  13  19
ATOM     19  C   UNL     1       7.560  -6.531  26.003  0.00  0.00    +0.225 C 
ATOM     20  O   UNL     1       8.076  -6.670  27.089  0.00  0.00    -0.275 OA
ATOM     21  N   UNL     1       8.290  -6.230  24.844  0.00  0.00    -0.328 N 
ATOM     22  H   UNL     1       7.825  -6.126  23.982  0.00  0.00    +0.145 HD
ATOM     23  H   UNL     1       9.267  -6.122  24.892  0.00  0.00    +0.145 HD
ENDBRANCH  13  19
BRANCH   9  24
ATOM     24  N   UNL     1       6.266  -7.604  22.214  0.00  0.00    -0.279 N 
ATOM     25  C   UNL     1       7.379  -7.738  21.405  0.00  0.00    +0.303 C 
ATOM     26  O   UNL     1       8.349  -7.044  21.521  0.00  0.00    -0.265 OA
ATOM     27  H   UNL     1       5.549  -8.248  22.013  0.00  0.00    +0.155 HD
ENDBRANCH   9  24
BRANCH   5  28
ATOM     28  O   UNL     1       1.193  -8.162  23.311  0.00  0.00    -0.503 OA
ATOM     29  H   UNL     1       1.135  -7.270  23.030  0.00  0.00    +0.292 HD
ENDBRANCH   5  28
BRANCH   4  30
ATOM     30  O   UNL     1       1.324 -10.791  24.123  0.00  0.00    -0.503 OA
ATOM     31  H   UNL     1       1.375 -11.684  24.402  0.00  0.00    +0.292 HD
ENDBRANCH   4  30
BRANCH  11  32
ATOM     32  C   UNL     1       5.364  -3.224  24.376  0.00  0.00    +0.339 C 
ATOM     33  O   UNL     1       6.233  -2.349  24.397  0.00  0.00    -0.245 OA
BRANCH  32  34
ATOM     34  O   UNL     1       4.029  -2.814  24.219  0.00  0.00    -0.477 OA
ATOM     35  H   UNL     1       3.342  -3.451  24.199  0.00  0.00    +0.295 HD
ENDBRANCH  32  34
ENDBRANCH  11  32
BRANCH  16  36
ATOM     36  N   UNL     1       6.922  -9.484  27.851  0.00  0.00    -0.200 NA
ATOM     37  C   UNL     1       6.753 -10.087  29.156  0.00  0.00    +0.109 C 
ENDBRANCH  16  36
BRANCH   7  38
ATOM     38  S   UNL     1       6.182 -11.884  25.438  0.00  0.00    -0.086 S 
BRANCH  38  39
ATOM     39  C   UNL     1       7.322 -12.566  26.584  0.00  0.00    +0.105 C 
ATOM     40  S   UNL     1       8.932 -12.316  26.548  0.00  0.00    -0.028 S 
BRANCH  39  41
ATOM     41  N   UNL     1       6.829 -13.419  27.641  0.00  0.00    -0.347 N 
ATOM     42  H   UNL     1       5.865 -13.606  27.713  0.00  0.00    +0.143 HD
ATOM     43  H   UNL     1       7.457 -13.813  28.289  0.00  0.00    +0.143 HD
ENDBRANCH  39  41
ENDBRANCH  38  39
ENDBRANCH   7  38
TORSDOF 10
REMARK  Name = =
REMARK  10 active torsions:
REMARK  status: ('A' for Active; 'I' for Inactive)
REMARK    1  A    between atoms: C_4  and  O_27
REMARK    2  A    between atoms: C_5  and  O_26
REMARK    3  A    between atoms: C_7  and  S_33
REMARK    4  A    between atoms: C_10  and  N_23
REMARK    5  A    between atoms: C_12  and  C_28
REMARK    6  A    between atoms: C_14  and  C_20
REMARK    7  A    between atoms: C_17  and  N_31
REMARK    8  A    between atoms: C_28  and  O_30
REMARK    9  A    between atoms: S_33  and  C_34
REMARK   10  A    between atoms: C_34  and  N_36
REMARK                            x       y       z     vdW  Elec       q    Type
REMARK                         _______ _______ _______ _____ _____    ______ ____
ROOT
ATOM      1  I   UNL     1       7.433  -8.967  24.677  0.00  0.00    -0.107 I 
ATOM      2  H   UNL     1       8.994  -8.967  24.677  0.00  0.00    +0.107 HD
ENDROOT
TORSDOF 0
