MODEL 1
REMARK VINA RESULT:   -11.626      0.000      0.000
REMARK INTER + INTRA:         -14.805
REMARK INTER:                 -13.664
REMARK INTRA:                  -1.140
REMARK UNBOUND:                -1.140
REMARK  Name = =
REMARK  3 active torsions:
REMARK  status: ('A' for Active; 'I' for Inactive)
REMARK    1  A    between atoms: C_3  and  C_22
REMARK    2  A    between atoms: C_4  and  C_6
REMARK    3  A    between atoms: C_22  and  C_24
REMARK                            x       y       z     vdW  Elec       q    Type
REMARK                         _______ _______ _______ _____ _____    ______ ____
ROOT
ATOM      1  O   UNL     1       6.037  -4.528  27.944  0.00  0.00    -0.350 OA
ATOM      2  N   UNL     1       5.165  -5.441  27.674  0.00  0.00    -0.077 NA
ATOM      3  C   UNL     1       4.020  -4.885  27.195  0.00  0.00    +0.123 C 
ATOM      4  C   UNL     1       4.272  -3.524  27.200  0.00  0.00    +0.061 C 
ATOM      5  C   UNL     1       5.582  -3.349  27.689  0.00  0.00    +0.214 C 
ENDROOT
BRANCH   4   6
ATOM      6  C   UNL     1       3.354  -2.447  26.884  0.00  0.00    +0.008 C 
ATOM      7  C   UNL     1       3.284  -1.889  25.641  0.00  0.00    +0.042 C 
ATOM      8  C   UNL     1       2.457  -0.783  25.389  0.00  0.00    +0.042 C 
ATOM      9  C   UNL     1       1.703  -0.249  26.402  0.00  0.00    +0.003 C 
ATOM     10  C   UNL     1       1.775  -0.817  27.652  0.00  0.00    +0.000 C 
ATOM     11  C   UNL     1       2.589  -1.911  27.921  0.00  0.00    +0.000 C 
ATOM     12  C   UNL     1       2.348  -0.181  24.070  0.00  0.00    +0.196 C 
ATOM     13  O   UNL     1       1.611   0.810  23.832  0.00  0.00    -0.287 OA
ATOM     14  C   UNL     1       3.120  -0.740  22.971  0.00  0.00    +0.042 C 
ATOM     15  C   UNL     1       3.933  -1.827  23.205  0.00  0.00    +0.042 C 
ATOM     16  C   UNL     1       4.678  -2.381  22.170  0.00  0.00    +0.003 C 
ATOM     17  C   UNL     1       4.599  -1.844  20.915  0.00  0.00    +0.000 C 
ATOM     18  C   UNL     1       3.780  -0.759  20.700  0.00  0.00    +0.000 C 
ATOM     19  C   UNL     1       3.037  -0.192  21.693  0.00  0.00    +0.003 C 
ATOM     20  C   UNL     1       4.042  -2.434  24.541  0.00  0.00    +0.196 C 
ATOM     21  O   UNL     1       4.783  -3.409  24.701  0.00  0.00    -0.287 OA
ENDBRANCH   4   6
BRANCH   3  22
ATOM     22  C   UNL     1       2.810  -5.594  26.777  0.00  0.00    +0.021 C 
ATOM     23  C   UNL     1       2.671  -6.019  25.529  0.00  0.00    +0.002 C 
BRANCH  22  24
ATOM     24  C   UNL     1       1.742  -5.808  27.738  0.00  0.00    +0.001 C 
ATOM     25  C   UNL     1       1.199  -7.093  27.860  0.00  0.00    -0.005 C 
ATOM     26  C   UNL     1       0.225  -7.388  28.767  0.00  0.00    -0.026 C 
ATOM     27  C   UNL     1      -0.270  -6.398  29.619  0.00  0.00    -0.026 C 
ATOM     28  C   UNL     1       0.249  -5.132  29.517  0.00  0.00    -0.005 C 
ATOM     29  C   UNL     1       1.244  -4.864  28.578  0.00  0.00    -0.000 C 
ATOM     30  C   UNL     1      -1.301  -6.663  30.617  0.00  0.00    +0.022 C 
ATOM     31  C   UNL     1      -2.220  -5.514  30.819  0.00  0.00    +0.005 C 
ATOM     32  C   UNL     1      -3.681  -5.908  30.890  0.00  0.00    +0.008 C 
ATOM     33  C   UNL     1      -3.903  -7.118  31.750  0.00  0.00    +0.058 C 
ATOM     34  C   UNL     1      -3.051  -8.294  31.401  0.00  0.00    +0.008 C 
ATOM     35  C   UNL     1      -2.517  -8.841  32.717  0.00  0.00    +0.008 C 
ATOM     36  C   UNL     1      -2.544  -7.682  33.688  0.00  0.00    +0.065 C 
ATOM     37  C   UNL     1      -3.658  -6.842  33.183  0.00  0.00    +0.150 C 
ATOM     38  O   UNL     1      -4.308  -6.029  33.822  0.00  0.00    -0.296 OA
ATOM     39  C   UNL     1      -1.880  -8.005  30.540  0.00  0.00    +0.005 C 
ATOM     40  C   UNL     1      -1.773  -8.756  29.268  0.00  0.00    +0.005 C 
ATOM     41  C   UNL     1      -0.318  -8.783  28.836  0.00  0.00    +0.026 C 
ENDBRANCH  22  24
ENDBRANCH   3  22
TORSDOF 3
ENDMDL
