REMARK  Name = =
REMARK  0 active torsions:
REMARK  status: ('A' for Active; 'I' for Inactive)
REMARK                            x       y       z     vdW  Elec       q    Type
REMARK                         _______ _______ _______ _____ _____    ______ ____
ROOT
ATOM      1  C   UNL     1     -12.677 -44.533  27.396  0.00  0.00    +0.000 C 
ATOM      2  C   UNL     1     -13.890 -44.452  26.718  0.00  0.00    +0.000 C 
ATOM      3  C   UNL     1     -14.467 -43.247  26.375  0.00  0.00    +0.000 C 
ATOM      4  C   UNL     1     -13.797 -42.093  26.729  0.00  0.00    +0.000 C 
ATOM      5  C   UNL     1     -12.594 -42.164  27.402  0.00  0.00    +0.000 C 
ATOM      6  C   UNL     1     -12.012 -43.375  27.748  0.00  0.00    +0.000 C 
ATOM      7  C   UNL     1     -10.809 -43.446  28.420  0.00  0.00    +0.000 C 
ATOM      8  C   UNL     1     -10.221 -44.653  28.770  0.00  0.00    +0.000 C 
ATOM      9  C   UNL     1     -10.900 -45.800  28.410  0.00  0.00    +0.000 C 
ATOM     10  C   UNL     1     -12.105 -45.743  27.737  0.00  0.00    +0.000 C 
ENDROOT
TORSDOF 0
