REMARK  Name = =
REMARK  1 active torsions:
REMARK  status: ('A' for Active; 'I' for Inactive)
REMARK    1  A    between atoms: C_2  and  N_11
REMARK                            x       y       z     vdW  Elec       q    Type
REMARK                         _______ _______ _______ _____ _____    ______ ____
ROOT
ATOM      1  C   UNL     1     -12.075 -43.501  27.723  0.00  0.00    +0.020 C 
ATOM      2  C   UNL     1     -12.514 -42.191  27.583  0.00  0.00    +0.111 C 
ATOM      3  C   UNL     1     -11.708 -41.143  27.949  0.00  0.00    +0.021 C 
ATOM      4  C   UNL     1     -10.458 -41.402  28.460  0.00  0.00    +0.002 C 
ATOM      5  C   UNL     1     -10.035 -42.711  28.595  0.00  0.00    +0.000 C 
ATOM      6  C   UNL     1     -10.825 -43.783  28.233  0.00  0.00    +0.002 C 
ATOM      7  C   UNL     1     -10.395 -45.095  28.371  0.00  0.00    +0.000 C 
ATOM      8  C   UNL     1     -11.191 -46.162  28.007  0.00  0.00    +0.000 C 
ATOM      9  C   UNL     1     -12.441 -45.880  27.497  0.00  0.00    +0.000 C 
ATOM     10  C   UNL     1     -12.868 -44.562  27.362  0.00  0.00    +0.002 C 
ENDROOT
BRANCH   2  11
ATOM     11  N   UNL     1     -13.826 -42.009  27.044  0.00  0.00    -0.096 NA
ATOM     12  O   UNL     1     -13.898 -41.751  25.821  0.00  0.00    -0.061 OA
ENDBRANCH   2  11
TORSDOF 1
