REMARK  Name = =
REMARK  4 active torsions:
REMARK  status: ('A' for Active; 'I' for Inactive)
REMARK    1  A    between atoms: C_2  and  N_11
REMARK    2  A    between atoms: N_11  and  C_13
REMARK    3  A    between atoms: C_13  and  C_14
REMARK    4  A    between atoms: C_14  and  O_16
REMARK                            x       y       z     vdW  Elec       q    Type
REMARK                         _______ _______ _______ _____ _____    ______ ____
ROOT
ATOM      1  C   UNL     1     -11.689 -43.919  27.846  0.00  0.00    +0.018 C 
ATOM      2  C   UNL     1     -12.364 -42.747  27.554  0.00  0.00    +0.086 C 
ATOM      3  C   UNL     1     -11.826 -41.509  27.932  0.00  0.00    +0.019 C 
ATOM      4  C   UNL     1     -10.635 -41.417  28.589  0.00  0.00    +0.002 C 
ATOM      5  C   UNL     1      -9.966 -42.578  28.875  0.00  0.00    +0.000 C 
ATOM      6  C   UNL     1     -10.462 -43.812  28.522  0.00  0.00    +0.001 C 
ATOM      7  C   UNL     1      -9.799 -44.980  28.818  0.00  0.00    +0.000 C 
ATOM      8  C   UNL     1     -10.268 -46.228  28.493  0.00  0.00    +0.000 C 
ATOM      9  C   UNL     1     -11.467 -46.360  27.832  0.00  0.00    +0.000 C 
ATOM     10  C   UNL     1     -12.145 -45.171  27.528  0.00  0.00    +0.001 C 
ENDROOT
BRANCH   2  11
ATOM     11  N   UNL     1     -13.559 -42.796  26.809  0.00  0.00    -0.195 N 
ATOM     12  O   UNL     1     -13.787 -43.437  25.629  0.00  0.00    -0.084 OA
BRANCH  11  13
ATOM     13  C   UNL     1     -14.613 -42.183  27.306  0.00  0.00    +0.244 C 
BRANCH  13  14
ATOM     14  C   UNL     1     -15.879 -42.190  26.590  0.00  0.00    +0.340 C 
ATOM     15  O   UNL     1     -15.961 -42.210  25.324  0.00  0.00    -0.248 OA
BRANCH  14  16
ATOM     16  O   UNL     1     -17.061 -42.175  27.290  0.00  0.00    -0.479 OA
ATOM     17  H   UNL     1     -17.051 -42.160  28.227  0.00  0.00    +0.295 HD
ENDBRANCH  14  16
ENDBRANCH  13  14
ENDBRANCH  11  13
ENDBRANCH   2  11
TORSDOF 4
