MODEL 1
REMARK VINA RESULT:     1.474      0.000      0.000
REMARK INTER + INTRA:           3.860
REMARK INTER:                   2.380
REMARK INTRA:                   1.480
REMARK UNBOUND:                 1.480
REMARK  Name = 
REMARK  13 active torsions:
REMARK  status: ('A' for Active; 'I' for Inactive)
REMARK    1  A    between atoms: C_1  and  C_4
REMARK    2  A    between atoms: C_2  and  C_3
REMARK    3  A    between atoms: C_4  and  N_5
REMARK    4  A    between atoms: C_4  and  N_32
REMARK    5  A    between atoms: C_6  and  C_23
REMARK    6  A    between atoms: C_13  and  C_15
REMARK    7  A    between atoms: C_15  and  O_17
REMARK    8  A    between atoms: O_17  and  C_18
REMARK    9  A    between atoms: C_18  and  C_19
REMARK   10  A    between atoms: C_26  and  C_27
REMARK   11  A    between atoms: C_27  and  O_29
REMARK   12  A    between atoms: N_32  and  C_33
REMARK   13  A    between atoms: C_33  and  C_34
REMARK                            x       y       z     vdW  Elec       q    Type
REMARK                         _______ _______ _______ _____ _____    ______ ____
ROOT
ATOM      1  N   UNL     1      52.204 157.093  29.293  0.00  0.00    +0.000 N 
ATOM      2  C   UNL     1      51.860 155.777  29.779  0.00  0.00    +0.000 C 
ATOM      3  C   UNL     1      50.552 155.639  30.454  0.00  0.00    +0.000 C 
ATOM      4  C   UNL     1      49.630 156.814  30.356  0.00  0.00    +0.000 C 
ATOM      5  C   UNL     1      50.299 158.119  30.352  0.00  0.00    +0.000 A 
ATOM      6  C   UNL     1      51.574 158.229  29.850  0.00  0.00    +0.000 A 
ATOM      7  C   UNL     1      52.188 159.468  29.906  0.00  0.00    +0.000 A 
ATOM      8  C   UNL     1      51.552 160.563  30.442  0.00  0.00    +0.000 A 
ATOM      9  C   UNL     1      50.267 160.439  30.941  0.00  0.00    +0.000 A 
ATOM     10  C   UNL     1      49.643 159.216  30.895  0.00  0.00    +0.000 A 
ATOM     11  C   UNL     1      48.871 156.528  29.109  0.00  0.00    +0.000 C 
ATOM     12  C   UNL     1      48.887 155.217  28.867  0.00  0.00    +0.000 C 
ATOM     13  C   UNL     1      49.650 154.571  29.927  0.00  0.00    +0.000 C 
ENDROOT
BRANCH   2  14
ATOM     14  C   UNL     1      52.099 154.688  28.787  0.00  0.00    +0.000 A 
ATOM     15  C   UNL     1      53.182 153.831  28.950  0.00  0.00    +0.000 A 
ATOM     16  C   UNL     1      53.472 152.790  28.101  0.00  0.00    +0.000 A 
ATOM     17  C   UNL     1      52.666 152.548  27.011  0.00  0.00    +0.000 A 
ATOM     18  C   UNL     1      51.580 153.390  26.831  0.00  0.00    +0.000 A 
ATOM     19  C   UNL     1      51.302 154.434  27.694  0.00  0.00    +0.000 A 
BRANCH  17  20
ATOM     20  C   UNL     1      52.954 151.451  26.099  0.00  0.00    +0.000 C 
ATOM     21  O   UNL     1      53.752 151.657  25.154  0.00  0.00    +0.000 OA
BRANCH  20  22
ATOM     22  O   UNL     1      52.393 150.196  26.220  0.00  0.00    +0.000 OA
ATOM     23  H   UNL     1      51.399 150.014  26.166  0.00  0.00    +0.000 HD
ENDBRANCH  20  22
ENDBRANCH  17  20
ENDBRANCH   2  14
BRANCH   9  24
ATOM     24  C   UNL     1      49.597 161.596  31.505  0.00  0.00    +0.000 C 
ATOM     25  O   UNL     1      48.531 162.056  31.003  0.00  0.00    +0.000 OA
BRANCH  24  26
ATOM     26  O   UNL     1      50.087 162.254  32.617  0.00  0.00    +0.000 OA
BRANCH  26  27
ATOM     27  C   UNL     1      49.853 161.743  33.916  0.00  0.00    +0.000 C 
ATOM     28  C   UNL     1      48.350 161.476  34.038  0.00  0.00    +0.000 C 
ENDBRANCH  26  27
ENDBRANCH  24  26
ENDBRANCH   9  24
BRANCH   1  29
ATOM     29  C   UNL     1      53.210 157.317  28.286  0.00  0.00    +0.000 C 
BRANCH  29  30
ATOM     30  C   UNL     1      54.212 158.310  28.752  0.00  0.00    +0.000 C 
ATOM     31  C   UNL     1      55.016 159.134  29.124  0.00  0.00    +0.000 C 
ATOM     32  C   UNL     1      55.982 160.117  29.595  0.00  0.00    +0.000 C 
ENDBRANCH  29  30
BRANCH  29  33
ATOM     33  N   UNL     1      52.677 157.603  26.991  0.00  0.00    +0.000 NA
ATOM     34  H   UNL     1      51.661 157.804  27.115  0.00  0.00    +0.000 HD
BRANCH  33  35
ATOM     35  C   UNL     1      52.817 156.538  26.052  0.00  0.00    +0.000 C 
BRANCH  35  36
ATOM     36  C   UNL     1      54.084 156.576  25.279  0.00  0.00    +0.000 C 
ATOM     37  C   UNL     1      54.569 155.498  24.739  0.00  0.00    +0.000 C 
ENDBRANCH  35  36
ENDBRANCH  33  35
ENDBRANCH  29  33
ENDBRANCH   1  29
TORSDOF 11
ENDMDL
