MODEL 1
REMARK VINA RESULT:    -8.245      0.000      0.000
REMARK INTER + INTRA:         -11.677
REMARK INTER:                 -11.138
REMARK INTRA:                  -0.540
REMARK UNBOUND:                -0.540
REMARK  Name = 
REMARK  6 active torsions:
REMARK  status: ('A' for Active; 'I' for Inactive)
REMARK    1  A    between atoms: N_3  and  C_14
REMARK    2  A    between atoms: C_5  and  S_6
REMARK    3  A    between atoms: S_6  and  C_7
REMARK    4  A    between atoms: C_7  and  C_8
REMARK    5  A    between atoms: C_14  and  C_15
REMARK    6  A    between atoms: N_17  and  C_18
REMARK                            x       y       z     vdW  Elec       q    Type
REMARK                         _______ _______ _______ _____ _____    ______ ____
ROOT
ATOM      1  N   UNL     1      53.202 156.569  27.020  0.00  0.00    +0.000 NA
ATOM      2  C   UNL     1      52.801 156.904  28.277  0.00  0.00    +0.000 A 
ATOM      3  N   UNL     1      51.946 155.959  28.666  0.00  0.00    +0.000 N 
ATOM      4  N   UNL     1      51.829 155.067  27.666  0.00  0.00    +0.000 NA
ATOM      5  C   UNL     1      52.598 155.426  26.635  0.00  0.00    +0.000 A 
ATOM      6  N   UNL     1      53.233 158.035  29.009  0.00  0.00    +0.000 N 
ATOM      7  H   UNL     1      52.899 158.969  28.734  0.00  0.00    +0.000 HD
ATOM      8  H   UNL     1      53.871 157.919  29.802  0.00  0.00    +0.000 HD
ENDROOT
BRANCH   5   9
ATOM      9  S   UNL     1      52.808 154.559  25.066  0.00  0.00    +0.000 S 
BRANCH   9  10
ATOM     10  C   UNL     1      54.246 153.450  25.201  0.00  0.00    +0.000 C 
BRANCH  10  11
ATOM     11  C   UNL     1      53.787 152.051  25.331  0.00  0.00    +0.000 A 
ATOM     12  N   UNL     1      52.761 151.628  26.075  0.00  0.00    +0.000 NA
ATOM     13  C   UNL     1      52.397 150.321  26.153  0.00  0.00    +0.000 A 
ATOM     14  C   UNL     1      53.077 149.341  25.453  0.00  0.00    +0.000 A 
ATOM     15  C   UNL     1      54.137 149.752  24.679  0.00  0.00    +0.000 A 
ATOM     16  C   UNL     1      54.493 151.086  24.612  0.00  0.00    +0.000 A 
ENDBRANCH  10  11
ENDBRANCH   9  10
ENDBRANCH   5   9
BRANCH   3  17
ATOM     17  C   UNL     1      51.196 155.828  29.903  0.00  0.00    +0.000 C 
BRANCH  17  18
ATOM     18  C   UNL     1      49.971 156.676  29.879  0.00  0.00    +0.000 C 
ATOM     19  O   UNL     1      48.900 156.210  29.503  0.00  0.00    +0.000 OA
ATOM     20  N   UNL     1      50.069 158.011  30.291  0.00  0.00    +0.000 N 
ATOM     21  H   UNL     1      51.036 158.343  30.611  0.00  0.00    +0.000 HD
BRANCH  20  22
ATOM     22  C   UNL     1      49.022 158.995  30.341  0.00  0.00    +0.000 C 
ATOM     23  C   UNL     1      49.259 160.294  31.026  0.00  0.00    +0.000 C 
ATOM     24  C   UNL     1      48.411 159.191  31.721  0.00  0.00    +0.000 C 
ENDBRANCH  20  22
ENDBRANCH  17  18
ENDBRANCH   3  17
TORSDOF 6
ENDMDL
