MODEL 1
REMARK VINA RESULT:   -10.606      0.000      0.000
REMARK INTER + INTRA:         -14.522
REMARK INTER:                 -14.326
REMARK INTRA:                  -0.196
REMARK UNBOUND:                -0.196
REMARK  Name = 
REMARK  7 active torsions:
REMARK  status: ('A' for Active; 'I' for Inactive)
REMARK    1  A    between atoms: C_1  and  C_15
REMARK    2  A    between atoms: C_9  and  O_12
REMARK    3  A    between atoms: O_12  and  C_13
REMARK    4  A    between atoms: C_13  and  C_14
REMARK    5  A    between atoms: C_15  and  N_16
REMARK    6  A    between atoms: N_16  and  C_17
REMARK    7  A    between atoms: C_17  and  C_18
REMARK                            x       y       z     vdW  Elec       q    Type
REMARK                         _______ _______ _______ _____ _____    ______ ____
ROOT
ATOM      1  C   UNL     1      52.149 155.476  28.198  0.00  0.00    +0.000 A 
ATOM      2  C   UNL     1      52.786 156.522  27.548  0.00  0.00    +0.000 A 
ATOM      3  O   UNL     1      52.701 157.660  28.118  0.00  0.00    +0.000 OA
ATOM      4  N   UNL     1      53.453 156.393  26.418  0.00  0.00    +0.000 N 
ATOM      5  C   UNL     1      53.554 155.199  25.814  0.00  0.00    +0.000 A 
ATOM      6  C   UNL     1      52.943 154.114  26.403  0.00  0.00    +0.000 A 
ATOM      7  C   UNL     1      52.229 154.240  27.608  0.00  0.00    +0.000 A 
ATOM      8  C   UNL     1      53.060 152.871  25.812  0.00  0.00    +0.000 A 
ATOM      9  C   UNL     1      53.777 152.668  24.624  0.00  0.00    +0.000 A 
ATOM     10  C   UNL     1      54.361 153.808  24.084  0.00  0.00    +0.000 A 
ATOM     11  C   UNL     1      54.276 155.058  24.631  0.00  0.00    +0.000 A 
ATOM     12  H   UNL     1      53.934 157.204  25.946  0.00  0.00    +0.000 HD
ENDROOT
BRANCH   9  13
ATOM     13  O   UNL     1      53.858 151.406  24.093  0.00  0.00    +0.000 OA
BRANCH  13  14
ATOM     14  C   UNL     1      54.594 150.399  24.740  0.00  0.00    +0.000 C 
ATOM     15  C   UNL     1      53.870 149.086  24.771  0.00  0.00    +0.000 C 
ENDBRANCH  13  14
ENDBRANCH   9  13
BRANCH   1  16
ATOM     16  C   UNL     1      51.480 155.704  29.512  0.00  0.00    +0.000 C 
BRANCH  16  17
ATOM     17  N   UNL     1      50.889 156.985  29.594  0.00  0.00    +0.000 NA
ATOM     18  H   UNL     1      51.257 157.721  28.951  0.00  0.00    +0.000 HD
BRANCH  17  19
ATOM     19  C   UNL     1      49.541 157.123  29.982  0.00  0.00    +0.000 C 
BRANCH  19  20
ATOM     20  C   UNL     1      49.310 158.508  30.489  0.00  0.00    +0.000 A 
ATOM     21  C   UNL     1      48.221 158.899  31.209  0.00  0.00    +0.000 A 
ATOM     22  C   UNL     1      48.082 160.207  31.596  0.00  0.00    +0.000 A 
ATOM     23  C   UNL     1      49.010 161.185  31.288  0.00  0.00    +0.000 A 
ATOM     24  F   UNL     1      48.794 162.469  31.702  0.00  0.00    +0.000 F 
ATOM     25  C   UNL     1      50.120 160.790  30.556  0.00  0.00    +0.000 A 
ATOM     26  C   UNL     1      50.255 159.463  30.169  0.00  0.00    +0.000 A 
ENDBRANCH  19  20
ENDBRANCH  17  19
ENDBRANCH  16  17
ENDBRANCH   1  16
TORSDOF 6
ENDMDL
