MODEL 1
REMARK VINA RESULT:    -1.035      0.000      0.000
REMARK INTER + INTRA:           0.765
REMARK INTER:                  -1.429
REMARK INTRA:                   2.194
REMARK UNBOUND:                 2.194
REMARK  Name = 
REMARK  8 active torsions:
REMARK  status: ('A' for Active; 'I' for Inactive)
REMARK    1  A    between atoms: N_2  and  C_10
REMARK    2  A    between atoms: C_10  and  C_11
REMARK    3  A    between atoms: C_11  and  N_12
REMARK    4  A    between atoms: N_18  and  C_19
REMARK    5  A    between atoms: C_19  and  C_20
REMARK    6  A    between atoms: C_19  and  C_27
REMARK    7  A    between atoms: C_19  and  N_33
REMARK    8  A    between atoms: C_23  and  C_26
REMARK                            x       y       z     vdW  Elec       q    Type
REMARK                         _______ _______ _______ _____ _____    ______ ____
ROOT
ATOM      1  C   UNL     1      51.714 157.506  29.182  0.00  0.00    +0.000 A 
ATOM      2  N   UNL     1      50.805 158.391  29.643  0.00  0.00    +0.000 N 
ATOM      3  C   UNL     1      51.464 159.483  30.079  0.00  0.00    +0.000 A 
ATOM      4  C   UNL     1      52.816 159.288  29.893  0.00  0.00    +0.000 A 
ATOM      5  N   UNL     1      52.918 158.066  29.342  0.00  0.00    +0.000 NA
ATOM      6  C   UNL     1      53.673 160.292  30.275  0.00  0.00    +0.000 A 
ATOM      7  C   UNL     1      53.233 161.471  30.832  0.00  0.00    +0.000 A 
ATOM      8  C   UNL     1      51.864 161.631  31.004  0.00  0.00    +0.000 A 
ATOM      9  C   UNL     1      50.974 160.647  30.632  0.00  0.00    +0.000 A 
ATOM     10  N   UNL     1      51.444 156.209  28.623  0.00  0.00    +0.000 N 
ATOM     11  H   UNL     1      50.438 155.924  28.559  0.00  0.00    +0.000 HD
ENDROOT
BRANCH   2  12
ATOM     12  C   UNL     1      49.379 158.199  29.667  0.00  0.00    +0.000 C 
BRANCH  12  13
ATOM     13  C   UNL     1      48.840 157.838  31.023  0.00  0.00    +0.000 C 
BRANCH  13  14
ATOM     14  N   UNL     1      48.295 159.001  31.643  0.00  0.00    +0.000 NA
ATOM     15  C   UNL     1      49.108 159.630  32.630  0.00  0.00    +0.000 C 
ATOM     16  C   UNL     1      48.353 160.787  33.254  0.00  0.00    +0.000 C 
ATOM     17  C   UNL     1      48.036 161.848  32.245  0.00  0.00    +0.000 C 
ATOM     18  C   UNL     1      48.063 161.317  30.834  0.00  0.00    +0.000 C 
ATOM     19  C   UNL     1      47.606 159.884  30.753  0.00  0.00    +0.000 C 
ENDBRANCH  13  14
ENDBRANCH  12  13
ENDBRANCH   2  12
BRANCH  10  20
ATOM     20  C   UNL     1      52.561 155.425  28.204  0.00  0.00    +0.000 C 
BRANCH  20  21
ATOM     21  C   UNL     1      52.298 154.007  27.958  0.00  0.00    +0.000 A 
ATOM     22  C   UNL     1      52.875 153.486  26.793  0.00  0.00    +0.000 A 
ATOM     23  C   UNL     1      52.720 152.171  26.428  0.00  0.00    +0.000 A 
ATOM     24  C   UNL     1      51.976 151.351  27.235  0.00  0.00    +0.000 A 
ATOM     25  C   UNL     1      51.403 151.848  28.383  0.00  0.00    +0.000 A 
ATOM     26  C   UNL     1      51.553 153.168  28.756  0.00  0.00    +0.000 A 
ATOM     27  C   UNL     1      51.826 149.926  26.807  0.00  0.00    +0.000 C 
ENDBRANCH  20  21
BRANCH  20  28
ATOM     28  C   UNL     1      53.000 156.004  26.882  0.00  0.00    +0.000 A 
ATOM     29  C   UNL     1      52.307 155.547  25.768  0.00  0.00    +0.000 A 
ATOM     30  C   UNL     1      52.644 156.022  24.528  0.00  0.00    +0.000 A 
ATOM     31  N   UNL     1      53.634 156.918  24.391  0.00  0.00    +0.000 NA
ATOM     32  C   UNL     1      54.316 157.371  25.469  0.00  0.00    +0.000 A 
ATOM     33  C   UNL     1      54.005 156.913  26.749  0.00  0.00    +0.000 A 
ENDBRANCH  20  28
BRANCH  20  34
ATOM     34  N   UNL     1      53.689 155.528  29.114  0.00  0.00    +0.000 NA
ATOM     35  H   UNL     1      53.681 154.694  29.731  0.00  0.00    +0.000 HD
ATOM     36  H   UNL     1      53.541 156.385  29.697  0.00  0.00    +0.000 HD
ENDBRANCH  20  34
ENDBRANCH  10  20
TORSDOF 7
ENDMDL
