MODEL 1
REMARK VINA RESULT:    -9.197      0.000      0.000
REMARK INTER + INTRA:         -11.617
REMARK INTER:                 -11.347
REMARK INTRA:                  -0.270
REMARK UNBOUND:                -0.270
REMARK  Name = 
REMARK  7 active torsions:
REMARK  status: ('A' for Active; 'I' for Inactive)
REMARK    1  A    between atoms: C_1  and  C_16
REMARK    2  A    between atoms: C_3  and  N_4
REMARK    3  A    between atoms: C_7  and  C_11
REMARK    4  A    between atoms: C_13  and  C_15
REMARK    5  A    between atoms: C_19  and  C_21
REMARK    6  A    between atoms: C_21  and  N_22
REMARK    7  A    between atoms: N_22  and  C_23
REMARK                            x       y       z     vdW  Elec       q    Type
REMARK                         _______ _______ _______ _____ _____    ______ ____
ROOT
ATOM      1  C   UNL     1      52.326 155.638  27.330  0.00  0.00    +0.000 A 
ATOM      2  N   UNL     1      52.493 156.861  27.790  0.00  0.00    +0.000 NA
ATOM      3  C   UNL     1      52.201 157.268  29.065  0.00  0.00    +0.000 A 
ATOM      4  C   UNL     1      51.699 156.288  29.880  0.00  0.00    +0.000 A 
ATOM      5  C   UNL     1      51.504 154.982  29.439  0.00  0.00    +0.000 A 
ATOM      6  N   UNL     1      51.825 154.703  28.175  0.00  0.00    +0.000 NA
ATOM      7  C   UNL     1      50.957 153.967  30.369  0.00  0.00    +0.000 C 
ENDROOT
BRANCH   3   8
ATOM      8  N   UNL     1      52.408 158.595  29.472  0.00  0.00    +0.000 N 
ATOM      9  C   UNL     1      51.536 159.422  30.186  0.00  0.00    +0.000 A 
ATOM     10  N   UNL     1      50.327 159.112  30.631  0.00  0.00    +0.000 NA
ATOM     11  C   UNL     1      49.530 159.945  31.310  0.00  0.00    +0.000 A 
ATOM     12  C   UNL     1      49.929 161.225  31.601  0.00  0.00    +0.000 A 
ATOM     13  C   UNL     1      51.181 161.617  31.168  0.00  0.00    +0.000 A 
ATOM     14  C   UNL     1      51.951 160.726  30.478  0.00  0.00    +0.000 A 
ATOM     15  C   UNL     1      48.191 159.497  31.767  0.00  0.00    +0.000 C 
ATOM     16  H   UNL     1      53.358 158.999  29.189  0.00  0.00    +0.000 HD
ENDBRANCH   3   8
BRANCH   1  17
ATOM     17  C   UNL     1      52.644 155.206  25.950  0.00  0.00    +0.000 C 
ATOM     18  C   UNL     1      53.803 154.270  25.879  0.00  0.00    +0.000 C 
ATOM     19  N   UNL     1      54.452 154.407  24.594  0.00  0.00    +0.000 N 
ATOM     20  C   UNL     1      54.481 153.375  23.627  0.00  0.00    +0.000 C 
ATOM     21  O   UNL     1      55.056 153.539  22.520  0.00  0.00    +0.000 OA
ATOM     22  C   UNL     1      55.105 155.665  24.295  0.00  0.00    +0.000 C 
ATOM     23  C   UNL     1      54.456 156.725  25.170  0.00  0.00    +0.000 C 
ATOM     24  C   UNL     1      52.964 156.483  25.180  0.00  0.00    +0.000 C 
BRANCH  20  25
ATOM     25  C   UNL     1      53.837 152.048  23.856  0.00  0.00    +0.000 C 
BRANCH  25  26
ATOM     26  N   UNL     1      54.638 151.177  24.652  0.00  0.00    +0.000 NA
ATOM     27  C   UNL     1      54.235 149.808  24.677  0.00  0.00    +0.000 C 
ATOM     28  H   UNL     1      54.684 151.526  25.617  0.00  0.00    +0.000 HD
ENDBRANCH  25  26
ENDBRANCH  20  25
ENDBRANCH   1  17
TORSDOF 4
ENDMDL
