MODEL 1
REMARK VINA RESULT:     5.119      0.000      0.000
REMARK INTER + INTRA:           6.843
REMARK INTER:                   6.466
REMARK INTRA:                   0.377
REMARK UNBOUND:                 0.377
REMARK  Name = 
REMARK  9 active torsions:
REMARK  status: ('A' for Active; 'I' for Inactive)
REMARK    1  A    between atoms: C_4  and  N_21
REMARK    2  A    between atoms: C_5  and  C_19
REMARK    3  A    between atoms: C_6  and  C_7
REMARK    4  A    between atoms: C_10  and  O_13
REMARK    5  A    between atoms: O_13  and  C_14
REMARK    6  A    between atoms: C_24  and  C_25
REMARK    7  A    between atoms: C_25  and  C_26
REMARK    8  A    between atoms: C_25  and  C_27
REMARK    9  A    between atoms: C_25  and  C_28
REMARK                            x       y       z     vdW  Elec       q    Type
REMARK                         _______ _______ _______ _____ _____    ______ ____
ROOT
ATOM      1  C   UNL     1      51.726 158.620  29.884  0.00  0.00    +0.000 A 
ATOM      2  C   UNL     1      52.915 157.992  29.581  0.00  0.00    +0.000 A 
ATOM      3  O   UNL     1      54.143 158.633  29.581  0.00  0.00    +0.000 OA
ATOM      4  C   UNL     1      54.166 159.969  29.902  0.00  0.00    +0.000 C 
ATOM      5  C   UNL     1      53.054 160.601  30.191  0.00  0.00    +0.000 C 
ATOM      6  C   UNL     1      51.694 159.999  30.206  0.00  0.00    +0.000 C 
ATOM      7  N   UNL     1      52.708 156.697  29.293  0.00  0.00    +0.000 NA
ATOM      8  N   UNL     1      51.415 156.489  29.408  0.00  0.00    +0.000 N 
ATOM      9  C   UNL     1      50.776 157.617  29.763  0.00  0.00    +0.000 A 
ATOM     10  H   UNL     1      51.028 155.516  29.222  0.00  0.00    +0.000 HD
ENDROOT
BRANCH   6  11
ATOM     11  C   UNL     1      50.970 160.583  31.292  0.00  0.00    +0.000 A 
ATOM     12  C   UNL     1      49.703 161.140  31.163  0.00  0.00    +0.000 A 
ATOM     13  C   UNL     1      49.020 161.681  32.231  0.00  0.00    +0.000 A 
ATOM     14  C   UNL     1      49.554 161.702  33.491  0.00  0.00    +0.000 A 
ATOM     15  C   UNL     1      50.793 161.168  33.662  0.00  0.00    +0.000 A 
ATOM     16  C   UNL     1      51.477 160.627  32.599  0.00  0.00    +0.000 A 
ATOM     17  C   UNL     1      47.765 162.225  32.058  0.00  0.00    +0.000 A 
ATOM     18  C   UNL     1      47.143 162.255  30.834  0.00  0.00    +0.000 A 
ATOM     19  C   UNL     1      47.825 161.715  29.768  0.00  0.00    +0.000 A 
ATOM     20  C   UNL     1      49.097 161.164  29.945  0.00  0.00    +0.000 A 
BRANCH  14  21
ATOM     21  O   UNL     1      48.904 162.235  34.587  0.00  0.00    +0.000 OA
ATOM     22  C   UNL     1      47.634 161.848  35.011  0.00  0.00    +0.000 C 
ENDBRANCH  14  21
ENDBRANCH   6  11
BRANCH   9  23
ATOM     23  C   UNL     1      49.371 157.686  29.959  0.00  0.00    +0.000 C 
ATOM     24  C   UNL     1      48.531 158.570  29.123  0.00  0.00    +0.000 C 
ATOM     25  C   UNL     1      48.770 156.295  29.712  0.00  0.00    +0.000 C 
ATOM     26  C   UNL     1      49.008 158.008  31.401  0.00  0.00    +0.000 C 
ENDBRANCH   9  23
BRANCH   4  27
ATOM     27  N   UNL     1      55.445 160.635  29.908  0.00  0.00    +0.000 N 
ATOM     28  H   UNL     1      55.553 161.655  29.916  0.00  0.00    +0.000 HD
ATOM     29  H   UNL     1      56.285 160.028  29.905  0.00  0.00    +0.000 HD
ENDBRANCH   4  27
BRANCH   5  30
ATOM     30  C   UNL     1      53.231 162.012  30.518  0.00  0.00    +0.000 C 
ATOM     31  N   UNL     1      53.388 163.134  30.782  0.00  0.00    +0.000 NA
ENDBRANCH   5  30
TORSDOF 5
ENDMDL
