MODEL 1
REMARK VINA RESULT:    -8.327      0.000      0.000
REMARK INTER + INTRA:          -8.505
REMARK INTER:                 -11.004
REMARK INTRA:                   2.499
REMARK UNBOUND:                 2.499
REMARK  Name = 
REMARK  6 active torsions:
REMARK  status: ('A' for Active; 'I' for Inactive)
REMARK    1  A    between atoms: C_1  and  S_7
REMARK    2  A    between atoms: N_2  and  N_6
REMARK    3  A    between atoms: S_7  and  C_8
REMARK    4  A    between atoms: C_8  and  C_9
REMARK    5  A    between atoms: N_11  and  C_12
REMARK    6  A    between atoms: N_11  and  C_18
REMARK                            x       y       z     vdW  Elec       q    Type
REMARK                         _______ _______ _______ _____ _____    ______ ____
ROOT
ATOM      1  C   UNL     1      51.972 153.509  27.135  0.00  0.00    +0.000 C 
ATOM      2  O   UNL     1      51.356 152.521  27.675  0.00  0.00    +0.000 OA
ATOM      3  N   UNL     1      53.034 153.220  26.246  0.00  0.00    +0.000 N 
ENDROOT
BRANCH   3   4
ATOM      4  C   UNL     1      53.338 151.821  25.988  0.00  0.00    +0.000 C 
ATOM      5  C   UNL     1      52.111 150.950  25.991  0.00  0.00    +0.000 C 
ATOM      6  C   UNL     1      52.625 149.510  26.130  0.00  0.00    +0.000 C 
ATOM      7  C   UNL     1      53.566 149.161  25.015  0.00  0.00    +0.000 C 
ATOM      8  C   UNL     1      54.617 150.186  24.744  0.00  0.00    +0.000 C 
ATOM      9  C   UNL     1      54.029 151.604  24.660  0.00  0.00    +0.000 C 
ENDBRANCH   3   4
BRANCH   3  10
ATOM     10  C   UNL     1      53.868 154.170  25.580  0.00  0.00    +0.000 C 
ATOM     11  C   UNL     1      53.572 155.545  26.159  0.00  0.00    +0.000 C 
ATOM     12  C   UNL     1      53.665 156.537  25.043  0.00  0.00    +0.000 C 
ATOM     13  C   UNL     1      54.997 156.317  24.345  0.00  0.00    +0.000 C 
ATOM     14  C   UNL     1      55.077 154.969  23.659  0.00  0.00    +0.000 C 
ATOM     15  C   UNL     1      53.844 154.153  24.093  0.00  0.00    +0.000 C 
ENDBRANCH   3  10
BRANCH   1  16
ATOM     16  C   UNL     1      51.482 154.835  27.515  0.00  0.00    +0.000 C 
BRANCH  16  17
ATOM     17  S   UNL     1      51.695 155.146  29.313  0.00  0.00    +0.000 S 
BRANCH  17  18
ATOM     18  C   UNL     1      51.284 156.850  29.664  0.00  0.00    +0.000 A 
ATOM     19  N   UNL     1      52.060 157.949  29.525  0.00  0.00    +0.000 N 
ATOM     20  C   UNL     1      51.352 159.042  29.905  0.00  0.00    +0.000 A 
ATOM     21  N   UNL     1      50.151 158.584  30.272  0.00  0.00    +0.000 NA
ATOM     22  N   UNL     1      50.103 157.264  30.129  0.00  0.00    +0.000 NA
BRANCH  19  23
ATOM     23  N   UNL     1      53.370 157.914  29.061  0.00  0.00    +0.000 N 
ATOM     24  H   UNL     1      53.764 158.743  28.555  0.00  0.00    +0.000 HD
ATOM     25  H   UNL     1      54.006 157.084  29.192  0.00  0.00    +0.000 HD
ENDBRANCH  19  23
ENDBRANCH  17  18
ENDBRANCH  16  17
ENDBRANCH   1  16
TORSDOF 6
ENDMDL
