MODEL 1
REMARK VINA RESULT:    -4.466      0.000      0.000
REMARK INTER + INTRA:          -2.794
REMARK INTER:                  -7.729
REMARK INTRA:                   4.936
REMARK UNBOUND:                 4.936
REMARK  Name = 
REMARK  14 active torsions:
REMARK  status: ('A' for Active; 'I' for Inactive)
REMARK    1  A    between atoms: N_1  and  C_2
REMARK    2  A    between atoms: C_2  and  C_3
REMARK    3  A    between atoms: C_2  and  C_10
REMARK    4  A    between atoms: C_10  and  N_11
REMARK    5  A    between atoms: C_15  and  N_16
REMARK    6  A    between atoms: N_16  and  C_17
REMARK    7  A    between atoms: C_18  and  O_19
REMARK    8  A    between atoms: O_19  and  C_20
REMARK    9  A    between atoms: C_25  and  C_27
REMARK   10  A    between atoms: C_27  and  N_28
REMARK   11  A    between atoms: N_28  and  C_29
REMARK   12  A    between atoms: C_29  and  C_30
REMARK   13  A    between atoms: C_30  and  C_31
REMARK   14  A    between atoms: C_31  and  N_32
REMARK                            x       y       z     vdW  Elec       q    Type
REMARK                         _______ _______ _______ _____ _____    ______ ____
ROOT
ATOM      1  N   UNL     1      53.087 155.538  26.617  0.00  0.00    +0.000 N 
ATOM      2  C   UNL     1      52.726 156.436  27.712  0.00  0.00    +0.000 C 
ATOM      3  O   UNL     1      53.071 157.633  27.571  0.00  0.00    +0.000 OA
ENDROOT
BRANCH   1   4
ATOM      4  C   UNL     1      53.889 156.089  25.603  0.00  0.00    +0.000 A 
ATOM      5  C   UNL     1      54.015 155.412  24.405  0.00  0.00    +0.000 A 
ATOM      6  C   UNL     1      54.761 155.940  23.357  0.00  0.00    +0.000 A 
ATOM      7  C   UNL     1      55.386 157.142  23.488  0.00  0.00    +0.000 A 
ATOM      8  C   UNL     1      55.278 157.834  24.662  0.00  0.00    +0.000 A 
ATOM      9  C   UNL     1      54.525 157.294  25.715  0.00  0.00    +0.000 A 
BRANCH   5  10
ATOM     10  O   UNL     1      53.399 154.215  24.250  0.00  0.00    +0.000 OA
ATOM     11  C   UNL     1      53.770 153.334  23.213  0.00  0.00    +0.000 C 
ENDBRANCH   5  10
ENDBRANCH   1   4
BRANCH   1  16
ATOM     12  N   UNL     1      53.409 153.163  27.055  0.00  0.00    +0.000 NA
ATOM     13  C   UNL     1      52.855 152.431  28.154  0.00  0.00    +0.000 C 
ATOM     14  C   UNL     1      51.395 152.779  28.232  0.00  0.00    +0.000 C 
ATOM     15  C   UNL     1      51.367 154.218  27.676  0.00  0.00    +0.000 C 
ATOM     16  C   UNL     1      52.537 154.215  26.699  0.00  0.00    +0.000 C 
BRANCH  12  17
ATOM     17  C   UNL     1      54.129 152.473  26.090  0.00  0.00    +0.000 C 
BRANCH  17  18
ATOM     18  C   UNL     1      53.836 151.122  25.680  0.00  0.00    +0.000 A 
ATOM     19  C   UNL     1      54.562 150.299  24.868  0.00  0.00    +0.000 A 
ATOM     20  C   UNL     1      54.133 149.016  24.507  0.00  0.00    +0.000 A 
ATOM     21  C   UNL     1      52.940 148.527  24.966  0.00  0.00    +0.000 A 
ATOM     22  C   UNL     1      52.189 149.323  25.778  0.00  0.00    +0.000 A 
ATOM     23  C   UNL     1      52.617 150.567  26.122  0.00  0.00    +0.000 A 
ATOM     24  F   UNL     1      52.503 147.270  24.619  0.00  0.00    +0.000 F 
ENDBRANCH  17  18
BRANCH  17  25
ATOM     25  C   UNL     1      55.634 152.563  26.426  0.00  0.00    +0.000 C 
BRANCH  25  26
ATOM     26  N   UNL     1      56.373 153.180  25.358  0.00  0.00    +0.000 NA
ATOM     27  H   UNL     1      55.679 153.512  24.639  0.00  0.00    +0.000 HD
ATOM     28  H   UNL     1      56.953 153.982  25.693  0.00  0.00    +0.000 HD
ENDBRANCH  25  26
ENDBRANCH  17  25
ENDBRANCH  12  17
ENDBRANCH   1  16
BRANCH   2  29
ATOM     29  C   UNL     1      52.014 156.000  28.915  0.00  0.00    +0.000 C 
BRANCH  29  30
ATOM     30  N   UNL     1      51.960 157.095  29.840  0.00  0.00    +0.000 NA
ATOM     31  H   UNL     1      52.301 156.912  30.791  0.00  0.00    +0.000 HD
BRANCH  30  32
ATOM     32  C   UNL     1      50.710 157.824  29.855  0.00  0.00    +0.000 C 
BRANCH  32  33
ATOM     33  C   UNL     1      51.047 159.299  30.041  0.00  0.00    +0.000 C 
BRANCH  33  34
ATOM     34  C   UNL     1      49.927 160.231  29.744  0.00  0.00    +0.000 C 
BRANCH  34  35
ATOM     35  N   UNL     1      49.671 161.242  30.725  0.00  0.00    +0.000 NA
ATOM     36  C   UNL     1      48.221 161.281  30.911  0.00  0.00    +0.000 C 
ATOM     37  C   UNL     1      47.918 160.469  32.164  0.00  0.00    +0.000 C 
ATOM     38  O   UNL     1      48.385 161.108  33.300  0.00  0.00    +0.000 OA
ATOM     39  C   UNL     1      49.691 161.532  33.165  0.00  0.00    +0.000 C 
ATOM     40  C   UNL     1      50.338 160.909  31.950  0.00  0.00    +0.000 C 
ENDBRANCH  34  35
ENDBRANCH  33  34
ENDBRANCH  32  33
ENDBRANCH  30  32
ENDBRANCH  29  30
ENDBRANCH   2  29
TORSDOF 13
ENDMDL
