MODEL 1
REMARK VINA RESULT:   -10.734      0.000      0.000
REMARK INTER + INTRA:         -12.597
REMARK INTER:                 -12.930
REMARK INTRA:                   0.333
REMARK UNBOUND:                 0.333
REMARK  Name = 
REMARK  5 active torsions:
REMARK  status: ('A' for Active; 'I' for Inactive)
REMARK    1  A    between atoms: N_1  and  C_15
REMARK    2  A    between atoms: C_10  and  C_12
REMARK    3  A    between atoms: C_12  and  O_14
REMARK    4  A    between atoms: C_17  and  C_18
REMARK    5  A    between atoms: C_18  and  C_20
REMARK                            x       y       z     vdW  Elec       q    Type
REMARK                         _______ _______ _______ _____ _____    ______ ____
ROOT
ATOM      1  N   UNL     1      52.794 154.608  26.729  0.00  0.00    +0.000 N 
ATOM      2  C   UNL     1      53.115 155.990  26.794  0.00  0.00    +0.000 C 
ATOM      3  O   UNL     1      53.886 156.586  25.993  0.00  0.00    +0.000 OA
ATOM      4  C   UNL     1      52.401 156.553  27.926  0.00  0.00    +0.000 A 
ATOM      5  C   UNL     1      51.657 155.579  28.559  0.00  0.00    +0.000 A 
ATOM      6  C   UNL     1      51.899 154.355  27.812  0.00  0.00    +0.000 C 
ATOM      7  O   UNL     1      51.397 153.240  28.078  0.00  0.00    +0.000 OA
ATOM      8  C   UNL     1      50.888 155.875  29.667  0.00  0.00    +0.000 A 
ATOM      9  C   UNL     1      50.858 157.181  30.160  0.00  0.00    +0.000 A 
ATOM     10  C   UNL     1      51.593 158.167  29.543  0.00  0.00    +0.000 A 
ATOM     11  C   UNL     1      52.348 157.833  28.442  0.00  0.00    +0.000 A 
ENDROOT
BRANCH   1  12
ATOM     12  C   UNL     1      53.249 153.637  25.786  0.00  0.00    +0.000 A 
ATOM     13  C   UNL     1      53.122 152.276  25.962  0.00  0.00    +0.000 A 
ATOM     14  C   UNL     1      53.571 151.339  25.044  0.00  0.00    +0.000 A 
ATOM     15  C   UNL     1      54.182 151.813  23.883  0.00  0.00    +0.000 A 
ATOM     16  C   UNL     1      54.322 153.170  23.682  0.00  0.00    +0.000 A 
ATOM     17  C   UNL     1      53.862 154.068  24.622  0.00  0.00    +0.000 A 
BRANCH  14  18
ATOM     18  C   UNL     1      53.418 149.910  25.265  0.00  0.00    +0.000 C 
ATOM     19  O   UNL     1      52.488 149.524  26.009  0.00  0.00    +0.000 OA
ATOM     20  C   UNL     1      54.343 148.977  24.619  0.00  0.00    +0.000 C 
ENDBRANCH  14  18
ENDBRANCH   1  12
BRANCH  10  21
ATOM     21  C   UNL     1      51.558 159.520  30.057  0.00  0.00    +0.000 C 
ATOM     22  O   UNL     1      50.452 160.054  30.298  0.00  0.00    +0.000 OA
BRANCH  21  23
ATOM     23  O   UNL     1      52.726 160.238  30.286  0.00  0.00    +0.000 OA
ATOM     24  H   UNL     1      52.977 161.060  29.748  0.00  0.00    +0.000 HD
ENDBRANCH  21  23
ENDBRANCH  10  21
TORSDOF 4
ENDMDL
