MODEL 1
REMARK VINA RESULT:    -9.511      0.000      0.000
REMARK INTER + INTRA:         -10.567
REMARK INTER:                 -11.179
REMARK INTRA:                   0.612
REMARK UNBOUND:                 0.612
REMARK  Name = 
REMARK  6 active torsions:
REMARK  status: ('A' for Active; 'I' for Inactive)
REMARK    1  A    between atoms: C_2  and  C_4
REMARK    2  A    between atoms: C_4  and  C_5
REMARK    3  A    between atoms: C_5  and  C_6
REMARK    4  A    between atoms: C_5  and  C_7
REMARK    5  A    between atoms: C_5  and  C_8
REMARK    6  A    between atoms: C_13  and  C_16
REMARK                            x       y       z     vdW  Elec       q    Type
REMARK                         _______ _______ _______ _____ _____    ______ ____
ROOT
ATOM      1  N   UNL     1      50.874 157.647  29.865  0.00  0.00    +0.000 N 
ATOM      2  C   UNL     1      50.046 158.777  30.048  0.00  0.00    +0.000 C 
ATOM      3  O   UNL     1      50.439 159.884  29.596  0.00  0.00    +0.000 OA
ATOM      4  C   UNL     1      52.138 157.807  29.165  0.00  0.00    +0.000 C 
ATOM      5  C   UNL     1      52.320 156.707  28.179  0.00  0.00    +0.000 A 
ATOM      6  C   UNL     1      51.546 155.586  28.190  0.00  0.00    +0.000 A 
ATOM      7  N   UNL     1      51.773 154.638  27.269  0.00  0.00    +0.000 NA
ATOM      8  C   UNL     1      52.726 154.725  26.325  0.00  0.00    +0.000 A 
ATOM      9  N   UNL     1      53.487 155.816  26.305  0.00  0.00    +0.000 NA
ATOM     10  C   UNL     1      53.307 156.803  27.206  0.00  0.00    +0.000 A 
ATOM     11  C   UNL     1      50.450 155.344  29.171  0.00  0.00    +0.000 C 
ATOM     12  C   UNL     1      50.563 156.310  30.329  0.00  0.00    +0.000 C 
ENDROOT
BRANCH   8  13
ATOM     13  C   UNL     1      52.891 153.621  25.356  0.00  0.00    +0.000 C 
ATOM     14  C   UNL     1      53.597 152.427  25.968  0.00  0.00    +0.000 C 
ATOM     15  N   UNL     1      53.906 151.647  24.771  0.00  0.00    +0.000 NA
ATOM     16  C   UNL     1      54.239 152.582  23.740  0.00  0.00    +0.000 C 
ATOM     17  C   UNL     1      53.773 153.953  24.200  0.00  0.00    +0.000 C 
ATOM     18  H   UNL     1      52.995 151.146  24.539  0.00  0.00    +0.000 HD
ENDBRANCH   8  13
BRANCH   2  19
ATOM     19  C   UNL     1      48.749 158.720  30.741  0.00  0.00    +0.000 C 
BRANCH  19  20
ATOM     20  C   UNL     1      48.468 159.934  31.572  0.00  0.00    +0.000 C 
ATOM     21  C   UNL     1      49.376 160.009  32.793  0.00  0.00    +0.000 C 
ATOM     22  C   UNL     1      47.050 159.840  32.097  0.00  0.00    +0.000 C 
ATOM     23  C   UNL     1      48.636 161.226  30.813  0.00  0.00    +0.000 C 
ENDBRANCH  19  20
ENDBRANCH   2  19
TORSDOF 3
ENDMDL
