MODEL 1
REMARK VINA RESULT:    40.972      0.000      0.000
REMARK INTER + INTRA:          48.908
REMARK INTER:                  49.355
REMARK INTRA:                  -0.446
REMARK UNBOUND:                -0.446
REMARK  Name = 
REMARK  7 active torsions:
REMARK  status: ('A' for Active; 'I' for Inactive)
REMARK    1  A    between atoms: C_5  and  N_40
REMARK    2  A    between atoms: C_6  and  C_25
REMARK    3  A    between atoms: C_9  and  C_15
REMARK    4  A    between atoms: C_11  and  C_14
REMARK    5  A    between atoms: C_19  and  N_20
REMARK    6  A    between atoms: C_34  and  C_36
REMARK    7  A    between atoms: C_36  and  N_37
REMARK                            x       y       z     vdW  Elec       q    Type
REMARK                         _______ _______ _______ _____ _____    ______ ____
ROOT
ATOM      1  C   UNL     1      53.030 155.522  24.282  0.00  0.00    +0.000 C 
ATOM      2  N   UNL     1      52.470 156.479  23.624  0.00  0.00    +0.000 NA
ATOM      3  C   UNL     1      51.876 157.544  24.399  0.00  0.00    +0.000 C 
ATOM      4  N   UNL     1      51.759 157.558  25.704  0.00  0.00    +0.000 NA
ATOM      5  C   UNL     1      52.194 156.377  26.417  0.00  0.00    +0.000 C 
ATOM      6  C   UNL     1      53.123 155.669  25.700  0.00  0.00    +0.000 C 
ATOM      7  C   UNL     1      53.507 154.283  25.695  0.00  0.00    +0.000 C 
ATOM      8  C   UNL     1      53.469 154.121  24.353  0.00  0.00    +0.000 C 
ATOM      9  C   UNL     1      53.750 152.987  23.499  0.00  0.00    +0.000 C 
ATOM     10  C   UNL     1      54.001 151.713  23.780  0.00  0.00    +0.000 C 
ATOM     11  C   UNL     1      54.123 150.832  24.947  0.00  0.00    +0.000 C 
ATOM     12  C   UNL     1      54.140 151.000  26.265  0.00  0.00    +0.000 C 
ATOM     13  C   UNL     1      54.042 152.168  27.126  0.00  0.00    +0.000 C 
ATOM     14  C   UNL     1      54.260 149.381  24.553  0.00  0.00    +0.000 C 
ATOM     15  C   UNL     1      53.728 153.377  22.080  0.00  0.00    +0.000 C 
ATOM     16  C   UNL     1      53.796 153.425  26.874  0.00  0.00    +0.000 C 
ATOM     17  C   UNL     1      53.910 153.702  28.352  0.00  0.00    +0.000 C 
ATOM     18  N   UNL     1      54.140 154.937  28.759  0.00  0.00    +0.000 NA
ATOM     19  C   UNL     1      53.495 156.263  28.572  0.00  0.00    +0.000 C 
ATOM     20  C   UNL     1      53.702 152.461  29.050  0.00  0.00    +0.000 C 
ATOM     21  C   UNL     1      52.186 152.258  29.506  0.00  0.00    +0.000 C 
ATOM     22  C   UNL     1      51.690 153.650  29.395  0.00  0.00    +0.000 C 
ATOM     23  C   UNL     1      50.405 154.199  29.689  0.00  0.00    +0.000 C 
ATOM     24  C   UNL     1      52.394 156.536  27.915  0.00  0.00    +0.000 C 
ATOM     25  C   UNL     1      51.039 156.909  28.287  0.00  0.00    +0.000 C 
ATOM     26  C   UNL     1      50.449 156.608  29.590  0.00  0.00    +0.000 C 
ATOM     27  O   UNL     1      50.466 155.434  30.196  0.00  0.00    +0.000 OA
ATOM     28  C   UNL     1      50.854 157.644  30.673  0.00  0.00    +0.000 C 
ATOM     29  C   UNL     1      50.713 159.029  30.191  0.00  0.00    +0.000 C 
ATOM     30  N   UNL     1      49.514 159.305  29.438  0.00  0.00    +0.000 N 
ATOM     31  C   UNL     1      49.222 160.665  29.143  0.00  0.00    +0.000 C 
ATOM     32  O   UNL     1      50.066 161.538  29.592  0.00  0.00    +0.000 OA
ATOM     33  C   UNL     1      48.633 158.274  28.991  0.00  0.00    +0.000 C 
ATOM     34  C   UNL     1      48.949 156.895  29.482  0.00  0.00    +0.000 C 
ATOM     35  N   UNL     1      51.374 158.676  23.695  0.00  0.00    +0.000 N 
ATOM     36  H   UNL     1      52.022 159.283  23.176  0.00  0.00    +0.000 HD
ATOM     37  H   UNL     1      50.340 158.888  23.709  0.00  0.00    +0.000 HD
ENDROOT
BRANCH  19  38
ATOM     38  N   UNL     1      54.315 157.198  29.257  0.00  0.00    +0.000 N 
ATOM     39  H   UNL     1      54.829 156.939  30.113  0.00  0.00    +0.000 HD
ATOM     40  H   UNL     1      54.396 158.157  28.887  0.00  0.00    +0.000 HD
ENDBRANCH  19  38
BRANCH   5  41
ATOM     41  N   UNL     1      50.966 155.492  26.286  0.00  0.00    +0.000 NA
ATOM     42  H   UNL     1      51.179 154.523  26.496  0.00  0.00    +0.000 HD
ATOM     43  H   UNL     1      50.151 155.906  26.718  0.00  0.00    +0.000 HD
ENDBRANCH   5  41
BRANCH   6  44
ATOM     44  C   UNL     1      54.546 156.438  25.926  0.00  0.00    +0.000 C 
ATOM     45  N   UNL     1      55.522 156.982  26.070  0.00  0.00    +0.000 NA
ENDBRANCH   6  44
BRANCH  31  46
ATOM     46  C   UNL     1      48.065 161.157  28.388  0.00  0.00    +0.000 C 
BRANCH  46  47
ATOM     47  N   UNL     1      48.270 161.492  27.029  0.00  0.00    +0.000 NA
ATOM     48  H   UNL     1      47.581 162.176  26.641  0.00  0.00    +0.000 HD
ATOM     49  H   UNL     1      49.249 161.738  26.765  0.00  0.00    +0.000 HD
ENDBRANCH  46  47
ENDBRANCH  31  46
TORSDOF 5
ENDMDL
