MODEL 1
REMARK VINA RESULT:    -7.396      0.000      0.000
REMARK INTER + INTRA:          -9.066
REMARK INTER:                 -10.638
REMARK INTRA:                   1.573
REMARK UNBOUND:                 1.573
REMARK  Name = 
REMARK  10 active torsions:
REMARK  status: ('A' for Active; 'I' for Inactive)
REMARK    1  A    between atoms: N_1  and  C_15
REMARK    2  A    between atoms: C_2  and  C_3
REMARK    3  A    between atoms: C_5  and  C_11
REMARK    4  A    between atoms: C_7  and  N_9
REMARK    5  A    between atoms: N_9  and  C_10
REMARK    6  A    between atoms: C_15  and  C_16
REMARK    7  A    between atoms: C_17  and  O_18
REMARK    8  A    between atoms: O_18  and  C_19
REMARK    9  A    between atoms: C_19  and  C_20
REMARK   10  A    between atoms: C_20  and  O_22
REMARK                            x       y       z     vdW  Elec       q    Type
REMARK                         _______ _______ _______ _____ _____    ______ ____
ROOT
ATOM      1  N   UNL     1      52.385 156.769  29.011  0.00  0.00    +0.000 NA
ATOM      2  C   UNL     1      51.794 155.924  27.991  0.00  0.00    +0.000 C 
ATOM      3  C   UNL     1      51.221 154.773  28.776  0.00  0.00    +0.000 C 
ATOM      4  C   UNL     1      50.488 155.596  29.850  0.00  0.00    +0.000 C 
ATOM      5  C   UNL     1      51.681 156.476  30.265  0.00  0.00    +0.000 C 
ENDROOT
BRANCH   2   6
ATOM      6  C   UNL     1      52.738 155.519  26.955  0.00  0.00    +0.000 A 
ATOM      7  N   UNL     1      53.286 156.440  26.143  0.00  0.00    +0.000 NA
ATOM      8  C   UNL     1      54.164 156.131  25.168  0.00  0.00    +0.000 A 
ATOM      9  N   UNL     1      54.498 154.835  25.012  0.00  0.00    +0.000 NA
ATOM     10  C   UNL     1      54.010 153.854  25.764  0.00  0.00    +0.000 A 
ATOM     11  C   UNL     1      53.109 154.214  26.758  0.00  0.00    +0.000 A 
ATOM     12  C   UNL     1      54.754 157.192  24.280  0.00  0.00    +0.000 C 
BRANCH  10  13
ATOM     13  N   UNL     1      54.378 152.498  25.581  0.00  0.00    +0.000 N 
ATOM     14  C   UNL     1      53.999 151.713  24.441  0.00  0.00    +0.000 C 
ATOM     15  H   UNL     1      54.959 152.038  26.315  0.00  0.00    +0.000 HD
ENDBRANCH  10  13
ENDBRANCH   2   6
BRANCH   1  16
ATOM     16  C   UNL     1      52.070 158.176  28.730  0.00  0.00    +0.000 C 
BRANCH  16  17
ATOM     17  C   UNL     1      51.146 158.739  29.697  0.00  0.00    +0.000 A 
ATOM     18  C   UNL     1      51.556 159.818  30.477  0.00  0.00    +0.000 A 
ATOM     19  C   UNL     1      50.750 160.407  31.427  0.00  0.00    +0.000 A 
ATOM     20  C   UNL     1      49.476 159.919  31.625  0.00  0.00    +0.000 A 
ATOM     21  C   UNL     1      49.038 158.858  30.874  0.00  0.00    +0.000 A 
ATOM     22  C   UNL     1      49.877 158.283  29.922  0.00  0.00    +0.000 A 
BRANCH  18  23
ATOM     23  O   UNL     1      52.838 160.315  30.284  0.00  0.00    +0.000 OA
BRANCH  23  24
ATOM     24  C   UNL     1      53.189 161.636  30.639  0.00  0.00    +0.000 C 
BRANCH  24  25
ATOM     25  C   UNL     1      54.621 161.646  31.059  0.00  0.00    +0.000 C 
ATOM     26  O   UNL     1      55.013 162.243  32.087  0.00  0.00    +0.000 OA
BRANCH  25  27
ATOM     27  O   UNL     1      55.550 160.963  30.275  0.00  0.00    +0.000 OA
ATOM     28  H   UNL     1      55.417 160.944  29.261  0.00  0.00    +0.000 HD
ENDBRANCH  25  27
ENDBRANCH  24  25
ENDBRANCH  23  24
ENDBRANCH  18  23
ENDBRANCH  16  17
ENDBRANCH   1  16
TORSDOF 8
ENDMDL
