MODEL 1
REMARK VINA RESULT:    -3.568      0.000      0.000
REMARK INTER + INTRA:          -5.016
REMARK INTER:                  -4.298
REMARK INTRA:                  -0.718
REMARK UNBOUND:                -0.718
REMARK  Name = 
REMARK  9 active torsions:
REMARK  status: ('A' for Active; 'I' for Inactive)
REMARK    1  A    between atoms: C_3  and  C_13
REMARK    2  A    between atoms: C_3  and  C_14
REMARK    3  A    between atoms: C_8  and  O_11
REMARK    4  A    between atoms: O_11  and  C_12
REMARK    5  A    between atoms: C_16  and  C_22
REMARK    6  A    between atoms: C_17  and  C_19
REMARK    7  A    between atoms: C_19  and  C_20
REMARK    8  A    between atoms: C_19  and  C_21
REMARK    9  A    between atoms: C_22  and  O_24
REMARK                            x       y       z     vdW  Elec       q    Type
REMARK                         _______ _______ _______ _____ _____    ______ ____
ROOT
ATOM      1  C   UNL     1      50.329 159.690  30.514  0.00  0.00    +0.000 C 
ATOM      2  C   UNL     1      49.108 160.067  31.262  0.00  0.00    +0.000 C 
ATOM      3  C   UNL     1      47.856 159.383  30.878  0.00  0.00    +0.000 C 
ATOM      4  O   UNL     1      48.023 158.087  30.335  0.00  0.00    +0.000 OA
ATOM      5  C   UNL     1      49.246 157.553  29.984  0.00  0.00    +0.000 A 
ATOM      6  C   UNL     1      50.391 158.314  30.061  0.00  0.00    +0.000 A 
ATOM      7  C   UNL     1      51.593 157.755  29.704  0.00  0.00    +0.000 A 
ATOM      8  C   UNL     1      51.667 156.421  29.262  0.00  0.00    +0.000 A 
ATOM      9  C   UNL     1      50.521 155.674  29.189  0.00  0.00    +0.000 A 
ATOM     10  C   UNL     1      49.307 156.247  29.553  0.00  0.00    +0.000 A 
ATOM     11  C   UNL     1      47.005 160.159  29.891  0.00  0.00    +0.000 C 
ATOM     12  C   UNL     1      46.966 159.198  32.119  0.00  0.00    +0.000 C 
ATOM     13  C   UNL     1      49.014 161.600  31.167  0.00  0.00    +0.000 C 
ATOM     14  C   UNL     1      50.309 162.126  31.827  0.00  0.00    +0.000 C 
ATOM     15  C   UNL     1      51.491 161.470  31.203  0.00  0.00    +0.000 C 
ATOM     16  O   UNL     1      51.445 160.077  31.295  0.00  0.00    +0.000 OA
ENDROOT
BRANCH  15  17
ATOM     17  C   UNL     1      52.782 162.111  31.468  0.00  0.00    +0.000 C 
ATOM     18  C   UNL     1      53.900 161.303  32.011  0.00  0.00    +0.000 C 
ATOM     19  C   UNL     1      53.278 162.763  30.159  0.00  0.00    +0.000 C 
ENDBRANCH  15  17
BRANCH   8  20
ATOM     20  O   UNL     1      52.868 155.859  28.905  0.00  0.00    +0.000 OA
ATOM     21  C   UNL     1      52.869 154.698  28.101  0.00  0.00    +0.000 C 
ENDBRANCH   8  20
BRANCH  14  22
ATOM     22  C   UNL     1      50.156 161.977  33.275  0.00  0.00    +0.000 C 
ATOM     23  O   UNL     1      49.274 162.606  33.905  0.00  0.00    +0.000 OA
BRANCH  22  24
ATOM     24  O   UNL     1      50.966 161.145  34.039  0.00  0.00    +0.000 OA
ATOM     25  H   UNL     1      50.994 161.192  35.067  0.00  0.00    +0.000 HD
ENDBRANCH  22  24
ENDBRANCH  14  22
TORSDOF 4
ENDMDL
