MODEL 1
REMARK VINA RESULT:    -5.527      0.000      0.000
REMARK INTER + INTRA:          -8.025
REMARK INTER:                  -8.435
REMARK INTRA:                   0.411
REMARK UNBOUND:                 0.411
REMARK  Name = 
REMARK  11 active torsions:
REMARK  status: ('A' for Active; 'I' for Inactive)
REMARK    1  A    between atoms: C_1  and  C_20
REMARK    2  A    between atoms: C_2  and  O_19
REMARK    3  A    between atoms: N_5  and  C_13
REMARK    4  A    between atoms: C_6  and  C_7
REMARK    5  A    between atoms: C_13  and  C_14
REMARK    6  A    between atoms: C_14  and  C_15
REMARK    7  A    between atoms: C_15  and  C_16
REMARK    8  A    between atoms: C_16  and  O_18
REMARK    9  A    between atoms: C_20  and  C_22
REMARK   10  A    between atoms: C_25  and  O_28
REMARK   11  A    between atoms: O_28  and  C_29
REMARK                            x       y       z     vdW  Elec       q    Type
REMARK                         _______ _______ _______ _____ _____    ______ ____
ROOT
ATOM      1  C   UNL     1      50.551 158.790  29.859  0.00  0.00    +0.000 C 
ATOM      2  C   UNL     1      49.462 158.253  30.318  0.00  0.00    +0.000 C 
ATOM      3  C   UNL     1      48.457 159.291  30.639  0.00  0.00    +0.000 C 
ATOM      4  O   UNL     1      47.325 158.974  31.099  0.00  0.00    +0.000 OA
ATOM      5  N   UNL     1      49.047 160.512  30.327  0.00  0.00    +0.000 N 
ATOM      6  C   UNL     1      50.324 160.293  29.874  0.00  0.00    +0.000 C 
ENDROOT
BRANCH   6   7
ATOM      7  C   UNL     1      51.463 160.946  30.451  0.00  0.00    +0.000 A 
ATOM      8  N   UNL     1      51.858 160.632  31.688  0.00  0.00    +0.000 NA
ATOM      9  C   UNL     1      52.920 161.212  32.291  0.00  0.00    +0.000 A 
ATOM     10  C   UNL     1      53.652 162.172  31.638  0.00  0.00    +0.000 A 
ATOM     11  C   UNL     1      53.282 162.527  30.361  0.00  0.00    +0.000 A 
ATOM     12  C   UNL     1      52.184 161.901  29.788  0.00  0.00    +0.000 A 
ENDBRANCH   6   7
BRANCH   2  13
ATOM     13  O   UNL     1      49.216 156.881  30.496  0.00  0.00    +0.000 OA
ATOM     14  H   UNL     1      49.237 156.440  31.395  0.00  0.00    +0.000 HD
ENDBRANCH   2  13
BRANCH   1  15
ATOM     15  C   UNL     1      51.817 158.222  29.412  0.00  0.00    +0.000 C 
ATOM     16  O   UNL     1      52.855 158.994  29.614  0.00  0.00    +0.000 OA
BRANCH  15  17
ATOM     17  C   UNL     1      52.156 156.986  28.789  0.00  0.00    +0.000 A 
ATOM     18  C   UNL     1      51.819 155.749  29.249  0.00  0.00    +0.000 A 
ATOM     19  C   UNL     1      52.085 154.612  28.523  0.00  0.00    +0.000 A 
ATOM     20  C   UNL     1      52.703 154.651  27.305  0.00  0.00    +0.000 A 
ATOM     21  C   UNL     1      53.053 155.898  26.828  0.00  0.00    +0.000 A 
ATOM     22  C   UNL     1      52.793 157.033  27.538  0.00  0.00    +0.000 A 
BRANCH  20  23
ATOM     23  O   UNL     1      52.983 153.544  26.556  0.00  0.00    +0.000 OA
ATOM     24  C   UNL     1      52.232 152.370  26.515  0.00  0.00    +0.000 C 
ENDBRANCH  20  23
ENDBRANCH  15  17
ENDBRANCH   1  15
BRANCH   5  25
ATOM     25  C   UNL     1      48.305 161.775  30.506  0.00  0.00    +0.000 C 
BRANCH  25  26
ATOM     26  C   UNL     1      48.562 162.432  31.829  0.00  0.00    +0.000 C 
BRANCH  26  27
ATOM     27  C   UNL     1      48.173 161.668  33.040  0.00  0.00    +0.000 C 
BRANCH  27  28
ATOM     28  C   UNL     1      49.316 161.018  33.731  0.00  0.00    +0.000 C 
ATOM     29  O   UNL     1      49.415 159.788  33.928  0.00  0.00    +0.000 OA
BRANCH  28  30
ATOM     30  O   UNL     1      50.387 161.791  34.216  0.00  0.00    +0.000 OA
ATOM     31  H   UNL     1      50.222 162.459  34.955  0.00  0.00    +0.000 HD
ENDBRANCH  28  30
ENDBRANCH  27  28
ENDBRANCH  26  27
ENDBRANCH  25  26
ENDBRANCH   5  25
TORSDOF 10
ENDMDL
