MODEL 1
REMARK VINA RESULT:     0.670      0.000      0.000
REMARK INTER + INTRA:           2.568
REMARK INTER:                   0.944
REMARK INTRA:                   1.624
REMARK UNBOUND:                 1.624
REMARK  Name = 
REMARK  10 active torsions:
REMARK  status: ('A' for Active; 'I' for Inactive)
REMARK    1  A    between atoms: C_2  and  C_4
REMARK    2  A    between atoms: C_6  and  C_7
REMARK    3  A    between atoms: C_7  and  C_8
REMARK    4  A    between atoms: C_17  and  N_18
REMARK    5  A    between atoms: C_19  and  C_20
REMARK    6  A    between atoms: C_20  and  O_22
REMARK    7  A    between atoms: C_25  and  C_26
REMARK    8  A    between atoms: C_28  and  O_33
REMARK    9  A    between atoms: C_29  and  O_32
REMARK   10  A    between atoms: O_33  and  C_34
REMARK                            x       y       z     vdW  Elec       q    Type
REMARK                         _______ _______ _______ _____ _____    ______ ____
ROOT
ATOM      1  N   UNL     1      50.687 157.701  29.374  0.00  0.00    +0.000 NA
ATOM      2  C   UNL     1      49.737 157.359  30.332  0.00  0.00    +0.000 C 
ATOM      3  C   UNL     1      49.588 155.822  30.445  0.00  0.00    +0.000 C 
ATOM      4  S   UNL     1      51.355 155.431  30.431  0.00  0.00    +0.000 S 
ATOM      5  C   UNL     1      51.814 156.802  29.329  0.00  0.00    +0.000 C 
ENDROOT
BRANCH   1  14
ATOM      6  N   UNL     1      50.272 160.036  30.067  0.00  0.00    +0.000 N 
ATOM      7  C   UNL     1      49.079 160.571  29.529  0.00  0.00    +0.000 C 
ATOM      8  O   UNL     1      48.671 160.126  28.408  0.00  0.00    +0.000 OA
ATOM      9  C   UNL     1      48.297 161.612  30.205  0.00  0.00    +0.000 C 
ATOM     10  C   UNL     1      50.699 160.575  31.351  0.00  0.00    +0.000 C 
ATOM     11  C   UNL     1      52.020 161.336  31.163  0.00  0.00    +0.000 C 
ATOM     12  C   UNL     1      52.743 160.768  29.961  0.00  0.00    +0.000 C 
ATOM     13  C   UNL     1      52.515 159.262  29.993  0.00  0.00    +0.000 C 
ATOM     14  C   UNL     1      51.104 159.058  29.463  0.00  0.00    +0.000 C 
BRANCH  11  15
ATOM     15  C   UNL     1      52.938 161.223  32.341  0.00  0.00    +0.000 C 
BRANCH  15  16
ATOM     16  C   UNL     1      54.324 161.658  32.097  0.00  0.00    +0.000 A 
ATOM     17  C   UNL     1      55.282 161.536  33.072  0.00  0.00    +0.000 A 
ATOM     18  C   UNL     1      56.597 161.952  32.860  0.00  0.00    +0.000 A 
ATOM     19  N   UNL     1      56.910 162.481  31.669  0.00  0.00    +0.000 NA
ATOM     20  C   UNL     1      56.010 162.628  30.665  0.00  0.00    +0.000 A 
ATOM     21  C   UNL     1      54.698 162.208  30.889  0.00  0.00    +0.000 A 
ATOM     22 CL   UNL     1      57.836 161.809  34.085  0.00  0.00    +0.000 Cl
ENDBRANCH  15  16
ENDBRANCH  11  15
ENDBRANCH   1  14
BRANCH   5  23
ATOM     23  C   UNL     1      52.140 156.234  28.027  0.00  0.00    +0.000 A 
ATOM     24  C   UNL     1      51.793 154.966  27.603  0.00  0.00    +0.000 A 
ATOM     25  C   UNL     1      52.113 154.448  26.370  0.00  0.00    +0.000 A 
ATOM     26  C   UNL     1      52.822 155.226  25.490  0.00  0.00    +0.000 A 
ATOM     27  C   UNL     1      53.187 156.485  25.863  0.00  0.00    +0.000 A 
ATOM     28  C   UNL     1      52.853 156.977  27.106  0.00  0.00    +0.000 A 
BRANCH  26  29
ATOM     29  O   UNL     1      53.148 154.704  24.240  0.00  0.00    +0.000 OA
ATOM     30  H   UNL     1      53.645 155.306  23.603  0.00  0.00    +0.000 HD
ENDBRANCH  26  29
BRANCH  25  31
ATOM     31  O   UNL     1      51.730 153.143  25.993  0.00  0.00    +0.000 OA
ATOM     32  C   UNL     1      52.462 152.076  26.564  0.00  0.00    +0.000 C 
ENDBRANCH  25  31
ENDBRANCH   5  23
BRANCH   2  33
ATOM     33  C   UNL     1      48.349 157.782  30.079  0.00  0.00    +0.000 C 
ATOM     34  O   UNL     1      47.727 158.489  30.871  0.00  0.00    +0.000 OA
BRANCH  33  35
ATOM     35  O   UNL     1      47.738 157.367  28.908  0.00  0.00    +0.000 OA
ATOM     36  H   UNL     1      47.507 156.397  28.726  0.00  0.00    +0.000 HD
ENDBRANCH  33  35
ENDBRANCH   2  33
TORSDOF 8
ENDMDL
