MODEL 1
REMARK VINA RESULT:   -10.299      0.000      0.000
REMARK INTER + INTRA:         -11.548
REMARK INTER:                 -11.202
REMARK INTRA:                  -0.346
REMARK UNBOUND:                -0.346
REMARK  Name = 
REMARK  2 active torsions:
REMARK  status: ('A' for Active; 'I' for Inactive)
REMARK    1  A    between atoms: C_1  and  C_15
REMARK    2  A    between atoms: C_5  and  N_6
REMARK                            x       y       z     vdW  Elec       q    Type
REMARK                         _______ _______ _______ _____ _____    ______ ____
ROOT
ATOM      1  C   UNL     1      51.565 155.979  28.752  0.00  0.00    +0.000 A 
ATOM      2  S   UNL     1      52.580 157.427  29.057  0.00  0.00    +0.000 S 
ATOM      3  C   UNL     1      51.285 158.405  29.941  0.00  0.00    +0.000 A 
ATOM      4  C   UNL     1      50.229 157.523  29.905  0.00  0.00    +0.000 A 
ATOM      5  C   UNL     1      50.353 156.327  29.324  0.00  0.00    +0.000 A 
ATOM      6  C   UNL     1      49.083 158.086  30.551  0.00  0.00    +0.000 A 
ATOM      7  C   UNL     1      49.113 159.338  31.105  0.00  0.00    +0.000 A 
ATOM      8  C   UNL     1      50.228 160.131  31.081  0.00  0.00    +0.000 A 
ATOM      9  N   UNL     1      51.329 159.597  30.462  0.00  0.00    +0.000 NA
ATOM     10  C   UNL     1      50.327 161.491  31.660  0.00  0.00    +0.000 C 
ATOM     11  C   UNL     1      49.030 161.951  32.243  0.00  0.00    +0.000 C 
ATOM     12  C   UNL     1      48.346 160.749  32.898  0.00  0.00    +0.000 C 
ATOM     13  C   UNL     1      47.850 159.864  31.774  0.00  0.00    +0.000 C 
ENDROOT
BRANCH   1  14
ATOM     14  C   UNL     1      52.024 154.807  28.068  0.00  0.00    +0.000 C 
ATOM     15  O   UNL     1      51.927 153.656  28.577  0.00  0.00    +0.000 OA
ATOM     16  N   UNL     1      52.599 154.922  26.795  0.00  0.00    +0.000 N 
ATOM     17  C   UNL     1      53.039 153.745  26.153  0.00  0.00    +0.000 A 
ATOM     18  N   UNL     1      53.090 152.560  26.352  0.00  0.00    +0.000 NA
ATOM     19  C   UNL     1      53.555 151.617  25.593  0.00  0.00    +0.000 A 
ATOM     20  C   UNL     1      54.075 151.985  24.374  0.00  0.00    +0.000 A 
ATOM     21  S   UNL     1      53.818 153.838  24.445  0.00  0.00    +0.000 S 
ATOM     22  H   UNL     1      52.684 155.872  26.366  0.00  0.00    +0.000 HD
ENDBRANCH   1  14
BRANCH   5  23
ATOM     23  N   UNL     1      49.249 155.364  29.269  0.00  0.00    +0.000 N 
ATOM     24  H   UNL     1      49.091 154.834  30.135  0.00  0.00    +0.000 HD
ATOM     25  H   UNL     1      48.670 155.217  28.444  0.00  0.00    +0.000 HD
ENDBRANCH   5  23
TORSDOF 2
ENDMDL
