MODEL 1
REMARK VINA RESULT:    -2.000      0.000      0.000
REMARK INTER + INTRA:          -0.757
REMARK INTER:                  -2.585
REMARK INTRA:                   1.828
REMARK UNBOUND:                 1.828
REMARK  Name = 
REMARK  7 active torsions:
REMARK  status: ('A' for Active; 'I' for Inactive)
REMARK    1  A    between atoms: C_2  and  C_6
REMARK    2  A    between atoms: C_8  and  C_9
REMARK    3  A    between atoms: C_9  and  O_11
REMARK    4  A    between atoms: C_14  and  C_15
REMARK    5  A    between atoms: C_16  and  C_21
REMARK    6  A    between atoms: C_19  and  O_20
REMARK    7  A    between atoms: C_21  and  C_27
REMARK                            x       y       z     vdW  Elec       q    Type
REMARK                         _______ _______ _______ _____ _____    ______ ____
ROOT
ATOM      1  C   UNL     1      51.019 160.768  31.655  0.00  0.00    +0.000 A 
ATOM      2  C   UNL     1      52.230 161.437  31.886  0.00  0.00    +0.000 A 
ATOM      3  C   UNL     1      53.294 161.295  31.021  0.00  0.00    +0.000 A 
ATOM      4  C   UNL     1      53.152 160.494  29.934  0.00  0.00    +0.000 A 
ATOM      5  C   UNL     1      51.954 159.837  29.710  0.00  0.00    +0.000 A 
ATOM      6  C   UNL     1      50.879 159.959  30.557  0.00  0.00    +0.000 A 
ENDROOT
BRANCH   1   8
ATOM      7  N   UNL     1      49.326 160.048  33.354  0.00  0.00    +0.000 NA
ATOM      8  C   UNL     1      49.906 160.949  32.577  0.00  0.00    +0.000 A 
ATOM      9  N   UNL     1      49.249 162.115  32.789  0.00  0.00    +0.000 N 
ATOM     10  N   UNL     1      48.292 161.982  33.659  0.00  0.00    +0.000 NA
ATOM     11  C   UNL     1      48.322 160.671  34.033  0.00  0.00    +0.000 A 
ATOM     12  H   UNL     1      49.490 163.011  32.308  0.00  0.00    +0.000 HD
ENDBRANCH   1   8
BRANCH   6  13
ATOM     13  C   UNL     1      49.663 159.237  30.254  0.00  0.00    +0.000 A 
ATOM     14  C   UNL     1      49.566 157.939  29.874  0.00  0.00    +0.000 A 
ATOM     15  N   UNL     1      48.228 157.692  29.704  0.00  0.00    +0.000 NA
ATOM     16  N   UNL     1      47.545 158.766  29.961  0.00  0.00    +0.000 N 
ATOM     17  C   UNL     1      48.362 159.767  30.309  0.00  0.00    +0.000 A 
ATOM     18  H   UNL     1      46.494 158.898  29.922  0.00  0.00    +0.000 HD
BRANCH  14  19
ATOM     19  C   UNL     1      50.578 156.919  29.654  0.00  0.00    +0.000 C 
ATOM     20  C   UNL     1      50.075 155.771  28.808  0.00  0.00    +0.000 C 
ATOM     21  C   UNL     1      51.045 154.613  28.889  0.00  0.00    +0.000 C 
ATOM     22  N   UNL     1      52.399 154.966  28.709  0.00  0.00    +0.000 NA
ATOM     23  C   UNL     1      52.857 156.221  29.174  0.00  0.00    +0.000 C 
ATOM     24  C   UNL     1      51.862 157.368  29.030  0.00  0.00    +0.000 C 
ATOM     25  C   UNL     1      50.936 156.286  31.005  0.00  0.00    +0.000 C 
ATOM     26  H   UNL     1      52.992 154.223  29.185  0.00  0.00    +0.000 HD
ENDBRANCH  14  19
BRANCH  17  27
ATOM     27  O   UNL     1      48.083 161.068  30.662  0.00  0.00    +0.000 OA
ATOM     28  H   UNL     1      47.136 161.327  30.891  0.00  0.00    +0.000 HD
ENDBRANCH  17  27
ENDBRANCH   6  13
BRANCH   3  29
ATOM     29  C   UNL     1      54.571 162.001  31.267  0.00  0.00    +0.000 C 
ATOM     30  O   UNL     1      55.140 162.599  30.321  0.00  0.00    +0.000 OA
BRANCH  29  31
ATOM     31  O   UNL     1      55.117 161.991  32.524  0.00  0.00    +0.000 OA
ATOM     32  H   UNL     1      55.776 161.253  32.764  0.00  0.00    +0.000 HD
ENDBRANCH  29  31
ENDBRANCH   3  29
TORSDOF 6
ENDMDL
