MODEL 1
REMARK VINA RESULT:    -0.764      0.000      0.000
REMARK INTER + INTRA:          -1.643
REMARK INTER:                  -1.054
REMARK INTRA:                  -0.589
REMARK UNBOUND:                -0.589
REMARK  Name = 
REMARK  10 active torsions:
REMARK  status: ('A' for Active; 'I' for Inactive)
REMARK    1  A    between atoms: C_4  and  N_14
REMARK    2  A    between atoms: C_5  and  C_12
REMARK    3  A    between atoms: C_6  and  C_7
REMARK    4  A    between atoms: C_17  and  C_18
REMARK    5  A    between atoms: C_20  and  O_28
REMARK    6  A    between atoms: C_21  and  O_26
REMARK    7  A    between atoms: C_22  and  O_24
REMARK    8  A    between atoms: O_24  and  C_25
REMARK    9  A    between atoms: O_26  and  C_27
REMARK   10  A    between atoms: O_28  and  C_29
REMARK                            x       y       z     vdW  Elec       q    Type
REMARK                         _______ _______ _______ _____ _____    ______ ____
ROOT
ATOM      1  C   UNL     1      51.886 160.252  30.874  0.00  0.00    +0.000 A 
ATOM      2  C   UNL     1      52.654 161.383  31.105  0.00  0.00    +0.000 A 
ATOM      3  O   UNL     1      52.133 162.353  31.945  0.00  0.00    +0.000 OA
ATOM      4  C   UNL     1      50.883 162.214  32.544  0.00  0.00    +0.000 C 
ATOM      5  C   UNL     1      50.128 161.149  32.341  0.00  0.00    +0.000 C 
ATOM      6  C   UNL     1      50.544 160.026  31.465  0.00  0.00    +0.000 C 
ATOM      7  N   UNL     1      53.822 161.276  30.409  0.00  0.00    +0.000 N 
ATOM      8  N   UNL     1      53.781 160.125  29.772  0.00  0.00    +0.000 NA
ATOM      9  C   UNL     1      52.621 159.477  30.031  0.00  0.00    +0.000 A 
ATOM     10  H   UNL     1      54.581 162.007  30.414  0.00  0.00    +0.000 HD
ENDROOT
BRANCH   9  11
ATOM     11  C   UNL     1      52.344 158.176  29.439  0.00  0.00    +0.000 A 
ATOM     12  C   UNL     1      51.287 157.394  29.918  0.00  0.00    +0.000 A 
ATOM     13  C   UNL     1      50.969 156.165  29.396  0.00  0.00    +0.000 A 
ATOM     14  C   UNL     1      51.738 155.696  28.351  0.00  0.00    +0.000 A 
ATOM     15  C   UNL     1      52.804 156.414  27.819  0.00  0.00    +0.000 A 
ATOM     16  C   UNL     1      53.067 157.642  28.394  0.00  0.00    +0.000 A 
BRANCH  15  17
ATOM     17  O   UNL     1      53.561 155.907  26.761  0.00  0.00    +0.000 OA
ATOM     18  C   UNL     1      53.180 156.295  25.455  0.00  0.00    +0.000 C 
ENDBRANCH  15  17
BRANCH  14  19
ATOM     19  O   UNL     1      51.422 154.447  27.812  0.00  0.00    +0.000 OA
ATOM     20  C   UNL     1      52.092 153.269  28.266  0.00  0.00    +0.000 C 
ENDBRANCH  14  19
BRANCH  13  21
ATOM     21  O   UNL     1      49.921 155.385  29.867  0.00  0.00    +0.000 OA
ATOM     22  C   UNL     1      48.616 155.763  29.470  0.00  0.00    +0.000 C 
ENDBRANCH  13  21
ENDBRANCH   9  11
BRANCH   6  23
ATOM     23  C   UNL     1      49.517 159.998  30.360  0.00  0.00    +0.000 A 
ATOM     24  C   UNL     1      48.468 159.108  30.247  0.00  0.00    +0.000 A 
ATOM     25  O   UNL     1      47.788 159.383  29.156  0.00  0.00    +0.000 OA
ATOM     26  C   UNL     1      48.313 160.398  28.526  0.00  0.00    +0.000 A 
ATOM     27  C   UNL     1      49.422 160.820  29.267  0.00  0.00    +0.000 A 
ENDBRANCH   6  23
BRANCH   4  28
ATOM     28  N   UNL     1      50.377 163.227  33.402  0.00  0.00    +0.000 N 
ATOM     29  H   UNL     1      49.930 164.095  33.076  0.00  0.00    +0.000 HD
ATOM     30  H   UNL     1      50.458 163.093  34.435  0.00  0.00    +0.000 HD
ENDBRANCH   4  28
BRANCH   5  31
ATOM     31  C   UNL     1      48.850 161.050  32.980  0.00  0.00    +0.000 C 
ATOM     32  N   UNL     1      47.821 160.986  33.509  0.00  0.00    +0.000 NA
ENDBRANCH   5  31
TORSDOF 7
ENDMDL
