MODEL 1
REMARK VINA RESULT:    -2.670      0.000      0.000
REMARK INTER + INTRA:          -0.179
REMARK INTER:                  -4.153
REMARK INTRA:                   3.974
REMARK UNBOUND:                 3.974
REMARK  Name = 
REMARK  11 active torsions:
REMARK  status: ('A' for Active; 'I' for Inactive)
REMARK    1  A    between atoms: N_1  and  C_11
REMARK    2  A    between atoms: C_3  and  C_8
REMARK    3  A    between atoms: C_8  and  O_10
REMARK    4  A    between atoms: C_11  and  C_12
REMARK    5  A    between atoms: C_11  and  C_20
REMARK    6  A    between atoms: C_12  and  C_13
REMARK    7  A    between atoms: C_13  and  N_14
REMARK    8  A    between atoms: C_25  and  N_26
REMARK    9  A    between atoms: N_26  and  C_27
REMARK   10  A    between atoms: C_30  and  O_33
REMARK   11  A    between atoms: O_33  and  C_34
REMARK                            x       y       z     vdW  Elec       q    Type
REMARK                         _______ _______ _______ _____ _____    ______ ____
ROOT
ATOM      1  C   UNL     1      50.562 156.879  28.877  0.00  0.00    +0.000 C 
ENDROOT
BRANCH   1   2
ATOM      2  N   UNL     1      51.658 157.808  29.221  0.00  0.00    +0.000 N 
ATOM      3  C   UNL     1      51.431 158.909  29.924  0.00  0.00    +0.000 A 
ATOM      4  C   UNL     1      52.445 159.804  30.267  0.00  0.00    +0.000 A 
ATOM      5  C   UNL     1      53.721 159.546  29.865  0.00  0.00    +0.000 A 
ATOM      6  C   UNL     1      53.957 158.403  29.134  0.00  0.00    +0.000 A 
ATOM      7  C   UNL     1      52.917 157.555  28.826  0.00  0.00    +0.000 A 
ATOM      8  O   UNL     1      53.147 156.509  28.155  0.00  0.00    +0.000 OA
BRANCH   4   9
ATOM      9  C   UNL     1      52.148 160.997  31.037  0.00  0.00    +0.000 C 
ATOM     10  O   UNL     1      51.115 161.675  30.794  0.00  0.00    +0.000 OA
BRANCH   9  11
ATOM     11  O   UNL     1      52.974 161.425  32.049  0.00  0.00    +0.000 OA
ATOM     12  H   UNL     1      53.232 160.763  32.781  0.00  0.00    +0.000 HD
ENDBRANCH   9  11
ENDBRANCH   4   9
ENDBRANCH   1   2
BRANCH   1  13
ATOM     13  C   UNL     1      51.174 155.539  28.865  0.00  0.00    +0.000 A 
ATOM     14  C   UNL     1      51.263 154.877  30.088  0.00  0.00    +0.000 A 
ATOM     15  C   UNL     1      51.822 153.630  30.234  0.00  0.00    +0.000 A 
ATOM     16  C   UNL     1      52.310 153.030  29.095  0.00  0.00    +0.000 A 
ATOM     17  C   UNL     1      52.252 153.631  27.857  0.00  0.00    +0.000 A 
ATOM     18  C   UNL     1      51.681 154.884  27.763  0.00  0.00    +0.000 A 
BRANCH  18  19
ATOM     19  N   UNL     1      51.580 155.530  26.501  0.00  0.00    +0.000 N 
ATOM     20  H   UNL     1      50.887 156.311  26.422  0.00  0.00    +0.000 HD
BRANCH  19  21
ATOM     21  C   UNL     1      52.316 155.226  25.312  0.00  0.00    +0.000 C 
ATOM     22  C   UNL     1      53.408 156.196  25.066  0.00  0.00    +0.000 C 
ATOM     23  C   UNL     1      54.732 155.702  24.654  0.00  0.00    +0.000 C 
ATOM     24  C   UNL     1      54.866 154.264  24.300  0.00  0.00    +0.000 C 
ATOM     25  C   UNL     1      53.568 153.576  23.954  0.00  0.00    +0.000 C 
ATOM     26  C   UNL     1      52.666 153.772  25.156  0.00  0.00    +0.000 C 
BRANCH  24  27
ATOM     27  O   UNL     1      55.514 153.631  25.361  0.00  0.00    +0.000 OA
ATOM     28  C   UNL     1      55.426 152.249  25.239  0.00  0.00    +0.000 C 
ENDBRANCH  24  27
ENDBRANCH  19  21
ENDBRANCH  18  19
ENDBRANCH   1  13
BRANCH   1  29
ATOM     29  C   UNL     1      49.457 157.010  29.893  0.00  0.00    +0.000 C 
BRANCH  29  30
ATOM     30  C   UNL     1      48.360 157.935  29.404  0.00  0.00    +0.000 C 
BRANCH  30  31
ATOM     31  N   UNL     1      48.024 158.882  30.477  0.00  0.00    +0.000 NA
ATOM     32  C   UNL     1      48.371 160.229  30.139  0.00  0.00    +0.000 C 
ATOM     33  C   UNL     1      47.636 161.144  31.097  0.00  0.00    +0.000 C 
ATOM     34  C   UNL     1      48.021 160.776  32.494  0.00  0.00    +0.000 C 
ATOM     35  C   UNL     1      49.037 159.664  32.569  0.00  0.00    +0.000 C 
ATOM     36  C   UNL     1      48.642 158.470  31.726  0.00  0.00    +0.000 C 
ENDBRANCH  30  31
ENDBRANCH  29  30
ENDBRANCH   1  29
TORSDOF 10
ENDMDL
