MODEL 1
REMARK VINA RESULT:   -11.036      0.000      0.000
REMARK INTER + INTRA:         -14.962
REMARK INTER:                 -14.585
REMARK INTRA:                  -0.377
REMARK UNBOUND:                -0.377
REMARK  Name = 
REMARK  8 active torsions:
REMARK  status: ('A' for Active; 'I' for Inactive)
REMARK    1  A    between atoms: C_1  and  S_11
REMARK    2  A    between atoms: C_8  and  C_10
REMARK    3  A    between atoms: S_11  and  C_12
REMARK    4  A    between atoms: C_12  and  C_13
REMARK    5  A    between atoms: C_13  and  O_15
REMARK    6  A    between atoms: O_15  and  N_16
REMARK    7  A    between atoms: C_19  and  C_28
REMARK    8  A    between atoms: C_24  and  N_25
REMARK                            x       y       z     vdW  Elec       q    Type
REMARK                         _______ _______ _______ _____ _____    ______ ____
ROOT
ATOM      1  O   UNL     1      51.698 154.272  27.112  0.00  0.00    +0.000 OA
ENDROOT
BRANCH   1   2
ATOM      2  N   UNL     1      52.620 154.212  26.156  0.00  0.00    +0.000 N 
ATOM      3  C   UNL     1      53.284 155.306  25.559  0.00  0.00    +0.000 C 
ATOM      4  O   UNL     1      52.631 156.393  25.513  0.00  0.00    +0.000 OA
ATOM      5  C   UNL     1      54.652 155.134  25.036  0.00  0.00    +0.000 C 
ATOM      6  O   UNL     1      54.612 153.949  24.222  0.00  0.00    +0.000 OA
ATOM      7  C   UNL     1      54.020 152.814  24.743  0.00  0.00    +0.000 A 
ATOM      8  C   UNL     1      53.037 152.901  25.697  0.00  0.00    +0.000 A 
ATOM      9  C   UNL     1      52.430 151.773  26.237  0.00  0.00    +0.000 A 
ATOM     10  C   UNL     1      52.800 150.527  25.827  0.00  0.00    +0.000 A 
ATOM     11  C   UNL     1      53.781 150.421  24.875  0.00  0.00    +0.000 A 
ATOM     12  C   UNL     1      54.392 151.538  24.330  0.00  0.00    +0.000 A 
ATOM     13  C   UNL     1      55.137 156.272  24.201  0.00  0.00    +0.000 C 
BRANCH  10  14
ATOM     14  N   UNL     1      52.172 149.398  26.390  0.00  0.00    +0.000 N 
ATOM     15  H   UNL     1      52.470 149.014  27.308  0.00  0.00    +0.000 HD
ATOM     16  H   UNL     1      51.397 148.946  25.881  0.00  0.00    +0.000 HD
ENDBRANCH  10  14
ENDBRANCH   1   2
BRANCH   1  17
ATOM     17  C   UNL     1      51.854 154.395  28.470  0.00  0.00    +0.000 C 
ATOM     18  O   UNL     1      52.453 153.453  29.060  0.00  0.00    +0.000 OA
BRANCH  17  19
ATOM     19  C   UNL     1      51.342 155.608  29.203  0.00  0.00    +0.000 C 
BRANCH  19  20
ATOM     20  S   UNL     1      52.223 157.113  28.830  0.00  0.00    +0.000 S 
BRANCH  20  21
ATOM     21  C   UNL     1      51.537 158.480  29.767  0.00  0.00    +0.000 A 
ATOM     22  N   UNL     1      50.277 158.493  30.316  0.00  0.00    +0.000 NA
ATOM     23  C   UNL     1      50.187 159.608  31.061  0.00  0.00    +0.000 A 
ATOM     24  C   UNL     1      51.375 160.318  30.995  0.00  0.00    +0.000 A 
ATOM     25  N   UNL     1      52.183 159.573  30.176  0.00  0.00    +0.000 N 
ATOM     26  C   UNL     1      51.570 161.484  31.687  0.00  0.00    +0.000 A 
ATOM     27  C   UNL     1      50.570 161.985  32.477  0.00  0.00    +0.000 A 
ATOM     28  C   UNL     1      49.372 161.305  32.567  0.00  0.00    +0.000 A 
ATOM     29  C   UNL     1      49.202 160.154  31.873  0.00  0.00    +0.000 A 
ATOM     30  C   UNL     1      48.261 161.822  33.446  0.00  0.00    +0.000 C 
ATOM     31  H   UNL     1      53.165 159.861  29.938  0.00  0.00    +0.000 HD
ENDBRANCH  20  21
ENDBRANCH  19  20
ENDBRANCH  17  19
ENDBRANCH   1  17
TORSDOF 6
ENDMDL
