MODEL 1
REMARK VINA RESULT:    -4.388      0.000      0.000
REMARK INTER + INTRA:          -6.563
REMARK INTER:                  -6.055
REMARK INTRA:                  -0.508
REMARK UNBOUND:                -0.508
REMARK  Name = 
REMARK  9 active torsions:
REMARK  status: ('A' for Active; 'I' for Inactive)
REMARK    1  A    between atoms: C_1  and  N_15
REMARK    2  A    between atoms: N_4  and  C_9
REMARK    3  A    between atoms: N_5  and  C_8
REMARK    4  A    between atoms: C_6  and  C_7
REMARK    5  A    between atoms: N_15  and  C_16
REMARK    6  A    between atoms: C_17  and  N_18
REMARK    7  A    between atoms: C_22  and  N_23
REMARK    8  A    between atoms: C_27  and  C_28
REMARK    9  A    between atoms: C_28  and  O_30
REMARK                            x       y       z     vdW  Elec       q    Type
REMARK                         _______ _______ _______ _____ _____    ______ ____
ROOT
ATOM      1  N   UNL     1      52.812 156.486  29.394  0.00  0.00    +0.000 N 
ATOM      2  H   UNL     1      53.617 156.504  30.056  0.00  0.00    +0.000 HD
ENDROOT
BRANCH   1   3
ATOM      3  C   UNL     1      52.873 155.674  28.227  0.00  0.00    +0.000 A 
ATOM      4  C   UNL     1      52.985 154.306  28.140  0.00  0.00    +0.000 A 
ATOM      5  O   UNL     1      53.056 153.503  29.116  0.00  0.00    +0.000 OA
ATOM      6  N   UNL     1      53.008 153.928  26.851  0.00  0.00    +0.000 N 
ATOM      7  N   UNL     1      52.913 155.038  26.142  0.00  0.00    +0.000 N 
ATOM      8  C   UNL     1      52.829 156.117  26.927  0.00  0.00    +0.000 A 
ATOM      9  C   UNL     1      52.710 157.550  26.514  0.00  0.00    +0.000 C 
ATOM     10  C   UNL     1      52.899 155.117  24.684  0.00  0.00    +0.000 C 
BRANCH   6  11
ATOM     11  C   UNL     1      53.116 152.588  26.333  0.00  0.00    +0.000 A 
ATOM     12  C   UNL     1      52.218 151.603  26.612  0.00  0.00    +0.000 A 
ATOM     13  C   UNL     1      52.391 150.337  26.075  0.00  0.00    +0.000 A 
ATOM     14  C   UNL     1      53.486 150.076  25.249  0.00  0.00    +0.000 A 
ATOM     15  C   UNL     1      54.394 151.062  24.965  0.00  0.00    +0.000 A 
ATOM     16  C   UNL     1      54.194 152.311  25.513  0.00  0.00    +0.000 A 
ENDBRANCH   6  11
ENDBRANCH   1   3
BRANCH   1  17
ATOM     17  C   UNL     1      51.693 157.288  29.708  0.00  0.00    +0.000 A 
ATOM     18  C   UNL     1      50.444 156.731  29.856  0.00  0.00    +0.000 A 
ATOM     19  C   UNL     1      49.349 157.544  30.169  0.00  0.00    +0.000 A 
ATOM     20  C   UNL     1      49.507 158.895  30.328  0.00  0.00    +0.000 A 
ATOM     21  C   UNL     1      50.756 159.460  30.180  0.00  0.00    +0.000 A 
ATOM     22  C   UNL     1      51.850 158.644  29.869  0.00  0.00    +0.000 A 
BRANCH  18  23
ATOM     23  N   UNL     1      50.181 155.353  29.711  0.00  0.00    +0.000 N 
ATOM     24  O   UNL     1      49.517 154.958  28.752  0.00  0.00    +0.000 OA
ATOM     25  O   UNL     1      50.660 154.468  30.624  0.00  0.00    +0.000 OA
ENDBRANCH  18  23
BRANCH  20  26
ATOM     26  N   UNL     1      48.410 159.758  30.648  0.00  0.00    +0.000 N 
ATOM     27  O   UNL     1      48.379 160.944  30.269  0.00  0.00    +0.000 OA
ATOM     28  O   UNL     1      47.344 159.306  31.389  0.00  0.00    +0.000 OA
ENDBRANCH  20  26
BRANCH  22  29
ATOM     29  C   UNL     1      53.141 159.308  29.727  0.00  0.00    +0.000 C 
ATOM     30  O   UNL     1      54.112 158.765  29.176  0.00  0.00    +0.000 OA
BRANCH  29  31
ATOM     31  O   UNL     1      53.255 160.596  30.238  0.00  0.00    +0.000 OA
ATOM     32  H   UNL     1      53.961 160.814  30.957  0.00  0.00    +0.000 HD
ENDBRANCH  29  31
ENDBRANCH  22  29
ENDBRANCH   1  17
TORSDOF 7
ENDMDL
