MODEL 1
REMARK VINA RESULT:     0.314      0.000      0.000
REMARK INTER + INTRA:          -0.516
REMARK INTER:                   0.406
REMARK INTRA:                  -0.922
REMARK UNBOUND:                -0.922
REMARK  Name = 
REMARK  7 active torsions:
REMARK  status: ('A' for Active; 'I' for Inactive)
REMARK    1  A    between atoms: C_1  and  C_23
REMARK    2  A    between atoms: C_2  and  N_22
REMARK    3  A    between atoms: C_6  and  C_7
REMARK    4  A    between atoms: C_9  and  O_10
REMARK    5  A    between atoms: C_23  and  O_25
REMARK    6  A    between atoms: O_25  and  C_26
REMARK    7  A    between atoms: C_26  and  C_27
REMARK                            x       y       z     vdW  Elec       q    Type
REMARK                         _______ _______ _______ _____ _____    ______ ____
ROOT
ATOM      1  C   UNL     1      52.438 155.712  28.372  0.00  0.00    +0.000 C 
ATOM      2  C   UNL     1      51.283 155.225  28.767  0.00  0.00    +0.000 C 
ATOM      3  O   UNL     1      50.842 153.958  28.432  0.00  0.00    +0.000 OA
ATOM      4  C   UNL     1      51.704 153.200  27.639  0.00  0.00    +0.000 A 
ATOM      5  C   UNL     1      52.928 153.658  27.199  0.00  0.00    +0.000 A 
ATOM      6  C   UNL     1      53.393 155.008  27.473  0.00  0.00    +0.000 C 
ATOM      7  C   UNL     1      53.666 152.761  26.430  0.00  0.00    +0.000 A 
ATOM      8  C   UNL     1      53.190 151.491  26.125  0.00  0.00    +0.000 A 
ATOM      9  C   UNL     1      51.955 151.069  26.581  0.00  0.00    +0.000 A 
ATOM     10  C   UNL     1      51.217 151.927  27.337  0.00  0.00    +0.000 A 
ATOM     11  C   UNL     1      53.958 150.624  25.370  0.00  0.00    +0.000 A 
ATOM     12  C   UNL     1      55.195 151.012  24.920  0.00  0.00    +0.000 A 
ATOM     13  C   UNL     1      55.691 152.262  25.209  0.00  0.00    +0.000 A 
ATOM     14  C   UNL     1      54.904 153.121  25.969  0.00  0.00    +0.000 A 
ENDROOT
BRANCH   6  15
ATOM     15  C   UNL     1      53.378 155.796  26.167  0.00  0.00    +0.000 A 
ATOM     16  C   UNL     1      54.497 156.387  25.635  0.00  0.00    +0.000 A 
ATOM     17  C   UNL     1      54.468 157.100  24.453  0.00  0.00    +0.000 A 
ATOM     18  C   UNL     1      53.291 157.236  23.771  0.00  0.00    +0.000 A 
ATOM     19  C   UNL     1      52.144 156.656  24.272  0.00  0.00    +0.000 A 
ATOM     20  C   UNL     1      52.206 155.949  25.456  0.00  0.00    +0.000 A 
BRANCH  17  21
ATOM     21  O   UNL     1      55.610 157.678  23.951  0.00  0.00    +0.000 OA
ATOM     22  H   UNL     1      55.701 158.056  23.034  0.00  0.00    +0.000 HD
ENDBRANCH  17  21
ENDBRANCH   6  15
BRANCH   2  23
ATOM     23  N   UNL     1      50.397 155.998  29.585  0.00  0.00    +0.000 N 
ATOM     24  H   UNL     1      50.832 156.737  30.173  0.00  0.00    +0.000 HD
ATOM     25  H   UNL     1      49.391 155.827  29.585  0.00  0.00    +0.000 HD
ENDBRANCH   2  23
BRANCH   1  26
ATOM     26  C   UNL     1      52.732 157.088  28.842  0.00  0.00    +0.000 C 
ATOM     27  O   UNL     1      53.905 157.368  29.193  0.00  0.00    +0.000 OA
BRANCH  26  28
ATOM     28  O   UNL     1      51.791 158.074  28.916  0.00  0.00    +0.000 OA
BRANCH  28  29
ATOM     29  C   UNL     1      51.807 159.104  29.898  0.00  0.00    +0.000 C 
ATOM     30  C   UNL     1      50.442 159.585  30.263  0.00  0.00    +0.000 C 
ENDBRANCH  28  29
ENDBRANCH  26  28
ENDBRANCH   1  26
TORSDOF 6
ENDMDL
