MODEL 1
REMARK VINA RESULT:     2.232      0.000      0.000
REMARK INTER + INTRA:           3.287
REMARK INTER:                   3.406
REMARK INTRA:                  -0.119
REMARK UNBOUND:                -0.119
REMARK  Name = 
REMARK  12 active torsions:
REMARK  status: ('A' for Active; 'I' for Inactive)
REMARK    1  A    between atoms: S_1  and  N_4
REMARK    2  A    between atoms: S_1  and  C_11
REMARK    3  A    between atoms: N_7  and  C_10
REMARK    4  A    between atoms: C_14  and  N_15
REMARK    5  A    between atoms: C_17  and  C_18
REMARK    6  A    between atoms: C_19  and  O_20
REMARK    7  A    between atoms: O_20  and  C_21
REMARK    8  A    between atoms: C_21  and  C_22
REMARK    9  A    between atoms: C_22  and  O_23
REMARK   10  A    between atoms: O_23  and  C_24
REMARK   11  A    between atoms: C_28  and  C_29
REMARK   12  A    between atoms: C_29  and  N_30
REMARK                            x       y       z     vdW  Elec       q    Type
REMARK                         _______ _______ _______ _____ _____    ______ ____
ROOT
ATOM      1  C   UNL     1      51.554 159.652  30.291  0.00  0.00    +0.000 A 
ATOM      2  C   UNL     1      52.930 159.841  30.285  0.00  0.00    +0.000 A 
ATOM      3  C   UNL     1      53.491 160.996  30.760  0.00  0.00    +0.000 A 
ATOM      4  C   UNL     1      52.660 161.979  31.249  0.00  0.00    +0.000 A 
ATOM      5  C   UNL     1      51.320 161.779  31.248  0.00  0.00    +0.000 A 
ATOM      6  C   UNL     1      50.698 160.610  30.772  0.00  0.00    +0.000 A 
ENDROOT
BRANCH   6   7
ATOM      7  C   UNL     1      49.266 160.456  30.822  0.00  0.00    +0.000 A 
ATOM      8  C   UNL     1      48.680 159.955  31.980  0.00  0.00    +0.000 A 
ATOM      9  C   UNL     1      47.288 159.803  32.054  0.00  0.00    +0.000 A 
ATOM     10  C   UNL     1      46.504 160.147  30.979  0.00  0.00    +0.000 A 
ATOM     11  C   UNL     1      47.075 160.637  29.840  0.00  0.00    +0.000 A 
ATOM     12  C   UNL     1      48.464 160.793  29.759  0.00  0.00    +0.000 A 
BRANCH   8  13
ATOM     13  O   UNL     1      49.551 159.648  32.977  0.00  0.00    +0.000 OA
BRANCH  13  14
ATOM     14  C   UNL     1      49.807 160.373  34.099  0.00  0.00    +0.000 C 
BRANCH  14  15
ATOM     15  C   UNL     1      49.436 161.809  34.146  0.00  0.00    +0.000 C 
BRANCH  15  16
ATOM     16  O   UNL     1      48.037 161.838  34.393  0.00  0.00    +0.000 OA
ATOM     17  C   UNL     1      47.781 162.595  35.540  0.00  0.00    +0.000 C 
ENDBRANCH  15  16
ENDBRANCH  14  15
ENDBRANCH  13  14
ENDBRANCH   8  13
BRANCH  12  18
ATOM     18  C   UNL     1      49.007 161.288  28.487  0.00  0.00    +0.000 C 
BRANCH  18  19
ATOM     19  N   UNL     1      48.264 160.750  27.365  0.00  0.00    +0.000 NA
ATOM     20  H   UNL     1      47.243 160.959  27.442  0.00  0.00    +0.000 HD
ATOM     21  H   UNL     1      48.374 159.709  27.395  0.00  0.00    +0.000 HD
ENDBRANCH  18  19
ENDBRANCH  12  18
ENDBRANCH   6   7
BRANCH   1  22
ATOM     22  S   UNL     1      50.929 158.178  29.645  0.00  0.00    +0.000 S 
ATOM     23  O   UNL     1      49.958 157.485  30.511  0.00  0.00    +0.000 OA
ATOM     24  O   UNL     1      50.277 158.524  28.303  0.00  0.00    +0.000 OA
BRANCH  22  25
ATOM     25  N   UNL     1      52.154 157.070  29.196  0.00  0.00    +0.000 NA
ATOM     26  C   UNL     1      52.077 155.777  29.727  0.00  0.00    +0.000 C 
ATOM     27  C   UNL     1      51.685 154.815  28.602  0.00  0.00    +0.000 C 
ATOM     28  N   UNL     1      52.576 154.845  27.490  0.00  0.00    +0.000 NA
ATOM     29  C   UNL     1      53.343 156.034  27.328  0.00  0.00    +0.000 C 
ATOM     30  C   UNL     1      52.742 157.265  27.930  0.00  0.00    +0.000 C 
ATOM     31  C   UNL     1      51.908 154.560  26.225  0.00  0.00    +0.000 C 
ENDBRANCH  22  25
ENDBRANCH   1  22
BRANCH   4  32
ATOM     32  N   UNL     1      53.231 163.177  31.742  0.00  0.00    +0.000 N 
ATOM     33  H   UNL     1      53.959 163.116  32.471  0.00  0.00    +0.000 HD
ATOM     34  H   UNL     1      52.932 164.088  31.387  0.00  0.00    +0.000 HD
ENDBRANCH   4  32
TORSDOF 10
ENDMDL
