MODEL 1
REMARK VINA RESULT:    -6.467      0.000      0.000
REMARK INTER + INTRA:          -5.426
REMARK INTER:                  -7.979
REMARK INTRA:                   2.553
REMARK UNBOUND:                 2.553
REMARK  Name = 
REMARK  6 active torsions:
REMARK  status: ('A' for Active; 'I' for Inactive)
REMARK    1  A    between atoms: N_1  and  C_13
REMARK    2  A    between atoms: C_3  and  C_11
REMARK    3  A    between atoms: C_13  and  C_14
REMARK    4  A    between atoms: N_16  and  C_17
REMARK    5  A    between atoms: N_24  and  C_26
REMARK    6  A    between atoms: C_29  and  C_31
REMARK                            x       y       z     vdW  Elec       q    Type
REMARK                         _______ _______ _______ _____ _____    ______ ____
ROOT
ATOM      1  C   UNL     1      50.838 157.649  29.999  0.00  0.00    +0.000 C 
ATOM      2  O   UNL     1      51.638 158.474  29.553  0.00  0.00    +0.000 OA
ATOM      3  N   UNL     1      49.794 158.071  30.847  0.00  0.00    +0.000 N 
ATOM      4  H   UNL     1      49.153 157.289  31.186  0.00  0.00    +0.000 HD
ENDROOT
BRANCH   3   5
ATOM      5  C   UNL     1      49.546 159.432  31.268  0.00  0.00    +0.000 C 
ATOM      6  C   UNL     1      50.786 160.276  31.118  0.00  0.00    +0.000 A 
ATOM      7  C   UNL     1      50.725 160.972  29.905  0.00  0.00    +0.000 A 
ATOM      8  N   UNL     1      49.511 160.649  29.248  0.00  0.00    +0.000 N 
ATOM      9  C   UNL     1      48.638 160.074  30.245  0.00  0.00    +0.000 C 
ATOM     10  C   UNL     1      47.709 161.082  30.793  0.00  0.00    +0.000 C 
ATOM     11  C   UNL     1      48.117 161.705  32.083  0.00  0.00    +0.000 C 
ATOM     12  N   UNL     1      48.637 160.838  33.060  0.00  0.00    +0.000 NA
ATOM     13  C   UNL     1      49.042 159.542  32.661  0.00  0.00    +0.000 C 
ATOM     14  C   UNL     1      49.479 161.464  34.035  0.00  0.00    +0.000 C 
ATOM     15  C   UNL     1      51.738 161.818  29.515  0.00  0.00    +0.000 A 
ATOM     16  C   UNL     1      52.857 162.011  30.315  0.00  0.00    +0.000 A 
ATOM     17  C   UNL     1      52.942 161.337  31.515  0.00  0.00    +0.000 A 
ATOM     18  C   UNL     1      51.916 160.504  31.869  0.00  0.00    +0.000 A 
ATOM     19  C   UNL     1      54.148 161.554  32.361  0.00  0.00    +0.000 C 
ATOM     20  H   UNL     1      49.260 160.782  28.262  0.00  0.00    +0.000 HD
ENDBRANCH   3   5
BRANCH   1  21
ATOM     21  C   UNL     1      50.996 156.219  29.631  0.00  0.00    +0.000 C 
BRANCH  21  22
ATOM     22  N   UNL     1      51.855 156.059  28.475  0.00  0.00    +0.000 N 
ATOM     23  C   UNL     1      52.518 157.014  27.786  0.00  0.00    +0.000 A 
ATOM     24  C   UNL     1      53.215 156.414  26.763  0.00  0.00    +0.000 A 
ATOM     25  C   UNL     1      52.965 155.046  26.833  0.00  0.00    +0.000 A 
ATOM     26  C   UNL     1      52.116 154.865  27.909  0.00  0.00    +0.000 A 
ATOM     27  C   UNL     1      51.733 153.566  28.165  0.00  0.00    +0.000 A 
ATOM     28  C   UNL     1      52.163 152.510  27.403  0.00  0.00    +0.000 A 
ATOM     29  C   UNL     1      53.006 152.727  26.342  0.00  0.00    +0.000 A 
ATOM     30  C   UNL     1      53.409 154.005  26.055  0.00  0.00    +0.000 A 
ATOM     31 BR   UNL     1      53.614 151.246  25.267  0.00  0.00    +0.000 Br
BRANCH  24  32
ATOM     32  C   UNL     1      54.048 157.102  25.803  0.00  0.00    +0.000 C 
ATOM     33  O   UNL     1      54.321 156.532  24.722  0.00  0.00    +0.000 OA
ENDBRANCH  24  32
ENDBRANCH  21  22
ENDBRANCH   1  21
TORSDOF 4
ENDMDL
