MODEL 1
REMARK VINA RESULT:    -5.449      0.000      0.000
REMARK INTER + INTRA:          -6.551
REMARK INTER:                  -7.519
REMARK INTRA:                   0.968
REMARK UNBOUND:                 0.968
REMARK  Name = 
REMARK  10 active torsions:
REMARK  status: ('A' for Active; 'I' for Inactive)
REMARK    1  A    between atoms: C_1  and  C_13
REMARK    2  A    between atoms: C_2  and  C_12
REMARK    3  A    between atoms: C_3  and  C_6
REMARK    4  A    between atoms: C_17  and  C_18
REMARK    5  A    between atoms: C_18  and  O_20
REMARK    6  A    between atoms: C_23  and  C_24
REMARK    7  A    between atoms: C_24  and  C_25
REMARK    8  A    between atoms: C_24  and  C_29
REMARK    9  A    between atoms: N_27  and  C_28
REMARK   10  A    between atoms: N_31  and  C_32
REMARK                            x       y       z     vdW  Elec       q    Type
REMARK                         _______ _______ _______ _____ _____    ______ ____
ROOT
ATOM      1  C   UNL     1      52.955 155.533  28.233  0.00  0.00    +0.000 C 
ATOM      2  O   UNL     1      53.199 154.556  29.075  0.00  0.00    +0.000 OA
ATOM      3  N   UNL     1      53.187 155.178  26.913  0.00  0.00    +0.000 N 
ATOM      4  C   UNL     1      53.039 155.934  25.699  0.00  0.00    +0.000 C 
ATOM      5  C   UNL     1      54.456 156.023  25.122  0.00  0.00    +0.000 C 
ATOM      6  O   UNL     1      54.760 154.743  24.670  0.00  0.00    +0.000 OA
ATOM      7  C   UNL     1      54.899 153.887  25.729  0.00  0.00    +0.000 C 
ATOM      8  C   UNL     1      53.706 153.796  26.643  0.00  0.00    +0.000 C 
ENDROOT
BRANCH   1   9
ATOM      9  C   UNL     1      52.501 156.768  28.818  0.00  0.00    +0.000 A 
ATOM     10  C   UNL     1      51.242 156.913  29.415  0.00  0.00    +0.000 A 
ATOM     11  C   UNL     1      51.101 158.202  29.865  0.00  0.00    +0.000 A 
ATOM     12  N   UNL     1      52.237 158.816  29.554  0.00  0.00    +0.000 NA
ATOM     13  N   UNL     1      53.062 157.958  28.933  0.00  0.00    +0.000 N 
ATOM     14  C   UNL     1      50.188 155.867  29.574  0.00  0.00    +0.000 C 
ATOM     15  H   UNL     1      53.998 158.271  28.624  0.00  0.00    +0.000 HD
BRANCH  11  16
ATOM     16  C   UNL     1      49.936 158.793  30.558  0.00  0.00    +0.000 A 
ATOM     17  C   UNL     1      50.081 159.565  31.688  0.00  0.00    +0.000 A 
ATOM     18  C   UNL     1      48.980 160.129  32.336  0.00  0.00    +0.000 A 
ATOM     19  C   UNL     1      47.710 159.917  31.849  0.00  0.00    +0.000 A 
ATOM     20  C   UNL     1      47.577 159.142  30.716  0.00  0.00    +0.000 A 
ATOM     21  C   UNL     1      48.660 158.587  30.077  0.00  0.00    +0.000 A 
ENDBRANCH  11  16
ENDBRANCH   1   9
BRANCH   5  22
ATOM     22  C   UNL     1      54.535 157.033  24.038  0.00  0.00    +0.000 C 
ATOM     23  O   UNL     1      55.579 157.296  23.408  0.00  0.00    +0.000 OA
BRANCH  22  24
ATOM     24  O   UNL     1      53.378 157.724  23.705  0.00  0.00    +0.000 OA
ATOM     25  H   UNL     1      53.193 158.034  22.743  0.00  0.00    +0.000 HD
ENDBRANCH  22  24
ENDBRANCH   5  22
BRANCH   8  26
ATOM     26  C   UNL     1      52.673 152.891  26.092  0.00  0.00    +0.000 C 
BRANCH  26  27
ATOM     27  C   UNL     1      51.820 152.192  27.069  0.00  0.00    +0.000 C 
ATOM     28  O   UNL     1      50.985 152.866  27.789  0.00  0.00    +0.000 OA
ATOM     29  N   UNL     1      51.842 150.790  27.289  0.00  0.00    +0.000 N 
ATOM     30  C   UNL     1      50.983 150.133  28.259  0.00  0.00    +0.000 C 
ATOM     31  H   UNL     1      52.490 150.195  26.750  0.00  0.00    +0.000 HD
ENDBRANCH  26  27
BRANCH  26  32
ATOM     32  C   UNL     1      53.298 151.890  25.163  0.00  0.00    +0.000 C 
ATOM     33  O   UNL     1      53.528 152.254  23.962  0.00  0.00    +0.000 OA
ATOM     34  N   UNL     1      53.640 150.575  25.552  0.00  0.00    +0.000 N 
ATOM     35  C   UNL     1      54.241 149.675  24.558  0.00  0.00    +0.000 C 
ATOM     36  H   UNL     1      53.473 150.261  26.526  0.00  0.00    +0.000 HD
ENDBRANCH  26  32
ENDBRANCH   8  26
TORSDOF 7
ENDMDL
