MODEL 1
REMARK VINA RESULT:    -8.113      0.000      0.000
REMARK INTER + INTRA:         -13.114
REMARK INTER:                 -12.382
REMARK INTRA:                  -0.732
REMARK UNBOUND:                -0.732
REMARK  Name = 
REMARK  12 active torsions:
REMARK  status: ('A' for Active; 'I' for Inactive)
REMARK    1  A    between atoms: C_3  and  C_4
REMARK    2  A    between atoms: C_4  and  O_6
REMARK    3  A    between atoms: O_6  and  C_7
REMARK    4  A    between atoms: C_7  and  C_8
REMARK    5  A    between atoms: C_11  and  S_12
REMARK    6  A    between atoms: S_12  and  C_13
REMARK    7  A    between atoms: C_13  and  C_14
REMARK    8  A    between atoms: N_16  and  C_17
REMARK    9  A    between atoms: C_18  and  O_25
REMARK   10  A    between atoms: C_20  and  O_23
REMARK   11  A    between atoms: O_23  and  C_24
REMARK   12  A    between atoms: O_25  and  C_26
REMARK                            x       y       z     vdW  Elec       q    Type
REMARK                         _______ _______ _______ _____ _____    ______ ____
ROOT
ATOM      1  S   UNL     1      52.440 156.388  28.762  0.00  0.00    +0.000 S 
ENDROOT
BRANCH   1   7
ATOM      2  N   UNL     1      51.674 158.830  29.804  0.00  0.00    +0.000 NA
ATOM      3  C   UNL     1      50.849 159.721  30.373  0.00  0.00    +0.000 A 
ATOM      4  C   UNL     1      49.556 159.345  30.695  0.00  0.00    +0.000 A 
ATOM      5  C   UNL     1      49.172 158.037  30.406  0.00  0.00    +0.000 A 
ATOM      6  N   UNL     1      50.049 157.195  29.835  0.00  0.00    +0.000 NA
ATOM      7  C   UNL     1      51.322 157.566  29.518  0.00  0.00    +0.000 A 
ATOM      8  N   UNL     1      51.232 161.050  30.669  0.00  0.00    +0.000 N 
ATOM      9  H   UNL     1      51.860 161.235  31.464  0.00  0.00    +0.000 HD
ATOM     10  H   UNL     1      50.879 161.823  30.083  0.00  0.00    +0.000 HD
BRANCH   4  11
ATOM     11  C   UNL     1      48.629 160.284  31.316  0.00  0.00    +0.000 C 
ATOM     12  O   UNL     1      48.095 161.185  30.608  0.00  0.00    +0.000 OA
BRANCH  11  13
ATOM     13  O   UNL     1      48.301 160.235  32.657  0.00  0.00    +0.000 OA
BRANCH  13  14
ATOM     14  C   UNL     1      48.365 161.408  33.485  0.00  0.00    +0.000 C 
ATOM     15  C   UNL     1      49.818 161.755  33.728  0.00  0.00    +0.000 C 
ENDBRANCH  13  14
ENDBRANCH  11  13
ENDBRANCH   4  11
ENDBRANCH   1   7
BRANCH   1  16
ATOM     16  C   UNL     1      52.926 156.934  27.109  0.00  0.00    +0.000 C 
BRANCH  16  17
ATOM     17  C   UNL     1      53.096 155.686  26.270  0.00  0.00    +0.000 C 
ATOM     18  O   UNL     1      52.810 155.773  25.059  0.00  0.00    +0.000 OA
ATOM     19  N   UNL     1      53.551 154.489  26.817  0.00  0.00    +0.000 N 
ATOM     20  H   UNL     1      53.756 154.550  27.877  0.00  0.00    +0.000 HD
BRANCH  19  21
ATOM     21  C   UNL     1      53.764 153.252  26.143  0.00  0.00    +0.000 A 
ATOM     22  C   UNL     1      52.813 152.230  26.310  0.00  0.00    +0.000 A 
ATOM     23  C   UNL     1      52.979 151.027  25.707  0.00  0.00    +0.000 A 
ATOM     24  C   UNL     1      54.085 150.780  24.916  0.00  0.00    +0.000 A 
ATOM     25  C   UNL     1      55.018 151.770  24.747  0.00  0.00    +0.000 A 
ATOM     26  C   UNL     1      54.856 153.019  25.367  0.00  0.00    +0.000 A 
BRANCH  24  27
ATOM     27  O   UNL     1      54.212 149.525  24.317  0.00  0.00    +0.000 OA
ATOM     28  C   UNL     1      53.559 148.385  24.795  0.00  0.00    +0.000 C 
ENDBRANCH  24  27
BRANCH  22  29
ATOM     29  O   UNL     1      51.727 152.541  27.115  0.00  0.00    +0.000 OA
ATOM     30  C   UNL     1      51.707 152.599  28.503  0.00  0.00    +0.000 C 
ENDBRANCH  22  29
ENDBRANCH  19  21
ENDBRANCH  16  17
ENDBRANCH   1  16
TORSDOF 9
ENDMDL
