MODEL 1
REMARK VINA RESULT:     6.772      0.000      0.000
REMARK INTER + INTRA:          17.432
REMARK INTER:                  10.137
REMARK INTRA:                   7.295
REMARK UNBOUND:                 7.295
REMARK  Name = 
REMARK  14 active torsions:
REMARK  status: ('A' for Active; 'I' for Inactive)
REMARK    1  A    between atoms: N_1  and  C_8
REMARK    2  A    between atoms: C_3  and  C_7
REMARK    3  A    between atoms: C_5  and  C_6
REMARK    4  A    between atoms: C_9  and  N_10
REMARK    5  A    between atoms: C_14  and  N_15
REMARK    6  A    between atoms: N_15  and  C_22
REMARK    7  A    between atoms: C_16  and  C_18
REMARK    8  A    between atoms: C_18  and  C_19
REMARK    9  A    between atoms: C_18  and  C_20
REMARK   10  A    between atoms: C_18  and  C_21
REMARK   11  A    between atoms: C_22  and  C_23
REMARK   12  A    between atoms: C_22  and  N_27
REMARK   13  A    between atoms: N_27  and  C_28
REMARK   14  A    between atoms: C_28  and  C_29
REMARK                            x       y       z     vdW  Elec       q    Type
REMARK                         _______ _______ _______ _____ _____    ______ ____
ROOT
ATOM      1  N   UNL     1      50.711 159.157  30.088  0.00  0.00    +0.000 N 
ATOM      2  C   UNL     1      49.492 159.529  29.476  0.00  0.00    +0.000 C 
ATOM      3  O   UNL     1      48.698 158.511  29.279  0.00  0.00    +0.000 OA
ENDROOT
BRANCH   1   9
ATOM      4  C   UNL     1      51.371 161.115  31.367  0.00  0.00    +0.000 A 
ATOM      5  C   UNL     1      52.369 162.060  31.745  0.00  0.00    +0.000 A 
ATOM      6  C   UNL     1      53.628 161.975  31.209  0.00  0.00    +0.000 A 
ATOM      7  C   UNL     1      53.919 160.986  30.313  0.00  0.00    +0.000 A 
ATOM      8  C   UNL     1      52.942 160.089  29.965  0.00  0.00    +0.000 A 
ATOM      9  C   UNL     1      51.624 160.139  30.497  0.00  0.00    +0.000 A 
BRANCH   4  10
ATOM     10  N   UNL     1      50.125 161.326  32.011  0.00  0.00    +0.000 N 
ATOM     11  N   UNL     1      49.455 162.456  31.737  0.00  0.00    +0.000 NA
ATOM     12  C   UNL     1      48.287 162.432  32.371  0.00  0.00    +0.000 A 
ATOM     13  C   UNL     1      48.215 161.252  33.069  0.00  0.00    +0.000 A 
ATOM     14  C   UNL     1      49.392 160.603  32.805  0.00  0.00    +0.000 A 
ATOM     15  C   UNL     1      49.710 159.273  33.366  0.00  0.00    +0.000 C 
ATOM     16  C   UNL     1      47.252 163.518  32.285  0.00  0.00    +0.000 C 
ENDBRANCH   4  10
BRANCH   5  17
ATOM     17  N   UNL     1      52.026 163.073  32.688  0.00  0.00    +0.000 N 
ATOM     18  H   UNL     1      51.554 162.821  33.568  0.00  0.00    +0.000 HD
ATOM     19  H   UNL     1      52.283 164.068  32.428  0.00  0.00    +0.000 HD
ENDBRANCH   5  17
ENDBRANCH   1   9
BRANCH   2  20
ATOM     20  C   UNL     1      48.963 160.787  29.027  0.00  0.00    +0.000 C 
ATOM     21  C   UNL     1      47.607 161.020  29.758  0.00  0.00    +0.000 C 
ATOM     22  C   UNL     1      49.719 162.034  29.235  0.00  0.00    +0.000 C 
ATOM     23  C   UNL     1      48.551 160.700  27.552  0.00  0.00    +0.000 C 
ENDBRANCH   2  20
BRANCH   1  24
ATOM     24  C   UNL     1      50.982 157.715  30.110  0.00  0.00    +0.000 C 
BRANCH  24  25
ATOM     25  C   UNL     1      49.918 156.855  30.575  0.00  0.00    +0.000 C 
ATOM     26 CL   UNL     1      50.546 155.341  31.335  0.00  0.00    +0.000 Cl
ATOM     27 CL   UNL     1      48.988 156.219  29.162  0.00  0.00    +0.000 Cl
ATOM     28 CL   UNL     1      48.725 157.641  31.627  0.00  0.00    +0.000 Cl
ENDBRANCH  24  25
BRANCH  24  29
ATOM     29  N   UNL     1      51.594 157.393  28.817  0.00  0.00    +0.000 NA
ATOM     30  H   UNL     1      52.163 158.199  28.481  0.00  0.00    +0.000 HD
BRANCH  29  31
ATOM     31  C   UNL     1      52.418 156.216  28.924  0.00  0.00    +0.000 C 
BRANCH  31  32
ATOM     32  C   UNL     1      51.985 155.114  27.942  0.00  0.00    +0.000 C 
ATOM     33  O   UNL     1      52.408 155.417  26.676  0.00  0.00    +0.000 OA
ATOM     34  C   UNL     1      53.188 154.427  26.158  0.00  0.00    +0.000 C 
ATOM     35  C   UNL     1      53.146 153.238  27.073  0.00  0.00    +0.000 C 
ATOM     36  C   UNL     1      52.582 153.828  28.368  0.00  0.00    +0.000 C 
ENDBRANCH  31  32
ENDBRANCH  29  31
ENDBRANCH  24  29
ENDBRANCH   1  24
TORSDOF 9
ENDMDL
