MODEL 1
REMARK VINA RESULT:    -4.937      0.000      0.000
REMARK INTER + INTRA:          -6.024
REMARK INTER:                  -5.947
REMARK INTRA:                  -0.076
REMARK UNBOUND:                -0.076
REMARK  Name = 
REMARK  6 active torsions:
REMARK  status: ('A' for Active; 'I' for Inactive)
REMARK    1  A    between atoms: C_9  and  N_10
REMARK    2  A    between atoms: N_10  and  C_11
REMARK    3  A    between atoms: C_11  and  C_21
REMARK    4  A    between atoms: C_14  and  C_16
REMARK    5  A    between atoms: N_19  and  C_20
REMARK    6  A    between atoms: C_21  and  O_23
REMARK                            x       y       z     vdW  Elec       q    Type
REMARK                         _______ _______ _______ _____ _____    ______ ____
ROOT
ATOM      1  C   UNL     1      53.408 152.838  26.088  0.00  0.00    +0.000 C 
ATOM      2  C   UNL     1      53.157 153.784  24.892  0.00  0.00    +0.000 C 
ATOM      3  N   UNL     1      54.289 154.635  24.736  0.00  0.00    +0.000 N 
ATOM      4  C   UNL     1      54.081 156.022  24.494  0.00  0.00    +0.000 C 
ATOM      5  O   UNL     1      52.890 156.489  24.428  0.00  0.00    +0.000 OA
ATOM      6  C   UNL     1      55.177 157.005  24.306  0.00  0.00    +0.000 C 
ATOM      7  C   UNL     1      55.619 154.133  24.814  0.00  0.00    +0.000 C 
ATOM      8  C   UNL     1      55.773 152.906  25.676  0.00  0.00    +0.000 C 
ATOM      9  N   UNL     1      54.580 152.101  25.776  0.00  0.00    +0.000 NA
ATOM     10  C   UNL     1      54.502 151.169  24.698  0.00  0.00    +0.000 C 
ENDROOT
BRANCH   1  11
ATOM     11  N   UNL     1      53.620 153.696  27.204  0.00  0.00    +0.000 NA
ATOM     12  H   UNL     1      54.409 153.458  27.806  0.00  0.00    +0.000 HD
BRANCH  11  21
ATOM     13  C   UNL     1      52.556 155.618  28.213  0.00  0.00    +0.000 A 
ATOM     14  C   UNL     1      51.896 156.151  29.280  0.00  0.00    +0.000 A 
ATOM     15  O   UNL     1      52.133 157.439  29.289  0.00  0.00    +0.000 OA
ATOM     16  C   UNL     1      52.899 157.772  28.301  0.00  0.00    +0.000 A 
ATOM     17  C   UNL     1      53.218 156.633  27.555  0.00  0.00    +0.000 A 
ATOM     18  C   UNL     1      51.071 155.350  30.223  0.00  0.00    +0.000 C 
ATOM     19  C   UNL     1      51.124 153.884  29.897  0.00  0.00    +0.000 C 
ATOM     20  C   UNL     1      52.467 153.490  29.288  0.00  0.00    +0.000 C 
ATOM     21  C   UNL     1      52.491 154.157  27.920  0.00  0.00    +0.000 C 
ENDBRANCH  11  21
ENDBRANCH   1  11
BRANCH   1  22
ATOM     22  C   UNL     1      52.244 151.949  26.226  0.00  0.00    +0.000 C 
ATOM     23  O   UNL     1      51.097 152.362  25.825  0.00  0.00    +0.000 OA
BRANCH  22  24
ATOM     24  O   UNL     1      52.244 150.676  26.760  0.00  0.00    +0.000 OA
ATOM     25  H   UNL     1      53.000 150.315  27.363  0.00  0.00    +0.000 HD
ENDBRANCH  22  24
ENDBRANCH   1  22
TORSDOF 4
ENDMDL
