MODEL 1
REMARK VINA RESULT:    -8.992      0.000      0.000
REMARK INTER + INTRA:         -12.193
REMARK INTER:                 -11.621
REMARK INTRA:                  -0.572
REMARK UNBOUND:                -0.572
REMARK  Name = 
REMARK  5 active torsions:
REMARK  status: ('A' for Active; 'I' for Inactive)
REMARK    1  A    between atoms: C_1  and  C_3
REMARK    2  A    between atoms: N_7  and  C_8
REMARK    3  A    between atoms: C_8  and  N_9
REMARK    4  A    between atoms: C_12  and  C_17
REMARK    5  A    between atoms: C_17  and  C_18
REMARK                            x       y       z     vdW  Elec       q    Type
REMARK                         _______ _______ _______ _____ _____    ______ ____
ROOT
ATOM      1  N   UNL     1      52.854 154.652  28.729  0.00  0.00    +0.000 NA
ATOM      2  C   UNL     1      52.744 155.483  27.553  0.00  0.00    +0.000 C 
ATOM      3  C   UNL     1      52.959 156.923  28.018  0.00  0.00    +0.000 C 
ATOM      4  C   UNL     1      51.842 157.250  28.956  0.00  0.00    +0.000 C 
ATOM      5  C   UNL     1      51.694 156.248  30.081  0.00  0.00    +0.000 C 
ATOM      6  C   UNL     1      51.646 154.857  29.469  0.00  0.00    +0.000 C 
ATOM      7  C   UNL     1      50.589 154.821  28.386  0.00  0.00    +0.000 C 
ATOM      8  C   UNL     1      51.304 155.258  27.148  0.00  0.00    +0.000 C 
ENDROOT
BRANCH   1   9
ATOM      9  C   UNL     1      53.044 153.265  28.391  0.00  0.00    +0.000 C 
BRANCH   9  12
ATOM     10  C   UNL     1      53.604 152.364  26.129  0.00  0.00    +0.000 C 
ATOM     11  O   UNL     1      52.516 151.751  26.082  0.00  0.00    +0.000 OA
ATOM     12  N   UNL     1      53.935 153.150  27.268  0.00  0.00    +0.000 N 
ATOM     13  H   UNL     1      54.836 153.639  27.274  0.00  0.00    +0.000 HD
BRANCH  10  14
ATOM     14  C   UNL     1      54.523 152.256  24.992  0.00  0.00    +0.000 C 
ATOM     15  C   UNL     1      53.956 152.526  23.641  0.00  0.00    +0.000 C 
ATOM     16  N   UNL     1      55.020 153.482  23.403  0.00  0.00    +0.000 NA
ATOM     17  C   UNL     1      55.411 153.454  24.793  0.00  0.00    +0.000 C 
ATOM     18  H   UNL     1      54.685 154.435  23.073  0.00  0.00    +0.000 HD
ENDBRANCH  10  14
ENDBRANCH   9  12
ENDBRANCH   1   9
BRANCH   4  19
ATOM     19  C   UNL     1      51.904 158.657  29.493  0.00  0.00    +0.000 C 
BRANCH  19  20
ATOM     20  C   UNL     1      50.672 159.032  30.234  0.00  0.00    +0.000 A 
ATOM     21  C   UNL     1      49.450 158.406  30.026  0.00  0.00    +0.000 A 
ATOM     22  C   UNL     1      48.316 158.770  30.724  0.00  0.00    +0.000 A 
ATOM     23  C   UNL     1      48.344 159.776  31.667  0.00  0.00    +0.000 A 
ATOM     24  F   UNL     1      47.220 160.136  32.359  0.00  0.00    +0.000 F 
ATOM     25  C   UNL     1      49.553 160.402  31.880  0.00  0.00    +0.000 A 
ATOM     26  C   UNL     1      50.688 160.037  31.178  0.00  0.00    +0.000 A 
ENDBRANCH  19  20
ENDBRANCH   4  19
TORSDOF 5
ENDMDL
