MODEL 1
REMARK VINA RESULT:    -2.804      0.000      0.000
REMARK INTER + INTRA:          -3.590
REMARK INTER:                  -3.296
REMARK INTRA:                  -0.294
REMARK UNBOUND:                -0.294
REMARK  Name = 
REMARK  5 active torsions:
REMARK  status: ('A' for Active; 'I' for Inactive)
REMARK    1  A    between atoms: C_1  and  C_17
REMARK    2  A    between atoms: C_4  and  C_5
REMARK    3  A    between atoms: C_6  and  O_7
REMARK    4  A    between atoms: O_7  and  C_8
REMARK    5  A    between atoms: N_18  and  C_22
REMARK                            x       y       z     vdW  Elec       q    Type
REMARK                         _______ _______ _______ _____ _____    ______ ____
ROOT
ATOM      1  C   UNL     1      52.441 155.053  25.734  0.00  0.00    +0.000 C 
ATOM      2  O   UNL     1      51.936 155.733  24.766  0.00  0.00    +0.000 OA
ATOM      3  N   UNL     1      53.319 154.020  25.365  0.00  0.00    +0.000 N 
ATOM      4  C   UNL     1      53.865 153.113  26.251  0.00  0.00    +0.000 C 
ATOM      5  C   UNL     1      55.326 152.749  26.145  0.00  0.00    +0.000 C 
ATOM      6  N   UNL     1      55.926 153.169  24.953  0.00  0.00    +0.000 NA
ATOM      7  C   UNL     1      55.212 153.639  23.857  0.00  0.00    +0.000 C 
ATOM      8  C   UNL     1      53.787 154.016  23.988  0.00  0.00    +0.000 C 
ATOM      9  H   UNL     1      56.930 153.108  24.885  0.00  0.00    +0.000 HD
ENDROOT
BRANCH   4  10
ATOM     10  C   UNL     1      53.085 151.913  26.596  0.00  0.00    +0.000 A 
ATOM     11  C   UNL     1      53.029 150.738  25.863  0.00  0.00    +0.000 A 
ATOM     12  C   UNL     1      52.200 149.686  26.182  0.00  0.00    +0.000 A 
ATOM     13  C   UNL     1      51.373 149.766  27.266  0.00  0.00    +0.000 A 
ATOM     14  C   UNL     1      51.383 150.905  28.034  0.00  0.00    +0.000 A 
ATOM     15  C   UNL     1      52.216 151.931  27.694  0.00  0.00    +0.000 A 
BRANCH  11  16
ATOM     16  O   UNL     1      53.856 150.599  24.744  0.00  0.00    +0.000 OA
ATOM     17  C   UNL     1      54.336 149.343  24.340  0.00  0.00    +0.000 C 
ENDBRANCH  11  16
ENDBRANCH   4  10
BRANCH   1  18
ATOM     18  C   UNL     1      52.080 155.410  27.097  0.00  0.00    +0.000 A 
ATOM     19  N   UNL     1      52.594 156.417  27.835  0.00  0.00    +0.000 N 
ATOM     20  C   UNL     1      52.070 156.386  29.094  0.00  0.00    +0.000 A 
ATOM     21  C   UNL     1      51.196 155.334  29.156  0.00  0.00    +0.000 A 
ATOM     22  N   UNL     1      51.226 154.772  27.935  0.00  0.00    +0.000 NA
ATOM     23  C   UNL     1      53.541 157.421  27.459  0.00  0.00    +0.000 C 
ENDBRANCH   1  18
TORSDOF 3
ENDMDL
