MODEL 1
REMARK VINA RESULT:    -9.450      0.000      0.000
REMARK INTER + INTRA:         -11.804
REMARK INTER:                 -12.765
REMARK INTRA:                   0.961
REMARK UNBOUND:                 0.961
REMARK  Name = 
REMARK  8 active torsions:
REMARK  status: ('A' for Active; 'I' for Inactive)
REMARK    1  A    between atoms: N_1  and  C_17
REMARK    2  A    between atoms: C_8  and  N_9
REMARK    3  A    between atoms: N_9  and  C_10
REMARK    4  A    between atoms: C_10  and  C_11
REMARK    5  A    between atoms: C_11  and  C_12
REMARK    6  A    between atoms: C_12  and  O_13
REMARK    7  A    between atoms: O_13  and  C_14
REMARK    8  A    between atoms: C_19  and  C_23
REMARK                            x       y       z     vdW  Elec       q    Type
REMARK                         _______ _______ _______ _____ _____    ______ ____
ROOT
ATOM      1  N   UNL     1      52.635 154.322  26.960  0.00  0.00    +0.000 N 
ATOM      2  C   UNL     1      51.827 153.583  27.867  0.00  0.00    +0.000 C 
ATOM      3  O   UNL     1      51.624 152.351  27.624  0.00  0.00    +0.000 OA
ATOM      4  N   UNL     1      51.262 154.226  29.017  0.00  0.00    +0.000 N 
ATOM      5  C   UNL     1      51.483 155.608  29.298  0.00  0.00    +0.000 C 
ATOM      6  O   UNL     1      50.963 156.121  30.324  0.00  0.00    +0.000 OA
ATOM      7  C   UNL     1      52.300 156.375  28.394  0.00  0.00    +0.000 C 
ATOM      8  C   UNL     1      52.518 157.666  28.642  0.00  0.00    +0.000 C 
ATOM      9  C   UNL     1      52.864 155.699  27.229  0.00  0.00    +0.000 C 
ATOM     10  O   UNL     1      53.567 156.346  26.443  0.00  0.00    +0.000 OA
ATOM     11  H   UNL     1      50.671 153.667  29.666  0.00  0.00    +0.000 HD
ENDROOT
BRANCH   1  12
ATOM     12  C   UNL     1      53.192 153.646  25.816  0.00  0.00    +0.000 A 
ATOM     13  C   UNL     1      53.448 152.290  25.847  0.00  0.00    +0.000 A 
ATOM     14  C   UNL     1      53.983 151.631  24.757  0.00  0.00    +0.000 A 
ATOM     15  C   UNL     1      54.254 152.374  23.629  0.00  0.00    +0.000 A 
ATOM     16  C   UNL     1      54.008 153.734  23.565  0.00  0.00    +0.000 A 
ATOM     17  C   UNL     1      53.478 154.345  24.672  0.00  0.00    +0.000 A 
ATOM     18  C   UNL     1      54.277 150.195  24.726  0.00  0.00    +0.000 C 
ENDBRANCH   1  12
BRANCH   8  19
ATOM     19  N   UNL     1      51.964 158.313  29.780  0.00  0.00    +0.000 N 
ATOM     20  H   UNL     1      52.236 158.029  30.763  0.00  0.00    +0.000 HD
BRANCH  19  21
ATOM     21  C   UNL     1      51.002 159.398  29.686  0.00  0.00    +0.000 C 
BRANCH  21  22
ATOM     22  C   UNL     1      50.772 160.142  30.939  0.00  0.00    +0.000 C 
BRANCH  22  23
ATOM     23  C   UNL     1      51.742 161.165  31.351  0.00  0.00    +0.000 C 
BRANCH  23  24
ATOM     24  O   UNL     1      52.800 161.459  30.588  0.00  0.00    +0.000 OA
ATOM     25  C   UNL     1      53.832 162.217  30.978  0.00  0.00    +0.000 C 
ENDBRANCH  23  24
ENDBRANCH  22  23
ENDBRANCH  21  22
ENDBRANCH  19  21
ENDBRANCH   8  19
TORSDOF 6
ENDMDL
