MODEL 1
REMARK VINA RESULT:    22.513      0.000      0.000
REMARK INTER + INTRA:          27.859
REMARK INTER:                  28.436
REMARK INTRA:                  -0.577
REMARK UNBOUND:                -0.577
REMARK  Name = 
REMARK  6 active torsions:
REMARK  status: ('A' for Active; 'I' for Inactive)
REMARK    1  A    between atoms: N_1  and  C_3
REMARK    2  A    between atoms: C_5  and  C_33
REMARK    3  A    between atoms: C_10  and  N_11
REMARK    4  A    between atoms: C_17  and  N_18
REMARK    5  A    between atoms: C_23  and  C_24
REMARK    6  A    between atoms: C_26  and  C_29
REMARK                            x       y       z     vdW  Elec       q    Type
REMARK                         _______ _______ _______ _____ _____    ______ ____
ROOT
ATOM      1  C   UNL     1      53.348 157.721  29.458  0.00  0.00    +0.000 C 
ATOM      2  C   UNL     1      53.089 156.829  30.369  0.00  0.00    +0.000 C 
ATOM      3  C   UNL     1      52.632 155.869  29.408  0.00  0.00    +0.000 C 
ATOM      4  N   UNL     1      52.829 156.881  28.458  0.00  0.00    +0.000 N 
ATOM      5  C   UNL     1      52.503 156.706  27.065  0.00  0.00    +0.000 C 
ATOM      6  N   UNL     1      53.069 157.509  26.232  0.00  0.00    +0.000 NA
ATOM      7  S   UNL     1      53.583 157.001  24.558  0.00  0.00    +0.000 S 
ATOM      8  C   UNL     1      54.078 155.282  24.653  0.00  0.00    +0.000 C 
ATOM      9  S   UNL     1      51.383 155.403  26.624  0.00  0.00    +0.000 S 
ATOM     10  C   UNL     1      51.944 154.262  25.410  0.00  0.00    +0.000 C 
ATOM     11  C   UNL     1      53.415 154.276  25.259  0.00  0.00    +0.000 C 
ATOM     12  C   UNL     1      54.322 153.218  25.690  0.00  0.00    +0.000 C 
ATOM     13  C   UNL     1      54.108 152.061  26.256  0.00  0.00    +0.000 C 
ATOM     14  C   UNL     1      52.930 151.349  26.692  0.00  0.00    +0.000 C 
ATOM     15  C   UNL     1      52.298 151.263  27.853  0.00  0.00    +0.000 C 
ATOM     16  C   UNL     1      52.466 151.794  29.161  0.00  0.00    +0.000 C 
ATOM     17  C   UNL     1      51.335 155.211  29.523  0.00  0.00    +0.000 C 
ATOM     18  C   UNL     1      51.139 153.894  29.744  0.00  0.00    +0.000 C 
ATOM     19  C   UNL     1      52.044 152.790  29.918  0.00  0.00    +0.000 C 
ATOM     20  C   UNL     1      53.796 154.839  29.214  0.00  0.00    +0.000 C 
ENDROOT
BRANCH  17  21
ATOM     21  C   UNL     1      50.120 156.009  29.388  0.00  0.00    +0.000 A 
ATOM     22  O   UNL     1      49.934 157.255  29.802  0.00  0.00    +0.000 OA
ATOM     23  C   UNL     1      48.728 157.670  29.523  0.00  0.00    +0.000 A 
ATOM     24  C   UNL     1      48.046 156.659  28.884  0.00  0.00    +0.000 A 
ATOM     25  C   UNL     1      48.955 155.608  28.810  0.00  0.00    +0.000 A 
BRANCH  23  26
ATOM     26  C   UNL     1      48.129 158.969  29.806  0.00  0.00    +0.000 C 
ATOM     27  O   UNL     1      47.954 159.327  30.988  0.00  0.00    +0.000 OA
ENDBRANCH  23  26
ENDBRANCH  17  21
BRANCH   1  28
ATOM     28  N   UNL     1      53.882 159.083  29.465  0.00  0.00    +0.000 N 
ATOM     29  O   UNL     1      55.048 159.237  29.095  0.00  0.00    +0.000 OA
ATOM     30  O   UNL     1      53.051 160.077  29.879  0.00  0.00    +0.000 OA
ENDBRANCH   1  28
BRANCH   8  31
ATOM     31  N   UNL     1      55.304 154.930  24.038  0.00  0.00    +0.000 N 
ATOM     32  H   UNL     1      55.371 154.958  22.996  0.00  0.00    +0.000 HD
ATOM     33  H   UNL     1      56.162 154.641  24.559  0.00  0.00    +0.000 HD
ENDBRANCH   8  31
BRANCH  14  34
ATOM     34  N   UNL     1      52.380 150.439  25.658  0.00  0.00    +0.000 N 
ATOM     35  O   UNL     1      51.372 149.774  25.845  0.00  0.00    +0.000 OA
ATOM     36  O   UNL     1      53.081 150.395  24.498  0.00  0.00    +0.000 OA
ENDBRANCH  14  34
TORSDOF 5
ENDMDL
