MODEL 1
REMARK VINA RESULT:    -4.569      0.000      0.000
REMARK INTER + INTRA:          -7.728
REMARK INTER:                  -6.839
REMARK INTRA:                  -0.888
REMARK UNBOUND:                -0.888
REMARK  Name = 
REMARK  11 active torsions:
REMARK  status: ('A' for Active; 'I' for Inactive)
REMARK    1  A    between atoms: C_1  and  C_11
REMARK    2  A    between atoms: N_13  and  N_14
REMARK    3  A    between atoms: N_14  and  C_15
REMARK    4  A    between atoms: C_15  and  C_16
REMARK    5  A    between atoms: C_15  and  C_24
REMARK    6  A    between atoms: C_15  and  N_33
REMARK    7  A    between atoms: C_19  and  O_22
REMARK    8  A    between atoms: O_22  and  C_23
REMARK    9  A    between atoms: C_24  and  C_25
REMARK   10  A    between atoms: C_28  and  O_31
REMARK   11  A    between atoms: O_31  and  C_32
REMARK                            x       y       z     vdW  Elec       q    Type
REMARK                         _______ _______ _______ _____ _____    ______ ____
ROOT
ATOM      1  C   UNL     1      48.965 158.967  30.415  0.00  0.00    +0.000 C 
ENDROOT
BRANCH   1   2
ATOM      2  C   UNL     1      48.886 159.762  31.652  0.00  0.00    +0.000 A 
ATOM      3  C   UNL     1      48.090 160.914  31.638  0.00  0.00    +0.000 A 
ATOM      4  C   UNL     1      47.992 161.669  32.781  0.00  0.00    +0.000 A 
ATOM      5  C   UNL     1      48.658 161.314  33.925  0.00  0.00    +0.000 A 
ATOM      6  C   UNL     1      49.460 160.177  33.981  0.00  0.00    +0.000 A 
ATOM      7  C   UNL     1      49.554 159.425  32.834  0.00  0.00    +0.000 A 
BRANCH   5   8
ATOM      8  O   UNL     1      48.529 162.113  35.057  0.00  0.00    +0.000 OA
ATOM      9  C   UNL     1      47.275 162.510  35.584  0.00  0.00    +0.000 C 
ENDBRANCH   5   8
ENDBRANCH   1   2
BRANCH   1  10
ATOM     10  N   UNL     1      47.570 158.831  29.909  0.00  0.00    +0.000 NA
ATOM     11  H   UNL     1      47.452 159.593  29.225  0.00  0.00    +0.000 HD
ATOM     12  H   UNL     1      47.490 157.907  29.444  0.00  0.00    +0.000 HD
ENDBRANCH   1  10
BRANCH   1  13
ATOM     13  N   UNL     1      49.477 157.673  30.611  0.00  0.00    +0.000 NA
ATOM     14  H   UNL     1      49.049 157.087  31.336  0.00  0.00    +0.000 HD
BRANCH  13  17
ATOM     15  C   UNL     1      50.855 155.882  29.689  0.00  0.00    +0.000 C 
ATOM     16  O   UNL     1      50.967 155.338  30.847  0.00  0.00    +0.000 OA
ATOM     17  N   UNL     1      50.110 157.036  29.582  0.00  0.00    +0.000 N 
ATOM     18  H   UNL     1      50.002 157.488  28.624  0.00  0.00    +0.000 HD
BRANCH  15  19
ATOM     19  C   UNL     1      51.533 155.219  28.598  0.00  0.00    +0.000 A 
ATOM     20  S   UNL     1      51.409 153.415  28.356  0.00  0.00    +0.000 S 
ATOM     21  C   UNL     1      52.483 153.346  26.937  0.00  0.00    +0.000 A 
ATOM     22  C   UNL     1      52.853 154.655  26.748  0.00  0.00    +0.000 A 
ATOM     23  C   UNL     1      52.359 155.580  27.600  0.00  0.00    +0.000 A 
ATOM     24 CL   UNL     1      52.780 157.341  27.464  0.00  0.00    +0.000 Cl
ATOM     25  C   UNL     1      53.727 154.841  25.666  0.00  0.00    +0.000 A 
ATOM     26  C   UNL     1      54.150 153.817  24.892  0.00  0.00    +0.000 A 
ATOM     27  C   UNL     1      53.768 152.514  25.095  0.00  0.00    +0.000 A 
ATOM     28  C   UNL     1      52.907 152.282  26.156  0.00  0.00    +0.000 A 
ENDBRANCH  15  19
ENDBRANCH  13  17
ENDBRANCH   1  13
BRANCH   1  29
ATOM     29  C   UNL     1      49.744 159.718  29.309  0.00  0.00    +0.000 C 
BRANCH  29  30
ATOM     30  C   UNL     1      50.934 160.371  29.892  0.00  0.00    +0.000 A 
ATOM     31  C   UNL     1      50.893 161.661  30.348  0.00  0.00    +0.000 A 
ATOM     32  C   UNL     1      52.036 162.249  30.901  0.00  0.00    +0.000 A 
ATOM     33  C   UNL     1      53.209 161.553  30.998  0.00  0.00    +0.000 A 
ATOM     34  C   UNL     1      53.245 160.249  30.534  0.00  0.00    +0.000 A 
ATOM     35  C   UNL     1      52.121 159.678  29.993  0.00  0.00    +0.000 A 
BRANCH  33  36
ATOM     36  O   UNL     1      54.376 162.117  31.553  0.00  0.00    +0.000 OA
ATOM     37  C   UNL     1      55.614 162.088  30.911  0.00  0.00    +0.000 C 
ENDBRANCH  33  36
ENDBRANCH  29  30
ENDBRANCH   1  29
TORSDOF 9
ENDMDL
