MODEL 1
REMARK VINA RESULT:    -3.337      0.000      0.000
REMARK INTER + INTRA:          -3.671
REMARK INTER:                  -4.898
REMARK INTRA:                   1.227
REMARK UNBOUND:                 1.227
REMARK  Name = 
REMARK  9 active torsions:
REMARK  status: ('A' for Active; 'I' for Inactive)
REMARK    1  A    between atoms: C_1  and  C_22
REMARK    2  A    between atoms: C_2  and  O_21
REMARK    3  A    between atoms: N_5  and  C_15
REMARK    4  A    between atoms: C_6  and  C_7
REMARK    5  A    between atoms: C_15  and  C_16
REMARK    6  A    between atoms: C_16  and  C_17
REMARK    7  A    between atoms: C_17  and  C_18
REMARK    8  A    between atoms: C_18  and  O_20
REMARK    9  A    between atoms: C_22  and  C_24
REMARK                            x       y       z     vdW  Elec       q    Type
REMARK                         _______ _______ _______ _____ _____    ______ ____
ROOT
ATOM      1  C   UNL     1      52.773 153.258  27.610  0.00  0.00    +0.000 C 
ATOM      2  C   UNL     1      52.698 153.184  28.903  0.00  0.00    +0.000 C 
ATOM      3  C   UNL     1      51.734 154.189  29.401  0.00  0.00    +0.000 C 
ATOM      4  O   UNL     1      51.453 154.359  30.591  0.00  0.00    +0.000 OA
ATOM      5  N   UNL     1      51.202 154.902  28.294  0.00  0.00    +0.000 N 
ATOM      6  C   UNL     1      51.860 154.423  27.154  0.00  0.00    +0.000 C 
ENDROOT
BRANCH   6   7
ATOM      7  C   UNL     1      52.622 155.309  26.301  0.00  0.00    +0.000 A 
ATOM      8  C   UNL     1      53.238 156.474  26.711  0.00  0.00    +0.000 A 
ATOM      9  C   UNL     1      53.948 157.273  25.842  0.00  0.00    +0.000 A 
ATOM     10  C   UNL     1      54.080 156.950  24.515  0.00  0.00    +0.000 A 
ATOM     11  C   UNL     1      53.475 155.791  24.074  0.00  0.00    +0.000 A 
ATOM     12  C   UNL     1      52.766 154.997  24.951  0.00  0.00    +0.000 A 
ATOM     13 CL   UNL     1      54.969 157.931  23.376  0.00  0.00    +0.000 Cl
ATOM     14 CL   UNL     1      53.108 156.936  28.371  0.00  0.00    +0.000 Cl
ENDBRANCH   6   7
BRANCH   2  15
ATOM     15  O   UNL     1      53.350 152.345  29.788  0.00  0.00    +0.000 OA
ATOM     16  H   UNL     1      53.980 151.656  29.382  0.00  0.00    +0.000 HD
ENDBRANCH   2  15
BRANCH   1  17
ATOM     17  C   UNL     1      53.522 152.555  26.607  0.00  0.00    +0.000 C 
ATOM     18  O   UNL     1      54.563 153.214  26.146  0.00  0.00    +0.000 OA
BRANCH  17  19
ATOM     19  C   UNL     1      53.349 151.273  26.008  0.00  0.00    +0.000 A 
ATOM     20  C   UNL     1      54.296 150.827  25.049  0.00  0.00    +0.000 A 
ATOM     21  C   UNL     1      54.268 149.594  24.478  0.00  0.00    +0.000 A 
ATOM     22  C   UNL     1      53.292 148.693  24.812  0.00  0.00    +0.000 A 
ATOM     23  C   UNL     1      52.359 149.075  25.731  0.00  0.00    +0.000 A 
ATOM     24  C   UNL     1      52.384 150.340  26.321  0.00  0.00    +0.000 A 
ENDBRANCH  17  19
ENDBRANCH   1  17
BRANCH   5  25
ATOM     25  C   UNL     1      50.144 155.839  28.394  0.00  0.00    +0.000 C 
BRANCH  25  26
ATOM     26  C   UNL     1      49.722 156.355  29.701  0.00  0.00    +0.000 C 
BRANCH  26  27
ATOM     27  C   UNL     1      50.176 157.709  30.118  0.00  0.00    +0.000 C 
BRANCH  27  28
ATOM     28  C   UNL     1      49.035 158.551  30.590  0.00  0.00    +0.000 C 
ATOM     29  O   UNL     1      47.996 158.589  29.919  0.00  0.00    +0.000 OA
BRANCH  28  30
ATOM     30  O   UNL     1      49.160 159.262  31.751  0.00  0.00    +0.000 OA
ATOM     31  H   UNL     1      48.654 160.138  31.940  0.00  0.00    +0.000 HD
ENDBRANCH  28  30
ENDBRANCH  27  28
ENDBRANCH  26  27
ENDBRANCH  25  26
ENDBRANCH   5  25
TORSDOF 9
ENDMDL
