MODEL 1
REMARK VINA RESULT:    -9.800      0.000      0.000
REMARK INTER + INTRA:         -11.938
REMARK INTER:                 -13.523
REMARK INTRA:                   1.585
REMARK UNBOUND:                 1.585
REMARK  Name = 
REMARK  7 active torsions:
REMARK  status: ('A' for Active; 'I' for Inactive)
REMARK    1  A    between atoms: C_1  and  C_15
REMARK    2  A    between atoms: C_2  and  C_3
REMARK    3  A    between atoms: C_5  and  C_6
REMARK    4  A    between atoms: C_6  and  N_7
REMARK    5  A    between atoms: N_17  and  C_18
REMARK    6  A    between atoms: C_18  and  C_19
REMARK    7  A    between atoms: C_19  and  C_20
REMARK                            x       y       z     vdW  Elec       q    Type
REMARK                         _______ _______ _______ _____ _____    ______ ____
ROOT
ATOM      1  C   UNL     1      53.394 155.320  26.450  0.00  0.00    +0.000 A 
ATOM      2  C   UNL     1      53.665 154.331  25.571  0.00  0.00    +0.000 A 
ATOM      3  C   UNL     1      54.303 154.630  24.355  0.00  0.00    +0.000 A 
ATOM      4  C   UNL     1      54.647 155.928  24.066  0.00  0.00    +0.000 A 
ATOM      5  C   UNL     1      54.361 156.912  24.973  0.00  0.00    +0.000 A 
ATOM      6  N   UNL     1      53.753 156.609  26.126  0.00  0.00    +0.000 NA
ENDROOT
BRANCH   2   7
ATOM      7  C   UNL     1      53.272 152.968  25.800  0.00  0.00    +0.000 A 
ATOM      8  C   UNL     1      53.912 151.926  25.174  0.00  0.00    +0.000 A 
ATOM      9  C   UNL     1      53.541 150.607  25.331  0.00  0.00    +0.000 A 
ATOM     10  C   UNL     1      52.473 150.326  26.158  0.00  0.00    +0.000 A 
ATOM     11  C   UNL     1      51.817 151.360  26.795  0.00  0.00    +0.000 A 
ATOM     12  C   UNL     1      52.214 152.685  26.618  0.00  0.00    +0.000 A 
BRANCH   9  13
ATOM     13  C   UNL     1      54.227 149.473  24.658  0.00  0.00    +0.000 C 
BRANCH  13  14
ATOM     14  N   UNL     1      53.476 148.274  24.976  0.00  0.00    +0.000 NA
ATOM     15  H   UNL     1      53.537 148.167  26.027  0.00  0.00    +0.000 HD
ATOM     16  H   UNL     1      53.892 147.420  24.529  0.00  0.00    +0.000 HD
ENDBRANCH  13  14
ENDBRANCH   9  13
ENDBRANCH   2   7
BRANCH   1  17
ATOM     17  C   UNL     1      52.797 155.075  27.735  0.00  0.00    +0.000 C 
ATOM     18  O   UNL     1      53.241 154.204  28.500  0.00  0.00    +0.000 OA
ATOM     19  N   UNL     1      51.655 155.821  28.210  0.00  0.00    +0.000 N 
ATOM     20  H   UNL     1      51.318 156.548  27.519  0.00  0.00    +0.000 HD
BRANCH  19  21
ATOM     21  C   UNL     1      51.054 155.586  29.484  0.00  0.00    +0.000 C 
BRANCH  21  22
ATOM     22  C   UNL     1      49.692 156.209  29.641  0.00  0.00    +0.000 C 
BRANCH  22  23
ATOM     23  C   UNL     1      49.901 157.647  29.997  0.00  0.00    +0.000 A 
ATOM     24  C   UNL     1      48.837 158.431  30.405  0.00  0.00    +0.000 A 
ATOM     25  C   UNL     1      49.048 159.759  30.732  0.00  0.00    +0.000 A 
ATOM     26  F   UNL     1      48.011 160.557  31.138  0.00  0.00    +0.000 F 
ATOM     27  C   UNL     1      50.293 160.338  30.664  0.00  0.00    +0.000 A 
ATOM     28  C   UNL     1      51.360 159.573  30.261  0.00  0.00    +0.000 A 
ATOM     29  C   UNL     1      51.140 158.250  29.938  0.00  0.00    +0.000 A 
ENDBRANCH  22  23
ENDBRANCH  21  22
ENDBRANCH  19  21
ENDBRANCH   1  17
TORSDOF 7
ENDMDL
