MODEL 1
REMARK VINA RESULT:     1.444      0.000      0.000
REMARK INTER + INTRA:           1.395
REMARK INTER:                   2.119
REMARK INTRA:                  -0.724
REMARK UNBOUND:                -0.724
REMARK  Name = 
REMARK  8 active torsions:
REMARK  status: ('A' for Active; 'I' for Inactive)
REMARK    1  A    between atoms: C_1  and  C_6
REMARK    2  A    between atoms: C_8  and  O_20
REMARK    3  A    between atoms: C_9  and  O_10
REMARK    4  A    between atoms: O_10  and  C_11
REMARK    5  A    between atoms: C_11  and  C_12
REMARK    6  A    between atoms: O_20  and  C_21
REMARK    7  A    between atoms: C_21  and  N_22
REMARK    8  A    between atoms: C_23  and  C_35
REMARK                            x       y       z     vdW  Elec       q    Type
REMARK                         _______ _______ _______ _____ _____    ______ ____
ROOT
ATOM      1  C   UNL     1      53.961 161.806  31.362  0.00  0.00    +0.000 A 
ATOM      2  C   UNL     1      53.706 160.484  31.065  0.00  0.00    +0.000 A 
ATOM      3  C   UNL     1      52.556 160.141  30.390  0.00  0.00    +0.000 A 
ATOM      4  C   UNL     1      51.660 161.125  30.010  0.00  0.00    +0.000 A 
ATOM      5  C   UNL     1      51.921 162.442  30.308  0.00  0.00    +0.000 A 
ATOM      6  C   UNL     1      53.076 162.783  30.986  0.00  0.00    +0.000 A 
ENDROOT
BRANCH   1   7
ATOM      7  C   UNL     1      55.184 162.161  32.079  0.00  0.00    +0.000 A 
ATOM      8  N   UNL     1      55.442 163.293  32.745  0.00  0.00    +0.000 NA
ATOM      9  N   UNL     1      56.667 163.187  33.239  0.00  0.00    +0.000 NA
ATOM     10  N   UNL     1      57.207 162.035  32.920  0.00  0.00    +0.000 N 
ATOM     11  N   UNL     1      56.288 161.400  32.202  0.00  0.00    +0.000 NA
ATOM     12  H   UNL     1      58.131 161.616  33.128  0.00  0.00    +0.000 HD
ENDBRANCH   1   7
BRANCH   4  13
ATOM     13  O   UNL     1      50.497 160.819  29.329  0.00  0.00    +0.000 OA
BRANCH  13  14
ATOM     14  C   UNL     1      49.199 161.070  29.808  0.00  0.00    +0.000 C 
BRANCH  14  15
ATOM     15  C   UNL     1      49.129 161.104  31.290  0.00  0.00    +0.000 A 
ATOM     16  C   UNL     1      48.684 162.256  31.934  0.00  0.00    +0.000 A 
ATOM     17  C   UNL     1      48.628 162.264  33.314  0.00  0.00    +0.000 A 
ATOM     18  C   UNL     1      49.000 161.169  34.045  0.00  0.00    +0.000 A 
ATOM     19  C   UNL     1      49.436 160.038  33.403  0.00  0.00    +0.000 A 
ATOM     20  C   UNL     1      49.510 159.984  32.014  0.00  0.00    +0.000 A 
ENDBRANCH  14  15
ENDBRANCH  13  14
ENDBRANCH   4  13
BRANCH   3  21
ATOM     21  O   UNL     1      52.275 158.824  30.081  0.00  0.00    +0.000 OA
BRANCH  21  22
ATOM     22  C   UNL     1      53.026 158.222  29.031  0.00  0.00    +0.000 C 
BRANCH  22  23
ATOM     23  N   UNL     1      52.449 156.945  28.653  0.00  0.00    +0.000 N 
ATOM     24  C   UNL     1      53.218 155.962  27.891  0.00  0.00    +0.000 C 
ATOM     25  C   UNL     1      52.395 154.732  27.724  0.00  0.00    +0.000 C 
ATOM     26  C   UNL     1      51.763 154.369  29.078  0.00  0.00    +0.000 C 
ATOM     27  C   UNL     1      50.702 155.370  29.290  0.00  0.00    +0.000 A 
ATOM     28  C   UNL     1      51.108 156.690  29.054  0.00  0.00    +0.000 A 
ATOM     29  C   UNL     1      50.169 157.693  29.227  0.00  0.00    +0.000 A 
ATOM     30  C   UNL     1      48.873 157.411  29.620  0.00  0.00    +0.000 A 
ATOM     31  C   UNL     1      48.542 156.091  29.836  0.00  0.00    +0.000 A 
ATOM     32  C   UNL     1      49.440 155.042  29.678  0.00  0.00    +0.000 A 
ATOM     33  O   UNL     1      51.311 153.103  28.808  0.00  0.00    +0.000 OA
ATOM     34  C   UNL     1      52.466 152.457  28.320  0.00  0.00    +0.000 C 
ATOM     35  C   UNL     1      53.165 153.487  27.439  0.00  0.00    +0.000 C 
BRANCH  24  36
ATOM     36  C   UNL     1      53.539 156.487  26.543  0.00  0.00    +0.000 A 
ATOM     37  O   UNL     1      54.526 157.292  26.267  0.00  0.00    +0.000 OA
ATOM     38  C   UNL     1      54.506 157.548  24.970  0.00  0.00    +0.000 A 
ATOM     39  C   UNL     1      53.463 156.884  24.377  0.00  0.00    +0.000 A 
ATOM     40  C   UNL     1      52.831 156.192  25.402  0.00  0.00    +0.000 A 
ENDBRANCH  24  36
ENDBRANCH  22  23
ENDBRANCH  21  22
ENDBRANCH   3  21
TORSDOF 8
ENDMDL
