MODEL 1
REMARK VINA RESULT:     5.569      0.000      0.000
REMARK INTER + INTRA:          10.662
REMARK INTER:                   8.011
REMARK INTRA:                   2.651
REMARK UNBOUND:                 2.651
REMARK  Name = 
REMARK  11 active torsions:
REMARK  status: ('A' for Active; 'I' for Inactive)
REMARK    1  A    between atoms: C_1  and  C_3
REMARK    2  A    between atoms: N_8  and  C_9
REMARK    3  A    between atoms: C_12  and  C_13
REMARK    4  A    between atoms: C_13  and  C_15
REMARK    5  A    between atoms: C_17  and  C_18
REMARK    6  A    between atoms: N_21  and  C_32
REMARK    7  A    between atoms: C_26  and  C_27
REMARK    8  A    between atoms: C_27  and  O_29
REMARK    9  A    between atoms: C_32  and  C_33
REMARK   10  A    between atoms: C_32  and  C_35
REMARK   11  A    between atoms: C_33  and  C_34
REMARK                            x       y       z     vdW  Elec       q    Type
REMARK                         _______ _______ _______ _____ _____    ______ ____
ROOT
ATOM      1  C   UNL     1      50.201 160.094  30.571  0.00  0.00    +0.000 C 
ATOM      2  C   UNL     1      49.647 161.389  31.117  0.00  0.00    +0.000 C 
ATOM      3  O   UNL     1      49.538 162.447  30.501  0.00  0.00    +0.000 OA
ATOM      4  N   UNL     1      49.262 161.205  32.473  0.00  0.00    +0.000 N 
ATOM      5  C   UNL     1      49.629 159.850  32.847  0.00  0.00    +0.000 C 
ATOM      6  C   UNL     1      49.616 159.162  31.565  0.00  0.00    +0.000 C 
ATOM      7  O   UNL     1      48.289 159.034  31.029  0.00  0.00    +0.000 OA
ATOM      8  C   UNL     1      48.727 158.440  29.807  0.00  0.00    +0.000 C 
ATOM      9  C   UNL     1      49.488 159.698  29.308  0.00  0.00    +0.000 C 
ATOM     10  C   UNL     1      49.630 157.388  30.277  0.00  0.00    +0.000 C 
ATOM     11  C   UNL     1      49.916 157.736  31.537  0.00  0.00    +0.000 C 
ENDROOT
BRANCH   1  17
ATOM     12  C   UNL     1      52.441 159.237  29.896  0.00  0.00    +0.000 A 
ATOM     13  C   UNL     1      53.840 159.434  29.837  0.00  0.00    +0.000 A 
ATOM     14  C   UNL     1      54.439 160.537  30.390  0.00  0.00    +0.000 A 
ATOM     15  C   UNL     1      53.675 161.480  31.019  0.00  0.00    +0.000 A 
ATOM     16  C   UNL     1      52.309 161.258  31.058  0.00  0.00    +0.000 A 
ATOM     17  C   UNL     1      51.652 160.173  30.522  0.00  0.00    +0.000 A 
BRANCH  12  20
ATOM     18  C   UNL     1      52.687 157.219  28.473  0.00  0.00    +0.000 C 
ATOM     19  O   UNL     1      53.805 157.569  28.049  0.00  0.00    +0.000 OA
ATOM     20  N   UNL     1      51.948 158.012  29.387  0.00  0.00    +0.000 N 
ATOM     21  H   UNL     1      51.047 157.598  29.678  0.00  0.00    +0.000 HD
BRANCH  18  22
ATOM     22  C   UNL     1      52.163 155.920  27.968  0.00  0.00    +0.000 A 
ATOM     23  O   UNL     1      52.314 155.472  26.747  0.00  0.00    +0.000 OA
ATOM     24  C   UNL     1      51.758 154.307  26.567  0.00  0.00    +0.000 A 
ATOM     25  C   UNL     1      51.178 153.915  27.748  0.00  0.00    +0.000 A 
ATOM     26  C   UNL     1      51.446 154.960  28.636  0.00  0.00    +0.000 A 
ENDBRANCH  18  22
ENDBRANCH  12  20
BRANCH  15  27
ATOM     27  C   UNL     1      54.261 162.679  31.628  0.00  0.00    +0.000 C 
ATOM     28  O   UNL     1      53.650 163.771  31.649  0.00  0.00    +0.000 OA
ATOM     29  C   UNL     1      55.616 162.546  32.222  0.00  0.00    +0.000 C 
ENDBRANCH  15  27
ENDBRANCH   1  17
BRANCH   9  30
ATOM     30  C   UNL     1      48.402 160.623  28.883  0.00  0.00    +0.000 C 
ATOM     31  O   UNL     1      48.462 161.212  27.790  0.00  0.00    +0.000 OA
BRANCH  30  32
ATOM     32  O   UNL     1      47.332 160.814  29.712  0.00  0.00    +0.000 OA
ATOM     33  H   UNL     1      47.308 161.451  30.498  0.00  0.00    +0.000 HD
ENDBRANCH  30  32
ENDBRANCH   9  30
BRANCH   4  34
ATOM     34  C   UNL     1      48.627 162.141  33.370  0.00  0.00    +0.000 C 
ATOM     35  C   UNL     1      47.657 163.037  32.627  0.00  0.00    +0.000 C 
BRANCH  34  36
ATOM     36  C   UNL     1      47.954 161.496  34.554  0.00  0.00    +0.000 C 
ATOM     37  C   UNL     1      47.631 162.514  35.615  0.00  0.00    +0.000 C 
ENDBRANCH  34  36
ENDBRANCH   4  34
TORSDOF 8
ENDMDL
