MODEL 1
REMARK VINA RESULT:    -5.341      0.000      0.000
REMARK INTER + INTRA:          -3.956
REMARK INTER:                  -6.746
REMARK INTRA:                   2.790
REMARK UNBOUND:                 2.790
REMARK  Name = 
REMARK  8 active torsions:
REMARK  status: ('A' for Active; 'I' for Inactive)
REMARK    1  A    between atoms: N_1  and  C_8
REMARK    2  A    between atoms: C_2  and  N_7
REMARK    3  A    between atoms: C_4  and  C_6
REMARK    4  A    between atoms: C_8  and  C_9
REMARK    5  A    between atoms: C_14  and  C_15
REMARK    6  A    between atoms: C_15  and  C_16
REMARK    7  A    between atoms: N_18  and  C_19
REMARK    8  A    between atoms: N_23  and  C_25
REMARK                            x       y       z     vdW  Elec       q    Type
REMARK                         _______ _______ _______ _____ _____    ______ ____
ROOT
ATOM      1  C   UNL     1      53.048 154.913  25.544  0.00  0.00    +0.000 A 
ATOM      2  C   UNL     1      53.245 156.240  25.542  0.00  0.00    +0.000 A 
ATOM      3  N   UNL     1      54.215 156.826  24.843  0.00  0.00    +0.000 NA
ATOM      4  C   UNL     1      55.026 156.057  24.106  0.00  0.00    +0.000 A 
ATOM      5  C   UNL     1      54.853 154.689  24.079  0.00  0.00    +0.000 A 
ATOM      6  C   UNL     1      53.832 154.060  24.822  0.00  0.00    +0.000 A 
ENDROOT
BRANCH   6   7
ATOM      7  C   UNL     1      53.907 152.641  24.978  0.00  0.00    +0.000 C 
ATOM      8  N   UNL     1      54.420 151.733  24.069  0.00  0.00    +0.000 NA
ATOM      9  C   UNL     1      54.812 150.502  24.667  0.00  0.00    +0.000 C 
ATOM     10  C   UNL     1      53.601 149.891  25.301  0.00  0.00    +0.000 C 
ATOM     11  N   UNL     1      52.915 150.759  26.201  0.00  0.00    +0.000 NA
ATOM     12  C   UNL     1      52.706 152.094  25.692  0.00  0.00    +0.000 C 
ATOM     13  C   UNL     1      51.573 150.224  26.410  0.00  0.00    +0.000 C 
ATOM     14  H   UNL     1      53.621 151.421  23.391  0.00  0.00    +0.000 HD
BRANCH   7  15
ATOM     15  C   UNL     1      55.087 152.515  26.042  0.00  0.00    +0.000 C 
ATOM     16  O   UNL     1      54.873 152.525  27.203  0.00  0.00    +0.000 OA
ATOM     17  N   UNL     1      56.355 152.377  25.402  0.00  0.00    +0.000 N 
ATOM     18  C   UNL     1      57.597 152.214  26.166  0.00  0.00    +0.000 C 
ATOM     19  H   UNL     1      56.450 152.324  24.331  0.00  0.00    +0.000 HD
ENDBRANCH   7  15
ENDBRANCH   6   7
BRANCH   1  20
ATOM     20  C   UNL     1      51.890 154.293  26.244  0.00  0.00    +0.000 C 
BRANCH  20  21
ATOM     21  N   UNL     1      51.869 154.962  27.553  0.00  0.00    +0.000 N 
ATOM     22  C   UNL     1      51.949 154.245  28.683  0.00  0.00    +0.000 A 
ATOM     23  C   UNL     1      51.832 155.197  29.695  0.00  0.00    +0.000 A 
ATOM     24  C   UNL     1      51.676 156.444  29.123  0.00  0.00    +0.000 A 
ATOM     25  N   UNL     1      51.707 156.247  27.796  0.00  0.00    +0.000 NA
ATOM     26  C   UNL     1      51.417 157.694  29.871  0.00  0.00    +0.000 C 
BRANCH  22  27
ATOM     27  N   UNL     1      52.060 152.827  28.821  0.00  0.00    +0.000 N 
ATOM     28  H   UNL     1      51.397 152.306  29.386  0.00  0.00    +0.000 HD
ATOM     29  H   UNL     1      52.895 152.388  28.298  0.00  0.00    +0.000 HD
ENDBRANCH  22  27
ENDBRANCH  20  21
ENDBRANCH   1  20
TORSDOF 5
ENDMDL
