MODEL 1
REMARK VINA RESULT:    -2.413      0.000      0.000
REMARK INTER + INTRA:          -2.685
REMARK INTER:                  -2.977
REMARK INTRA:                   0.292
REMARK UNBOUND:                 0.292
REMARK  Name = 
REMARK  7 active torsions:
REMARK  status: ('A' for Active; 'I' for Inactive)
REMARK    1  A    between atoms: C_3  and  C_10
REMARK    2  A    between atoms: C_4  and  C_8
REMARK    3  A    between atoms: C_5  and  N_7
REMARK    4  A    between atoms: C_13  and  O_18
REMARK    5  A    between atoms: C_14  and  O_16
REMARK    6  A    between atoms: O_16  and  C_17
REMARK    7  A    between atoms: C_20  and  C_23
REMARK                            x       y       z     vdW  Elec       q    Type
REMARK                         _______ _______ _______ _____ _____    ______ ____
ROOT
ATOM      1  C   UNL     1      48.575 160.251  31.900  0.00  0.00    +0.000 A 
ATOM      2  C   UNL     1      48.938 159.769  30.663  0.00  0.00    +0.000 A 
ATOM      3  C   UNL     1      50.282 159.960  30.102  0.00  0.00    +0.000 C 
ATOM      4  C   UNL     1      51.198 160.734  31.012  0.00  0.00    +0.000 C 
ATOM      5  C   UNL     1      50.759 161.156  32.182  0.00  0.00    +0.000 C 
ATOM      6  O   UNL     1      49.492 160.956  32.678  0.00  0.00    +0.000 OA
ATOM      7  C   UNL     1      47.799 159.143  30.204  0.00  0.00    +0.000 A 
ATOM      8  N   UNL     1      46.831 159.267  31.146  0.00  0.00    +0.000 NA
ATOM      9  N   UNL     1      47.280 159.932  32.176  0.00  0.00    +0.000 N 
ATOM     10  C   UNL     1      47.652 158.455  28.911  0.00  0.00    +0.000 C 
ATOM     11  H   UNL     1      46.771 160.198  33.076  0.00  0.00    +0.000 HD
ENDROOT
BRANCH   3  12
ATOM     12  C   UNL     1      50.978 158.716  29.722  0.00  0.00    +0.000 A 
ATOM     13  C   UNL     1      50.623 157.539  30.362  0.00  0.00    +0.000 A 
ATOM     14  C   UNL     1      51.232 156.339  30.058  0.00  0.00    +0.000 A 
ATOM     15  C   UNL     1      52.212 156.323  29.096  0.00  0.00    +0.000 A 
ATOM     16  C   UNL     1      52.604 157.475  28.427  0.00  0.00    +0.000 A 
ATOM     17  C   UNL     1      51.960 158.643  28.773  0.00  0.00    +0.000 A 
ATOM     18 CL   UNL     1      50.783 154.835  30.870  0.00  0.00    +0.000 Cl
BRANCH  16  19
ATOM     19  O   UNL     1      53.596 157.416  27.465  0.00  0.00    +0.000 OA
ATOM     20  C   UNL     1      53.361 156.671  26.275  0.00  0.00    +0.000 C 
ENDBRANCH  16  19
BRANCH  15  21
ATOM     21  O   UNL     1      52.813 155.110  28.803  0.00  0.00    +0.000 OA
ATOM     22  H   UNL     1      53.150 154.501  29.532  0.00  0.00    +0.000 HD
ENDBRANCH  15  21
ENDBRANCH   3  12
BRANCH   5  23
ATOM     23  N   UNL     1      51.735 161.886  32.966  0.00  0.00    +0.000 N 
ATOM     24  H   UNL     1      51.721 162.907  32.907  0.00  0.00    +0.000 HD
ATOM     25  H   UNL     1      52.422 161.408  33.565  0.00  0.00    +0.000 HD
ENDBRANCH   5  23
BRANCH   4  26
ATOM     26  C   UNL     1      52.536 160.998  30.571  0.00  0.00    +0.000 C 
ATOM     27  N   UNL     1      53.646 161.229  30.223  0.00  0.00    +0.000 NA
ENDBRANCH   4  26
TORSDOF 5
ENDMDL
