MODEL 1
REMARK VINA RESULT:    -8.544      0.000      0.000
REMARK INTER + INTRA:          -9.871
REMARK INTER:                 -10.042
REMARK INTRA:                   0.171
REMARK UNBOUND:                 0.171
REMARK  Name = 
REMARK  3 active torsions:
REMARK  status: ('A' for Active; 'I' for Inactive)
REMARK    1  A    between atoms: C_3  and  C_12
REMARK    2  A    between atoms: N_5  and  C_6
REMARK    3  A    between atoms: C_19  and  C_23
REMARK                            x       y       z     vdW  Elec       q    Type
REMARK                         _______ _______ _______ _____ _____    ______ ____
ROOT
ATOM      1  C   UNL     1      53.649 153.590  25.475  0.00  0.00    +0.000 A 
ATOM      2  C   UNL     1      53.358 154.792  26.082  0.00  0.00    +0.000 A 
ATOM      3  C   UNL     1      52.541 154.470  27.154  0.00  0.00    +0.000 A 
ATOM      4  N   UNL     1      52.391 153.120  27.128  0.00  0.00    +0.000 NA
ATOM      5  N   UNL     1      53.039 152.570  26.140  0.00  0.00    +0.000 N 
ATOM      6  C   UNL     1      53.864 155.977  25.588  0.00  0.00    +0.000 A 
ATOM      7  C   UNL     1      54.664 155.915  24.475  0.00  0.00    +0.000 A 
ATOM      8  C   UNL     1      54.926 154.692  23.902  0.00  0.00    +0.000 A 
ATOM      9  O   UNL     1      55.673 154.682  22.870  0.00  0.00    +0.000 OA
ATOM     10  N   UNL     1      54.426 153.538  24.394  0.00  0.00    +0.000 N 
ATOM     11  H   UNL     1      54.652 152.620  23.922  0.00  0.00    +0.000 HD
ENDROOT
BRANCH   5  12
ATOM     12  C   UNL     1      53.123 151.198  25.788  0.00  0.00    +0.000 A 
ATOM     13  C   UNL     1      54.106 150.754  24.939  0.00  0.00    +0.000 A 
ATOM     14  C   UNL     1      54.198 149.411  24.587  0.00  0.00    +0.000 A 
ATOM     15  C   UNL     1      53.278 148.541  25.114  0.00  0.00    +0.000 A 
ATOM     16  C   UNL     1      52.298 148.975  25.957  0.00  0.00    +0.000 A 
ATOM     17  C   UNL     1      52.202 150.321  26.312  0.00  0.00    +0.000 A 
ENDBRANCH   5  12
BRANCH   3  18
ATOM     18  C   UNL     1      51.972 155.407  28.104  0.00  0.00    +0.000 A 
ATOM     19  C   UNL     1      50.835 155.130  28.819  0.00  0.00    +0.000 A 
ATOM     20  C   UNL     1      50.318 156.058  29.722  0.00  0.00    +0.000 A 
ATOM     21  C   UNL     1      50.954 157.270  29.900  0.00  0.00    +0.000 A 
ATOM     22  C   UNL     1      52.088 157.559  29.194  0.00  0.00    +0.000 A 
ATOM     23  C   UNL     1      52.597 156.617  28.291  0.00  0.00    +0.000 A 
ENDBRANCH   3  18
BRANCH   7  24
ATOM     24  C   UNL     1      55.219 157.142  23.921  0.00  0.00    +0.000 C 
ATOM     25  O   UNL     1      54.411 158.037  23.499  0.00  0.00    +0.000 OA
ENDBRANCH   7  24
TORSDOF 3
ENDMDL
