MODEL 1
REMARK VINA RESULT:     2.300      0.000      0.000
REMARK INTER + INTRA:          13.214
REMARK INTER:                   3.443
REMARK INTRA:                   9.771
REMARK UNBOUND:                 9.771
REMARK  Name = 
REMARK  11 active torsions:
REMARK  status: ('A' for Active; 'I' for Inactive)
REMARK    1  A    between atoms: C_1  and  C_15
REMARK    2  A    between atoms: C_2  and  C_8
REMARK    3  A    between atoms: C_19  and  C_20
REMARK    4  A    between atoms: C_20  and  C_21
REMARK    5  A    between atoms: N_23  and  C_24
REMARK    6  A    between atoms: C_26  and  O_32
REMARK    7  A    between atoms: C_29  and  O_30
REMARK    8  A    between atoms: O_30  and  C_31
REMARK    9  A    between atoms: O_32  and  C_33
REMARK   10  A    between atoms: C_34  and  C_40
REMARK   11  A    between atoms: C_40  and  O_42
REMARK                            x       y       z     vdW  Elec       q    Type
REMARK                         _______ _______ _______ _____ _____    ______ ____
ROOT
ATOM      1  C   UNL     1      51.784 155.918  28.613  0.00  0.00    +0.000 C 
ATOM      2  C   UNL     1      52.254 154.876  29.636  0.00  0.00    +0.000 C 
ATOM      3  C   UNL     1      50.899 154.322  30.104  0.00  0.00    +0.000 C 
ATOM      4  O   UNL     1      50.174 154.431  28.917  0.00  0.00    +0.000 OA
ATOM      5  C   UNL     1      50.316 155.857  28.779  0.00  0.00    +0.000 C 
ATOM      6  C   UNL     1      49.757 156.228  30.085  0.00  0.00    +0.000 C 
ATOM      7  C   UNL     1      50.213 155.316  30.965  0.00  0.00    +0.000 C 
ENDROOT
BRANCH   1  12
ATOM      8  C   UNL     1      52.336 158.100  29.843  0.00  0.00    +0.000 C 
ATOM      9  N   UNL     1      53.330 159.140  29.383  0.00  0.00    +0.000 NA
ATOM     10  C   UNL     1      54.444 158.401  28.846  0.00  0.00    +0.000 C 
ATOM     11  C   UNL     1      54.030 156.932  28.964  0.00  0.00    +0.000 C 
ATOM     12  C   UNL     1      52.499 157.172  28.655  0.00  0.00    +0.000 C 
ATOM     13  H   UNL     1      52.783 159.634  28.613  0.00  0.00    +0.000 HD
BRANCH   8  14
ATOM     14  C   UNL     1      51.036 158.773  29.913  0.00  0.00    +0.000 A 
ATOM     15  C   UNL     1      50.946 160.073  30.305  0.00  0.00    +0.000 A 
ATOM     16  C   UNL     1      49.683 160.694  30.324  0.00  0.00    +0.000 A 
ATOM     17  N   UNL     1      48.635 159.969  29.955  0.00  0.00    +0.000 NA
ATOM     18  C   UNL     1      48.711 158.666  29.560  0.00  0.00    +0.000 A 
ATOM     19  N   UNL     1      49.934 158.114  29.557  0.00  0.00    +0.000 NA
ATOM     20  N   UNL     1      47.546 157.948  29.175  0.00  0.00    +0.000 N 
ATOM     21  H   UNL     1      46.608 158.330  29.401  0.00  0.00    +0.000 HD
ATOM     22  H   UNL     1      47.659 157.051  28.672  0.00  0.00    +0.000 HD
BRANCH  15  23
ATOM     23  C   UNL     1      52.047 160.919  30.739  0.00  0.00    +0.000 A 
ATOM     24  C   UNL     1      52.599 161.905  29.964  0.00  0.00    +0.000 A 
ATOM     25  C   UNL     1      53.672 162.648  30.459  0.00  0.00    +0.000 A 
ATOM     26  C   UNL     1      54.202 162.424  31.711  0.00  0.00    +0.000 A 
ATOM     27  C   UNL     1      53.654 161.438  32.497  0.00  0.00    +0.000 A 
ATOM     28  C   UNL     1      52.613 160.718  32.012  0.00  0.00    +0.000 A 
ATOM     29 CL   UNL     1      55.549 163.348  32.345  0.00  0.00    +0.000 Cl
ENDBRANCH  15  23
ENDBRANCH   8  14
ENDBRANCH   1  12
BRANCH   1  30
ATOM     30  C   UNL     1      52.062 155.223  27.287  0.00  0.00    +0.000 C 
ATOM     31  O   UNL     1      51.085 154.856  26.581  0.00  0.00    +0.000 OA
ATOM     32  N   UNL     1      53.365 154.982  26.836  0.00  0.00    +0.000 N 
ATOM     33  H   UNL     1      54.211 155.306  27.409  0.00  0.00    +0.000 HD
BRANCH  32  34
ATOM     34  C   UNL     1      53.740 154.335  25.624  0.00  0.00    +0.000 A 
ATOM     35  C   UNL     1      53.558 153.005  25.381  0.00  0.00    +0.000 A 
ATOM     36  C   UNL     1      53.954 152.419  24.163  0.00  0.00    +0.000 A 
ATOM     37  C   UNL     1      54.534 153.156  23.170  0.00  0.00    +0.000 A 
ATOM     38  C   UNL     1      54.726 154.499  23.397  0.00  0.00    +0.000 A 
ATOM     39  C   UNL     1      54.340 155.071  24.590  0.00  0.00    +0.000 A 
BRANCH  39  40
ATOM     40  O   UNL     1      54.534 156.426  24.816  0.00  0.00    +0.000 OA
ATOM     41  C   UNL     1      55.048 157.349  23.910  0.00  0.00    +0.000 C 
ENDBRANCH  39  40
BRANCH  36  42
ATOM     42  O   UNL     1      53.745 151.065  23.972  0.00  0.00    +0.000 OA
ATOM     43  C   UNL     1      54.338 150.079  24.772  0.00  0.00    +0.000 C 
ENDBRANCH  36  42
ENDBRANCH  32  34
ENDBRANCH   1  30
BRANCH   2  44
ATOM     44  C   UNL     1      52.951 153.727  29.029  0.00  0.00    +0.000 C 
ATOM     45  O   UNL     1      52.318 152.786  28.438  0.00  0.00    +0.000 OA
BRANCH  44  46
ATOM     46  O   UNL     1      54.337 153.554  29.037  0.00  0.00    +0.000 OA
ATOM     47  H   UNL     1      55.004 154.319  29.090  0.00  0.00    +0.000 HD
ENDBRANCH  44  46
ENDBRANCH   2  44
TORSDOF 9
ENDMDL
