REMARK  Name = =
REMARK  2 active torsions:
REMARK  status: ('A' for Active; 'I' for Inactive)
REMARK    1  A    between atoms: C_1  and  N_13
REMARK    2  A    between atoms: N_13  and  N_16
REMARK                            x       y       z     vdW  Elec       q    Type
REMARK                         _______ _______ _______ _____ _____    ______ ____
ROOT
ATOM      1  C   UNL     1     -11.483 -43.410  28.631  0.00  0.00    +0.138 C 
ATOM      2  C   UNL     1     -11.406 -41.977  28.129  0.00  0.00    +0.114 C 
ATOM      3  N   UNL     1     -10.112 -41.447  28.564  0.00  0.00    -0.331 N 
ATOM      4  C   UNL     1      -9.313 -42.564  28.846  0.00  0.00    +0.042 C 
ATOM      5  C   UNL     1     -10.173 -43.651  29.316  0.00  0.00    +0.010 C 
ATOM      6  C   UNL     1      -9.774 -44.592  30.140  0.00  0.00    +0.000 C 
ATOM      7  C   UNL     1      -8.401 -44.498  30.620  0.00  0.00    +0.077 C 
ATOM      8  N   UNL     1      -8.208 -45.510  31.410  0.00  0.00    -0.248 NA
ATOM      9  C   UNL     1      -9.383 -46.307  31.505  0.00  0.00    +0.077 C 
ATOM     10  C   UNL     1     -10.353 -45.779  30.749  0.00  0.00    +0.075 C 
ATOM     11  C   UNL     1      -7.500 -43.412  30.199  0.00  0.00    +0.020 C 
ATOM     12  C   UNL     1      -7.981 -42.488  29.337  0.00  0.00    +0.016 C 
ATOM     13  H   UNL     1      -9.856 -40.500  28.642  0.00  0.00    +0.147 HD
ENDROOT
BRANCH   1  14
ATOM     14  N   UNL     1     -12.558 -43.524  29.596  0.00  0.00    -0.196 N 
ATOM     15  C   UNL     1     -13.542 -44.528  29.404  0.00  0.00    +0.320 C 
ATOM     16  O   UNL     1     -13.442 -45.280  28.406  0.00  0.00    -0.263 OA
BRANCH  14  17
ATOM     17  N   UNL     1     -12.627 -42.650  30.698  0.00  0.00    -0.214 N 
ATOM     18  C   UNL     1     -12.729 -43.142  32.021  0.00  0.00    +0.314 C 
ATOM     19  O   UNL     1     -12.749 -44.404  32.150  0.00  0.00    -0.252 OA
ATOM     20  N   UNL     1     -12.807 -42.269  33.149  0.00  0.00    -0.312 N 
ATOM     21  H   UNL     1     -12.604 -41.678  30.545  0.00  0.00    +0.175 HD
ATOM     22  H   UNL     1     -12.789 -41.293  33.019  0.00  0.00    +0.147 HD
ATOM     23  H   UNL     1     -12.879 -42.643  34.057  0.00  0.00    +0.147 HD
ENDBRANCH  14  17
ENDBRANCH   1  14
TORSDOF 2
