REMARK  Name = =
REMARK  1 active torsions:
REMARK  status: ('A' for Active; 'I' for Inactive)
REMARK    1  A    between atoms: C_1  and  O_3
REMARK                            x       y       z     vdW  Elec       q    Type
REMARK                         _______ _______ _______ _____ _____    ______ ____
ROOT
ATOM      1  C   UNL     1      -4.005  -3.536  31.202  0.00  0.00    +0.415 C 
ATOM      2  O   UNL     1      -5.049  -3.009  30.735  0.00  0.00    -0.238 OA
ENDROOT
BRANCH   1   3
ATOM      3  O   UNL     1      -3.327  -2.832  32.204  0.00  0.00    -0.473 OA
ATOM      4  H   UNL     1      -2.546  -3.188  32.580  0.00  0.00    +0.296 HD
ENDBRANCH   1   3
TORSDOF 1
