REMARK  Name = =
REMARK  3 active torsions:
REMARK  status: ('A' for Active; 'I' for Inactive)
REMARK    1  A    between atoms: C_1  and  C_3
REMARK    2  A    between atoms: C_1  and  O_6
REMARK    3  A    between atoms: C_3  and  O_5
REMARK                            x       y       z     vdW  Elec       q    Type
REMARK                         _______ _______ _______ _____ _____    ______ ____
ROOT
ATOM      1  C   UNL     1      -4.012  -3.570  31.420  0.00  0.00    +0.341 C 
ATOM      2  O   UNL     1      -5.135  -3.214  30.998  0.00  0.00    -0.248 OA
ENDROOT
BRANCH   1   3
ATOM      3  C   UNL     1      -3.506  -4.914  31.078  0.00  0.00    +0.209 C 
ATOM      4  C   UNL     1      -4.042  -5.979  32.008  0.00  0.00    +0.044 C 
BRANCH   3   5
ATOM      5  O   UNL     1      -2.117  -4.960  31.033  0.00  0.00    -0.374 OA
ATOM      6  H   UNL     1      -1.790  -4.272  30.433  0.00  0.00    +0.211 HD
ENDBRANCH   3   5
ENDBRANCH   1   3
BRANCH   1   7
ATOM      7  O   UNL     1      -3.294  -2.675  32.194  0.00  0.00    -0.479 OA
ATOM      8  H   UNL     1      -2.450  -2.913  32.524  0.00  0.00    +0.295 HD
ENDBRANCH   1   7
TORSDOF 3
