REMARK  Name = =
REMARK  5 active torsions:
REMARK  status: ('A' for Active; 'I' for Inactive)
REMARK    1  A    between atoms: C_1  and  C_2
REMARK    2  A    between atoms: C_1  and  C_7
REMARK    3  A    between atoms: C_7  and  C_8
REMARK    4  A    between atoms: C_7  and  O_11
REMARK    5  A    between atoms: C_8  and  O_10
REMARK                            x       y       z     vdW  Elec       q    Type
REMARK                         _______ _______ _______ _____ _____    ______ ____
ROOT
ATOM      1  C   UNL     1       6.241  -9.583  27.791  0.00  0.00    +0.058 C 
ENDROOT
BRANCH   1   2
ATOM      2  C   UNL     1       6.160 -10.984  27.275  0.00  0.00    +0.074 C 
ATOM      3  C   UNL     1       5.366 -11.387  26.299  0.00  0.00    +0.086 C 
ATOM      4  N   UNL     1       5.557 -12.777  26.078  0.00  0.00    -0.283 NA
ATOM      5  C   UNL     1       6.805 -13.120  26.732  0.00  0.00    +0.142 C 
ATOM      6  N   UNL     1       6.914 -12.111  27.739  0.00  0.00    -0.284 NA
ATOM      7  H   UNL     1       5.616 -12.972  25.079  0.00  0.00    +0.125 HD
ATOM      8  H   UNL     1       6.531 -12.451  28.621  0.00  0.00    +0.125 HD
ENDBRANCH   1   2
BRANCH   1   9
ATOM      9  C   UNL     1       5.036  -8.840  27.341  0.00  0.00    +0.211 C 
BRANCH   9  10
ATOM     10  C   UNL     1       5.287  -7.401  27.099  0.00  0.00    +0.341 C 
ATOM     11  O   UNL     1       6.089  -7.081  26.190  0.00  0.00    -0.248 OA
BRANCH  10  12
ATOM     12  O   UNL     1       4.664  -6.423  27.843  0.00  0.00    -0.479 OA
ATOM     13  H   UNL     1       4.065  -6.662  28.522  0.00  0.00    +0.295 HD
ENDBRANCH  10  12
ENDBRANCH   9  10
BRANCH   9  14
ATOM     14  O   UNL     1       4.090  -8.940  28.393  0.00  0.00    -0.374 OA
ATOM     15  H   UNL     1       3.905  -9.875  28.574  0.00  0.00    +0.211 HD
ENDBRANCH   9  14
ENDBRANCH   1   9
TORSDOF 5
