REMARK  Name = =
REMARK  6 active torsions:
REMARK  status: ('A' for Active; 'I' for Inactive)
REMARK    1  A    between atoms: C_1  and  C_2
REMARK    2  A    between atoms: C_1  and  C_8
REMARK    3  A    between atoms: C_1  and  O_11
REMARK    4  A    between atoms: C_1  and  C_12
REMARK    5  A    between atoms: C_8  and  O_10
REMARK    6  A    between atoms: C_12  and  C_13
REMARK                            x       y       z     vdW  Elec       q    Type
REMARK                         _______ _______ _______ _____ _____    ______ ____
ROOT
ATOM      1  C   UNL     1       5.866 -10.571  26.307  0.00  0.00    +0.247 C 
ENDROOT
BRANCH   1   2
ATOM      2  C   UNL     1       6.409  -9.346  25.694  0.00  0.00    +0.260 C 
ATOM      3  O   UNL     1       7.180  -8.609  26.350  0.00  0.00    -0.272 OA
ATOM      4  N   UNL     1       6.066  -8.991  24.365  0.00  0.00    -0.277 N 
ATOM      5  C   UNL     1       5.273  -9.437  23.243  0.00  0.00    +0.095 C 
ATOM      6  C   UNL     1       5.094  -7.954  22.885  0.00  0.00    +0.043 C 
ATOM      7  C   UNL     1       6.467  -7.858  23.509  0.00  0.00    +0.095 C 
ENDBRANCH   1   2
BRANCH   1   8
ATOM      8  C   UNL     1       6.496 -10.954  27.573  0.00  0.00    +0.347 C 
ATOM      9  O   UNL     1       6.566 -10.213  28.569  0.00  0.00    -0.247 OA
BRANCH   8  10
ATOM     10  O   UNL     1       7.054 -12.257  27.649  0.00  0.00    -0.478 OA
ATOM     11  H   UNL     1       7.011 -12.829  26.908  0.00  0.00    +0.295 HD
ENDBRANCH   8  10
ENDBRANCH   1   8
BRANCH   1  12
ATOM     12  O   UNL     1       6.199 -11.610  25.324  0.00  0.00    -0.370 OA
ATOM     13  H   UNL     1       5.878 -12.469  25.640  0.00  0.00    +0.211 HD
ENDBRANCH   1  12
BRANCH   1  14
ATOM     14  C   UNL     1       4.398 -10.579  26.260  0.00  0.00    +0.064 C 
BRANCH  14  15
ATOM     15  C   UNL     1       3.580  -9.615  26.972  0.00  0.00    +0.074 C 
ATOM     16  C   UNL     1       3.766  -8.411  27.460  0.00  0.00    +0.086 C 
ATOM     17  N   UNL     1       2.550  -7.930  28.085  0.00  0.00    -0.283 NA
ATOM     18  C   UNL     1       1.497  -8.757  27.554  0.00  0.00    +0.142 C 
ATOM     19  N   UNL     1       2.194  -9.981  27.274  0.00  0.00    -0.284 NA
ATOM     20  H   UNL     1       2.389  -6.951  27.848  0.00  0.00    +0.125 HD
ATOM     21  H   UNL     1       2.162 -10.598  28.086  0.00  0.00    +0.125 HD
ENDBRANCH  14  15
ENDBRANCH   1  14
TORSDOF 6
