REMARK  Name = =
REMARK  6 active torsions:
REMARK  status: ('A' for Active; 'I' for Inactive)
REMARK    1  A    between atoms: C_1  and  C_2
REMARK    2  A    between atoms: C_1  and  C_8
REMARK    3  A    between atoms: C_1  and  O_11
REMARK    4  A    between atoms: C_1  and  C_12
REMARK    5  A    between atoms: C_8  and  O_10
REMARK    6  A    between atoms: C_12  and  C_13
REMARK                            x       y       z     vdW  Elec       q    Type
REMARK                         _______ _______ _______ _____ _____    ______ ____
ROOT
ATOM      1  C   UNL     1       5.922 -10.393  26.420  0.00  0.00    +0.247 C 
ENDROOT
BRANCH   1   2
ATOM      2  C   UNL     1       6.080  -9.308  25.422  0.00  0.00    +0.260 C 
ATOM      3  O   UNL     1       5.189  -9.063  24.559  0.00  0.00    -0.272 OA
ATOM      4  N   UNL     1       7.269  -8.535  25.457  0.00  0.00    -0.277 N 
ATOM      5  C   UNL     1       7.744  -7.428  24.655  0.00  0.00    +0.095 C 
ATOM      6  C   UNL     1       8.807  -7.131  25.656  0.00  0.00    +0.043 C 
ATOM      7  C   UNL     1       8.482  -8.478  26.237  0.00  0.00    +0.095 C 
ENDBRANCH   1   2
BRANCH   1   8
ATOM      8  C   UNL     1       5.501  -9.712  27.697  0.00  0.00    +0.347 C 
ATOM      9  O   UNL     1       4.318  -9.326  27.818  0.00  0.00    -0.247 OA
BRANCH   8  10
ATOM     10  O   UNL     1       6.375  -9.500  28.736  0.00  0.00    -0.478 OA
ATOM     11  H   UNL     1       7.266  -9.782  28.664  0.00  0.00    +0.295 HD
ENDBRANCH   8  10
ENDBRANCH   1   8
BRANCH   1  12
ATOM     12  O   UNL     1       7.125 -11.002  26.629  0.00  0.00    -0.370 OA
ATOM     13  H   UNL     1       7.019 -11.711  27.282  0.00  0.00    +0.211 HD
ENDBRANCH   1  12
BRANCH   1  14
ATOM     14  C   UNL     1       4.806 -11.335  26.068  0.00  0.00    +0.064 C 
BRANCH  14  15
ATOM     15  C   UNL     1       5.137 -12.361  25.081  0.00  0.00    +0.079 C 
ATOM     16  C   UNL     1       5.360 -13.667  25.294  0.00  0.00    +0.111 C 
ATOM     17  N   UNL     1       5.650 -14.298  24.057  0.00  0.00    -0.263 N 
ATOM     18  C   UNL     1       5.720 -15.709  23.770  0.00  0.00    +0.217 C 
ATOM     19  N   UNL     1       5.867 -16.589  24.684  0.00  0.00    -0.233 NA
ATOM     20  C   UNL     1       5.898 -17.884  24.064  0.00  0.00    +0.175 C 
ATOM     21  C   UNL     1       5.744 -17.612  22.619  0.00  0.00    +0.102 C 
ATOM     22  N   UNL     1       5.646 -16.334  22.515  0.00  0.00    -0.215 NA
ATOM     23  C   UNL     1       5.876 -13.281  23.077  0.00  0.00    +0.168 C 
ATOM     24  N   UNL     1       5.274 -12.110  23.692  0.00  0.00    -0.280 NA
ATOM     25  H   UNL     1       4.357 -11.936  23.280  0.00  0.00    +0.125 HD
ENDBRANCH  14  15
ENDBRANCH   1  14
TORSDOF 6
