REMARK  Name = =
REMARK  9 active torsions:
REMARK  status: ('A' for Active; 'I' for Inactive)
REMARK    1  A    between atoms: C_1  and  C_11
REMARK    2  A    between atoms: N_10  and  S_23
REMARK    3  A    between atoms: C_11  and  C_12
REMARK    4  A    between atoms: C_12  and  C_13
REMARK    5  A    between atoms: C_12  and  C_19
REMARK    6  A    between atoms: C_12  and  O_22
REMARK    7  A    between atoms: C_19  and  O_21
REMARK    8  A    between atoms: S_23  and  C_24
REMARK    9  A    between atoms: C_24  and  N_26
REMARK                            x       y       z     vdW  Elec       q    Type
REMARK                         _______ _______ _______ _____ _____    ______ ____
ROOT
ATOM      1  C   UNL     1       5.833 -12.170  25.960  0.00  0.00    +0.093 C 
ATOM      2  C   UNL     1       5.013 -12.891  25.168  0.00  0.00    +0.112 C 
ATOM      3  N   UNL     1       5.732 -13.816  24.373  0.00  0.00    -0.262 N 
ATOM      4  C   UNL     1       5.311 -14.995  23.715  0.00  0.00    +0.217 C 
ATOM      5  N   UNL     1       4.834 -16.062  24.252  0.00  0.00    -0.233 NA
ATOM      6  C   UNL     1       4.522 -17.047  23.238  0.00  0.00    +0.175 C 
ATOM      7  C   UNL     1       4.910 -16.346  21.993  0.00  0.00    +0.102 C 
ATOM      8  N   UNL     1       5.346 -15.199  22.317  0.00  0.00    -0.215 NA
ATOM      9  C   UNL     1       7.091 -13.288  24.356  0.00  0.00    +0.181 C 
ATOM     10  N   UNL     1       7.133 -12.658  25.700  0.00  0.00    -0.204 NA
ENDROOT
BRANCH   1  11
ATOM     11  C   UNL     1       5.387 -11.116  26.908  0.00  0.00    +0.066 C 
BRANCH  11  12
ATOM     12  C   UNL     1       5.686  -9.715  26.495  0.00  0.00    +0.247 C 
BRANCH  12  13
ATOM     13  C   UNL     1       6.977  -9.243  27.122  0.00  0.00    +0.260 C 
ATOM     14  O   UNL     1       6.904  -9.037  28.361  0.00  0.00    -0.272 OA
ATOM     15  N   UNL     1       8.149  -9.059  26.349  0.00  0.00    -0.277 N 
ATOM     16  C   UNL     1       9.507  -8.635  26.616  0.00  0.00    +0.095 C 
ATOM     17  C   UNL     1       9.550  -8.093  25.193  0.00  0.00    +0.043 C 
ATOM     18  C   UNL     1       8.522  -9.210  24.959  0.00  0.00    +0.095 C 
ENDBRANCH  12  13
BRANCH  12  19
ATOM     19  C   UNL     1       4.651  -8.856  27.175  0.00  0.00    +0.347 C 
ATOM     20  O   UNL     1       4.226  -7.780  26.705  0.00  0.00    -0.247 OA
BRANCH  19  21
ATOM     21  O   UNL     1       4.142  -9.281  28.391  0.00  0.00    -0.478 OA
ATOM     22  H   UNL     1       4.441 -10.084  28.769  0.00  0.00    +0.295 HD
ENDBRANCH  19  21
ENDBRANCH  12  19
BRANCH  12  23
ATOM     23  O   UNL     1       5.673  -9.541  25.136  0.00  0.00    -0.370 OA
ATOM     24  H   UNL     1       6.349 -10.107  24.731  0.00  0.00    +0.211 HD
ENDBRANCH  12  23
ENDBRANCH  11  12
ENDBRANCH   1  11
BRANCH  10  25
ATOM     25  S   UNL     1       8.547 -12.582  26.744  0.00  0.00    -0.015 S 
BRANCH  25  26
ATOM     26  C   UNL     1       8.873 -14.154  27.512  0.00  0.00    +0.119 C 
ATOM     27  S   UNL     1      10.195 -14.422  28.412  0.00  0.00    -0.027 S 
BRANCH  26  28
ATOM     28  N   UNL     1       7.941 -15.205  27.327  0.00  0.00    -0.346 N 
ATOM     29  H   UNL     1       7.134 -15.057  26.783  0.00  0.00    +0.143 HD
ATOM     30  H   UNL     1       8.101 -16.083  27.742  0.00  0.00    +0.143 HD
ENDBRANCH  26  28
ENDBRANCH  25  26
ENDBRANCH  10  25
TORSDOF 9
