REMARK  Name = =
REMARK  15 active torsions:
REMARK  status: ('A' for Active; 'I' for Inactive)
REMARK    1  A    between atoms: C_1  and  C_11
REMARK    2  A    between atoms: C_6  and  O_23
REMARK    3  A    between atoms: N_10  and  S_35
REMARK    4  A    between atoms: C_11  and  C_12
REMARK    5  A    between atoms: C_12  and  C_13
REMARK    6  A    between atoms: C_12  and  C_19
REMARK    7  A    between atoms: C_12  and  O_22
REMARK    8  A    between atoms: C_19  and  O_21
REMARK    9  A    between atoms: O_23  and  C_24
REMARK   10  A    between atoms: C_24  and  C_26
REMARK   11  A    between atoms: C_28  and  O_34
REMARK   12  A    between atoms: C_29  and  O_33
REMARK   13  A    between atoms: C_30  and  O_32
REMARK   14  A    between atoms: S_35  and  C_36
REMARK   15  A    between atoms: C_36  and  N_38
REMARK                            x       y       z     vdW  Elec       q    Type
REMARK                         _______ _______ _______ _____ _____    ______ ____
ROOT
ATOM      1  C   UNL     1       6.165 -11.752  24.819  0.00  0.00    +0.093 C 
ATOM      2  C   UNL     1       6.146 -10.402  24.705  0.00  0.00    +0.112 C 
ATOM      3  N   UNL     1       6.979  -9.870  25.749  0.00  0.00    -0.262 N 
ATOM      4  C   UNL     1       6.929  -8.592  26.357  0.00  0.00    +0.220 C 
ATOM      5  N   UNL     1       5.906  -7.995  26.846  0.00  0.00    -0.194 NA
ATOM      6  C   UNL     1       6.270  -6.695  27.379  0.00  0.00    +0.319 C 
ATOM      7  C   UNL     1       7.721  -6.653  27.100  0.00  0.00    +0.145 C 
ATOM      8  N   UNL     1       8.035  -7.736  26.528  0.00  0.00    -0.211 NA
ATOM      9  C   UNL     1       7.910 -10.982  26.041  0.00  0.00    +0.181 C 
ATOM     10  N   UNL     1       6.958 -12.092  25.936  0.00  0.00    -0.204 NA
ENDROOT
BRANCH   1  11
ATOM     11  C   UNL     1       5.426 -12.658  23.920  0.00  0.00    +0.066 C 
BRANCH  11  12
ATOM     12  C   UNL     1       6.231 -13.062  22.702  0.00  0.00    +0.247 C 
BRANCH  12  13
ATOM     13  C   UNL     1       5.375 -13.550  21.612  0.00  0.00    +0.260 C 
ATOM     14  O   UNL     1       5.657 -13.146  20.428  0.00  0.00    -0.272 OA
ATOM     15  N   UNL     1       4.290 -14.414  21.773  0.00  0.00    -0.277 N 
ATOM     16  C   UNL     1       3.338 -14.988  20.796  0.00  0.00    +0.095 C 
ATOM     17  C   UNL     1       2.353 -15.242  21.908  0.00  0.00    +0.043 C 
ATOM     18  C   UNL     1       3.573 -15.139  22.805  0.00  0.00    +0.095 C 
ENDBRANCH  12  13
BRANCH  12  19
ATOM     19  C   UNL     1       7.322 -13.954  23.096  0.00  0.00    +0.347 C 
ATOM     20  O   UNL     1       8.503 -13.706  22.789  0.00  0.00    -0.247 OA
BRANCH  19  21
ATOM     21  O   UNL     1       7.067 -15.107  23.823  0.00  0.00    -0.478 OA
ATOM     22  H   UNL     1       6.189 -15.321  24.069  0.00  0.00    +0.295 HD
ENDBRANCH  19  21
ENDBRANCH  12  19
BRANCH  12  23
ATOM     23  O   UNL     1       6.874 -11.853  22.278  0.00  0.00    -0.370 OA
ATOM     24  H   UNL     1       7.442 -11.522  22.991  0.00  0.00    +0.211 HD
ENDBRANCH  12  23
ENDBRANCH  11  12
ENDBRANCH   1  11
BRANCH   6  25
ATOM     25  O   UNL     1       5.552  -5.733  26.631  0.00  0.00    -0.420 OA
BRANCH  25  26
ATOM     26  C   UNL     1       4.686  -4.828  27.169  0.00  0.00    +0.343 C 
ATOM     27  O   UNL     1       4.228  -4.998  28.322  0.00  0.00    -0.245 OA
BRANCH  26  28
ATOM     28  C   UNL     1       4.294  -3.662  26.399  0.00  0.00    +0.082 C 
ATOM     29  C   UNL     1       3.483  -2.663  26.917  0.00  0.00    +0.046 C 
ATOM     30  C   UNL     1       3.110  -1.553  26.183  0.00  0.00    +0.171 C 
ATOM     31  C   UNL     1       3.550  -1.410  24.885  0.00  0.00    +0.202 C 
ATOM     32  C   UNL     1       4.357  -2.389  24.351  0.00  0.00    +0.171 C 
ATOM     33  C   UNL     1       4.724  -3.502  25.099  0.00  0.00    +0.046 C 
BRANCH  32  34
ATOM     34  O   UNL     1       4.788  -2.222  23.037  0.00  0.00    -0.503 OA
ATOM     35  H   UNL     1       4.528  -1.464  22.552  0.00  0.00    +0.292 HD
ENDBRANCH  32  34
BRANCH  31  36
ATOM     36  O   UNL     1       3.166  -0.280  24.152  0.00  0.00    -0.501 OA
ATOM     37  H   UNL     1       2.616   0.369  24.545  0.00  0.00    +0.292 HD
ENDBRANCH  31  36
BRANCH  30  38
ATOM     38  O   UNL     1       2.297  -0.553  26.702  0.00  0.00    -0.503 OA
ATOM     39  H   UNL     1       1.979  -0.617  27.581  0.00  0.00    +0.292 HD
ENDBRANCH  30  38
ENDBRANCH  26  28
ENDBRANCH  25  26
ENDBRANCH   6  25
BRANCH  10  40
ATOM     40  S   UNL     1       6.883 -13.464  27.017  0.00  0.00    -0.015 S 
BRANCH  40  41
ATOM     41  C   UNL     1       8.389 -14.398  27.048  0.00  0.00    +0.119 C 
ATOM     42  S   UNL     1       9.730 -13.758  26.387  0.00  0.00    -0.027 S 
BRANCH  41  43
ATOM     43  N   UNL     1       8.363 -15.684  27.655  0.00  0.00    -0.346 N 
ATOM     44  H   UNL     1       7.526 -16.029  28.042  0.00  0.00    +0.143 HD
ATOM     45  H   UNL     1       9.182 -16.229  27.688  0.00  0.00    +0.143 HD
ENDBRANCH  41  43
ENDBRANCH  40  41
ENDBRANCH  10  40
TORSDOF 15
