REMARK  Name = =
REMARK  0 active torsions:
REMARK  status: ('A' for Active; 'I' for Inactive)
REMARK                            x       y       z     vdW  Elec       q    Type
REMARK                         _______ _______ _______ _____ _____    ______ ____
ROOT
ATOM      1  C   UNL     1     -12.778 -42.756  27.403  0.00  0.00    +0.135 C 
ATOM      2  C   UNL     1     -13.800 -43.483  27.976  0.00  0.00    +0.012 C 
ATOM      3  C   UNL     1     -15.235 -43.328  27.623  0.00  0.00    +0.033 C 
ATOM      4  C   UNL     1     -15.438 -42.065  26.817  0.00  0.00    +0.052 C 
ATOM      5  C   UNL     1     -14.354 -42.044  25.759  0.00  0.00    +0.206 C 
ATOM      6  O   UNL     1     -13.129 -41.820  26.434  0.00  0.00    -0.476 OA
ATOM      7  C   UNL     1     -13.467 -44.425  28.948  0.00  0.00    -0.001 C 
ATOM      8  C   UNL     1     -12.140 -44.606  29.310  0.00  0.00    -0.000 C 
ATOM      9  C   UNL     1     -11.126 -43.872  28.730  0.00  0.00    +0.003 C 
ATOM     10  C   UNL     1     -11.450 -42.941  27.768  0.00  0.00    +0.037 C 
ENDROOT
TORSDOF 0
