REMARK  Name = =
REMARK  7 active torsions:
REMARK  status: ('A' for Active; 'I' for Inactive)
REMARK    1  A    between atoms: C_1  and  C_9
REMARK    2  A    between atoms: C_1  and  C_14
REMARK    3  A    between atoms: N_2  and  N_13
REMARK    4  A    between atoms: C_14  and  C_15
REMARK    5  A    between atoms: C_14  and  C_18
REMARK    6  A    between atoms: C_18  and  C_20
REMARK    7  A    between atoms: C_20  and  O_22
REMARK                            x       y       z     vdW  Elec       q    Type
REMARK                         _______ _______ _______ _____ _____    ______ ____
ROOT
ATOM      1  C   UNL     1     -13.242 -43.373  30.159  0.00  0.00    +0.090 C 
ATOM      2  N   UNL     1     -14.391 -43.820  30.061  0.00  0.00    -0.192 NA
ENDROOT
BRANCH   1   9
ATOM      3  C   UNL     1     -12.523 -42.522  26.572  0.00  0.00    +0.135 C 
ATOM      4  C   UNL     1     -13.224 -42.918  27.714  0.00  0.00    +0.013 C 
ATOM      5  C   UNL     1     -14.663 -43.255  27.600  0.00  0.00    +0.033 C 
ATOM      6  C   UNL     1     -15.249 -42.921  26.258  0.00  0.00    +0.052 C 
ATOM      7  C   UNL     1     -14.311 -43.333  25.162  0.00  0.00    +0.206 C 
ATOM      8  O   UNL     1     -13.163 -42.483  25.326  0.00  0.00    -0.476 OA
ATOM      9  C   UNL     1     -12.567 -42.955  28.928  0.00  0.00    +0.015 C 
ATOM     10  C   UNL     1     -11.249 -42.597  28.971  0.00  0.00    +0.001 C 
ATOM     11  C   UNL     1     -10.555 -42.202  27.836  0.00  0.00    +0.003 C 
ATOM     12  C   UNL     1     -11.211 -42.168  26.626  0.00  0.00    +0.037 C 
ENDBRANCH   1   9
BRANCH   2  13
ATOM     13  N   UNL     1     -15.247 -44.272  31.000  0.00  0.00    -0.282 N 
ATOM     14  H   UNL     1     -16.139 -44.597  30.738  0.00  0.00    +0.164 HD
ATOM     15  H   UNL     1     -14.980 -44.277  31.948  0.00  0.00    +0.164 HD
ENDBRANCH   2  13
BRANCH   1  16
ATOM     16  C   UNL     1     -12.526 -43.267  31.443  0.00  0.00    +0.167 C 
BRANCH  16  17
ATOM     17  C   UNL     1     -11.631 -44.483  31.622  0.00  0.00    +0.164 C 
ATOM     18  O   UNL     1     -12.018 -45.577  31.327  0.00  0.00    -0.295 OA
ATOM     19  C   UNL     1     -10.287 -44.268  32.170  0.00  0.00    +0.073 C 
ENDBRANCH  16  17
BRANCH  16  20
ATOM     20  C   UNL     1     -13.353 -43.237  32.655  0.00  0.00    +0.260 C 
ATOM     21  O   UNL     1     -13.541 -42.095  33.202  0.00  0.00    -0.284 OA
BRANCH  20  22
ATOM     22  C   UNL     1     -13.967 -44.382  33.274  0.00  0.00    +0.374 C 
ATOM     23  O   UNL     1     -13.837 -45.574  32.874  0.00  0.00    -0.242 OA
BRANCH  22  24
ATOM     24  O   UNL     1     -14.768 -44.215  34.393  0.00  0.00    -0.475 OA
ATOM     25  H   UNL     1     -14.909 -43.358  34.745  0.00  0.00    +0.295 HD
ENDBRANCH  22  24
ENDBRANCH  20  22
ENDBRANCH  16  20
ENDBRANCH   1  16
TORSDOF 7
