REMARK  Name = =
REMARK  10 active torsions:
REMARK  status: ('A' for Active; 'I' for Inactive)
REMARK    1  A    between atoms: C_1  and  C_2
REMARK    2  A    between atoms: C_1  and  C_5
REMARK    3  A    between atoms: C_1  and  C_18
REMARK    4  A    between atoms: C_5  and  C_13
REMARK    5  A    between atoms: N_6  and  N_17
REMARK    6  A    between atoms: C_18  and  C_20
REMARK    7  A    between atoms: C_20  and  O_22
REMARK    8  A    between atoms: O_22  and  N_23
REMARK    9  A    between atoms: N_23  and  N_24
REMARK   10  A    between atoms: C_25  and  O_27
REMARK                            x       y       z     vdW  Elec       q    Type
REMARK                         _______ _______ _______ _____ _____    ______ ____
ROOT
ATOM      1  C   UNL     1     -13.692 -43.638  31.565  0.00  0.00    +0.167 C 
ENDROOT
BRANCH   1   2
ATOM      2  C   UNL     1     -13.989 -42.470  32.425  0.00  0.00    +0.164 C 
ATOM      3  O   UNL     1     -13.724 -41.311  32.192  0.00  0.00    -0.295 OA
ATOM      4  C   UNL     1     -14.702 -42.715  33.738  0.00  0.00    +0.073 C 
ENDBRANCH   1   2
BRANCH   1   5
ATOM      5  C   UNL     1     -12.574 -44.473  31.977  0.00  0.00    +0.090 C 
ATOM      6  N   UNL     1     -12.800 -45.717  32.171  0.00  0.00    -0.192 NA
BRANCH   5  13
ATOM      7  C   UNL     1      -8.872 -44.204  31.982  0.00  0.00    +0.135 C 
ATOM      8  C   UNL     1     -10.119 -44.683  31.711  0.00  0.00    +0.013 C 
ATOM      9  C   UNL     1     -10.371 -45.889  30.887  0.00  0.00    +0.033 C 
ATOM     10  C   UNL     1      -9.054 -46.267  30.190  0.00  0.00    +0.052 C 
ATOM     11  C   UNL     1      -7.987 -46.283  31.250  0.00  0.00    +0.206 C 
ATOM     12  O   UNL     1      -7.734 -44.896  31.533  0.00  0.00    -0.476 OA
ATOM     13  C   UNL     1     -11.243 -43.966  32.186  0.00  0.00    +0.015 C 
ATOM     14  C   UNL     1     -11.012 -42.803  32.904  0.00  0.00    +0.001 C 
ATOM     15  C   UNL     1      -9.724 -42.327  33.169  0.00  0.00    +0.003 C 
ATOM     16  C   UNL     1      -8.666 -43.049  32.697  0.00  0.00    +0.037 C 
ENDBRANCH   5  13
BRANCH   6  17
ATOM     17  N   UNL     1     -13.971 -46.408  32.037  0.00  0.00    -0.282 N 
ATOM     18  H   UNL     1     -13.996 -47.375  32.223  0.00  0.00    +0.164 HD
ATOM     19  H   UNL     1     -14.790 -45.939  31.755  0.00  0.00    +0.164 HD
ENDBRANCH   6  17
ENDBRANCH   1   5
BRANCH   1  20
ATOM     20  C   UNL     1     -13.576 -43.171  30.153  0.00  0.00    +0.262 C 
ATOM     21  O   UNL     1     -12.479 -42.906  29.590  0.00  0.00    -0.284 OA
BRANCH  20  22
ATOM     22  C   UNL     1     -14.794 -43.013  29.386  0.00  0.00    +0.396 C 
ATOM     23  O   UNL     1     -15.937 -43.259  29.834  0.00  0.00    -0.240 OA
BRANCH  22  24
ATOM     24  O   UNL     1     -14.758 -42.561  28.062  0.00  0.00    -0.345 OA
BRANCH  24  25
ATOM     25  N   UNL     1     -15.837 -42.443  27.259  0.00  0.00    -0.064 NA
ATOM     26  H   UNL     1     -16.300 -41.553  27.444  0.00  0.00    +0.192 HD
BRANCH  25  27
ATOM     27  N   UNL     1     -15.436 -42.490  25.905  0.00  0.00    -0.184 N 
ATOM     28  C   UNL     1     -14.167 -43.029  25.570  0.00  0.00    +0.414 C 
ATOM     29  O   UNL     1     -13.386 -43.467  26.451  0.00  0.00    -0.225 OA
ATOM     30  H   UNL     1     -16.033 -42.151  25.199  0.00  0.00    +0.175 HD
BRANCH  28  31
ATOM     31  O   UNL     1     -13.727 -43.094  24.234  0.00  0.00    -0.465 OA
ATOM     32  H   UNL     1     -14.277 -42.779  23.544  0.00  0.00    +0.297 HD
ENDBRANCH  28  31
ENDBRANCH  25  27
ENDBRANCH  24  25
ENDBRANCH  22  24
ENDBRANCH  20  22
ENDBRANCH   1  20
TORSDOF 10
