MODEL 1
REMARK VINA RESULT:   -12.344      0.000      0.000
REMARK INTER + INTRA:         -19.945
REMARK INTER:                 -17.757
REMARK INTRA:                  -2.189
REMARK UNBOUND:                -2.189
REMARK  Name = =
REMARK  8 active torsions:
REMARK  status: ('A' for Active; 'I' for Inactive)
REMARK    1  A    between atoms: C_1  and  O_19
REMARK    2  A    between atoms: C_5  and  C_16
REMARK    3  A    between atoms: C_12  and  O_39
REMARK    4  A    between atoms: C_16  and  O_18
REMARK    5  A    between atoms: O_19  and  C_27
REMARK    6  A    between atoms: C_26  and  N_29
REMARK    7  A    between atoms: N_32  and  C_33
REMARK    8  A    between atoms: O_39  and  N_40
REMARK                            x       y       z     vdW  Elec       q    Type
REMARK                         _______ _______ _______ _____ _____    ______ ____
ROOT
ATOM      1  C   UNL     1       0.108  -6.116  27.803  0.00  0.00    +0.148 C 
ATOM      2  C   UNL     1      -0.584  -6.860  28.783  0.00  0.00    +0.070 C 
ATOM      3  C   UNL     1      -0.609  -8.220  28.832  0.00  0.00    -0.012 C 
ATOM      4  C   UNL     1       0.084  -8.953  27.863  0.00  0.00    +0.003 C 
ATOM      5  C   UNL     1       0.763  -8.277  26.899  0.00  0.00    +0.078 C 
ATOM      6  C   UNL     1       0.770  -6.884  26.877  0.00  0.00    +0.044 C 
ATOM      7  C   UNL     1      -1.347  -8.971  29.873  0.00  0.00    +0.053 C 
ATOM      8  C   UNL     1      -2.080  -8.156  30.830  0.00  0.00    -0.012 C 
ATOM      9  C   UNL     1      -2.803  -8.808  31.807  0.00  0.00    -0.004 C 
ATOM     10  C   UNL     1      -3.510  -8.083  32.741  0.00  0.00    +0.003 C 
ATOM     11  C   UNL     1      -3.535  -6.713  32.752  0.00  0.00    +0.040 C 
ATOM     12  C   UNL     1      -2.813  -6.056  31.775  0.00  0.00    +0.174 C 
ATOM     13  C   UNL     1      -2.105  -6.782  30.842  0.00  0.00    +0.072 C 
ATOM     14  C   UNL     1      -1.329  -6.104  29.780  0.00  0.00    +0.201 C 
ATOM     15  O   UNL     1      -1.365  -4.852  29.805  0.00  0.00    -0.286 OA
ENDROOT
BRANCH   5  16
ATOM     16  C   UNL     1       1.495  -9.015  25.872  0.00  0.00    +0.338 C 
ATOM     17  O   UNL     1       2.360  -9.873  26.199  0.00  0.00    -0.245 OA
BRANCH  16  18
ATOM     18  O   UNL     1       1.229  -8.763  24.534  0.00  0.00    -0.477 OA
ATOM     19  H   UNL     1       1.636  -9.283  23.870  0.00  0.00    +0.295 HD
ENDBRANCH  16  18
ENDBRANCH   5  16
BRANCH   1  20
ATOM     20  O   UNL     1       0.038  -4.778  27.874  0.00  0.00    -0.452 OA
BRANCH  20  28
ATOM     21  C   UNL     1       1.182  -1.178  24.753  0.00  0.00    +0.002 C 
ATOM     22  C   UNL     1       1.367  -2.036  25.737  0.00  0.00    +0.018 C 
ATOM     23  C   UNL     1       2.622  -1.910  26.253  0.00  0.00    +0.078 C 
ATOM     24  N   UNL     1       3.280  -0.977  25.628  0.00  0.00    -0.266 NA
ATOM     25  C   UNL     1       2.459  -0.402  24.608  0.00  0.00    +0.152 C 
ATOM     26  C   UNL     1       3.003  -2.748  27.317  0.00  0.00    +0.036 C 
ATOM     27  C   UNL     1       2.148  -3.674  27.835  0.00  0.00    +0.088 C 
ATOM     28  C   UNL     1       0.818  -3.826  27.305  0.00  0.00    +0.159 C 
ATOM     29  C   UNL     1       0.502  -2.981  26.270  0.00  0.00    +0.040 C 
BRANCH  27  30
ATOM     30  N   UNL     1       2.556  -4.560  28.846  0.00  0.00    -0.266 N 
ATOM     31  C   UNL     1       2.160  -4.470  30.197  0.00  0.00    +0.308 C 
ATOM     32  O   UNL     1       1.401  -3.593  30.631  0.00  0.00    -0.252 OA
ATOM     33  N   UNL     1       2.639  -5.418  31.150  0.00  0.00    -0.268 N 
ATOM     34  H   UNL     1       3.161  -5.294  28.595  0.00  0.00    +0.157 HD
ATOM     35  H   UNL     1       3.241  -6.117  30.804  0.00  0.00    +0.156 HD
BRANCH  33  36
ATOM     36  C   UNL     1       2.355  -5.473  32.515  0.00  0.00    +0.052 C 
ATOM     37  C   UNL     1       2.891  -4.682  33.490  0.00  0.00    +0.015 C 
ATOM     38  C   UNL     1       2.526  -4.809  34.842  0.00  0.00    +0.001 C 
ATOM     39  C   UNL     1       1.604  -5.754  35.221  0.00  0.00    +0.000 C 
ATOM     40  C   UNL     1       1.049  -6.563  34.264  0.00  0.00    +0.001 C 
ATOM     41  C   UNL     1       1.421  -6.418  32.951  0.00  0.00    +0.015 C 
ENDBRANCH  33  36
ENDBRANCH  27  30
ENDBRANCH  20  28
ENDBRANCH   1  20
BRANCH  12  42
ATOM     42  O   UNL     1      -2.777  -4.657  31.704  0.00  0.00    -0.375 OA
BRANCH  42  43
ATOM     43  N   UNL     1      -3.963  -3.986  31.945  0.00  0.00    -0.082 N 
ATOM     44  C   UNL     1      -4.309  -3.657  33.213  0.00  0.00    +0.114 C 
ATOM     45  C   UNL     1      -5.505  -2.980  33.464  0.00  0.00    +0.051 C 
ATOM     46  C   UNL     1      -6.339  -2.643  32.415  0.00  0.00    +0.120 C 
ATOM     47  N   UNL     1      -5.962  -2.984  31.181  0.00  0.00    -0.145 NA
ATOM     48  C   UNL     1      -4.797  -3.644  30.941  0.00  0.00    +0.364 C 
ATOM     49  O   UNL     1      -4.498  -3.940  29.738  0.00  0.00    -0.247 OA
ATOM     50  N   UNL     1      -7.543  -1.953  32.724  0.00  0.00    -0.344 N 
ATOM     51  H   UNL     1      -7.759  -1.733  33.660  0.00  0.00    +0.144 HD
ATOM     52  H   UNL     1      -8.162  -1.695  32.003  0.00  0.00    +0.144 HD
ENDBRANCH  42  43
ENDBRANCH  12  42
TORSDOF 8
ENDMDL
