MODEL 1
REMARK VINA RESULT:    -6.365      0.000      0.000
REMARK INTER + INTRA:         -12.027
REMARK INTER:                  -9.900
REMARK INTRA:                  -2.127
REMARK UNBOUND:                -2.127
REMARK  Name = =
REMARK  11 active torsions:
REMARK  status: ('A' for Active; 'I' for Inactive)
REMARK    1  A    between atoms: N_1  and  C_2
REMARK    2  A    between atoms: N_1  and  P_16
REMARK    3  A    between atoms: N_1  and  N_20
REMARK    4  A    between atoms: P_16  and  O_18
REMARK    5  A    between atoms: P_16  and  O_19
REMARK    6  A    between atoms: N_20  and  C_21
REMARK    7  A    between atoms: N_20  and  O_34
REMARK    8  A    between atoms: C_21  and  C_24
REMARK    9  A    between atoms: C_31  and  O_33
REMARK   10  A    between atoms: O_34  and  N_35
REMARK   11  A    between atoms: N_35  and  C_36
REMARK                            x       y       z     vdW  Elec       q    Type
REMARK                         _______ _______ _______ _____ _____    ______ ____
ROOT
ATOM      1  N   UNL     1      59.187 160.987  40.431  0.00  0.00    -0.056 NA
ENDROOT
BRANCH   1   2
ATOM      2  C   UNL     1      58.248 160.767  41.503  0.00  0.00    +0.283 C 
ATOM      3  O   UNL     1      57.140 160.133  40.941  0.00  0.00    -0.314 OA
ATOM      4  C   UNL     1      56.135 161.060  40.784  0.00  0.00    +0.215 C 
ATOM      5  N   UNL     1      56.491 162.247  41.532  0.00  0.00    -0.244 N 
ATOM      6  C   UNL     1      55.558 163.362  41.493  0.00  0.00    +0.181 C 
ATOM      7  C   UNL     1      54.155 162.832  41.553  0.00  0.00    +0.246 C 
ATOM      8  O   UNL     1      53.213 163.642  41.533  0.00  0.00    -0.273 OA
ATOM      9  N   UNL     1      53.901 161.435  41.630  0.00  0.00    -0.276 N 
ATOM     10  C   UNL     1      54.842 160.438  41.163  0.00  0.00    +0.122 C 
ATOM     11  C   UNL     1      54.900 159.505  42.337  0.00  0.00    +0.026 C 
ATOM     12  C   UNL     1      53.489 159.569  42.906  0.00  0.00    +0.023 C 
ATOM     13  C   UNL     1      52.775 160.683  42.133  0.00  0.00    +0.094 C 
ATOM     14  C   UNL     1      57.742 161.977  42.139  0.00  0.00    +0.273 C 
ATOM     15  O   UNL     1      58.269 162.659  43.034  0.00  0.00    -0.271 OA
ENDBRANCH   1   2
BRANCH   1  16
ATOM     16  P   UNL     1      59.223 159.673  39.296  0.00  0.00    +0.427 P 
ATOM     17  O   UNL     1      60.567 159.761  38.565  0.00  0.00    -0.238 OA
BRANCH  16  18
ATOM     18  O   UNL     1      58.036 159.806  38.101  0.00  0.00    -0.311 OA
ATOM     19  H   UNL     1      58.230 159.183  37.383  0.00  0.00    +0.221 HD
ENDBRANCH  16  18
BRANCH  16  20
ATOM     20  O   UNL     1      59.084 158.166  39.991  0.00  0.00    -0.311 OA
ATOM     21  H   UNL     1      59.964 157.838  40.231  0.00  0.00    +0.221 HD
ENDBRANCH  16  20
ENDBRANCH   1  16
BRANCH   1  22
ATOM     22  N   UNL     1      60.411 161.436  40.828  0.00  0.00    -0.099 N 
BRANCH  22  23
ATOM     23  C   UNL     1      60.885 162.701  40.392  0.00  0.00    +0.150 C 
ATOM     24  S   UNL     1      61.006 163.967  41.458  0.00  0.00    -0.032 S 
BRANCH  23  26
ATOM     25  O   UNL     1      60.424 163.919  38.392  0.00  0.00    -0.468 OA
ATOM     26  C   UNL     1      61.289 162.977  38.992  0.00  0.00    +0.234 C 
ATOM     27  C   UNL     1      62.732 163.306  38.824  0.00  0.00    +0.023 C 
ATOM     28  C   UNL     1      63.076 164.271  37.754  0.00  0.00    +0.003 C 
ATOM     29  C   UNL     1      62.010 164.626  36.822  0.00  0.00    +0.037 C 
ATOM     30  C   UNL     1      60.686 164.451  37.142  0.00  0.00    +0.140 C 
ATOM     31  C   UNL     1      59.711 164.801  36.231  0.00  0.00    +0.040 C 
ATOM     32  C   UNL     1      60.079 165.325  35.008  0.00  0.00    +0.040 C 
ATOM     33  C   UNL     1      61.411 165.513  34.656  0.00  0.00    +0.134 C 
ATOM     34  C   UNL     1      62.359 165.152  35.592  0.00  0.00    +0.040 C 
BRANCH  33  35
ATOM     35  O   UNL     1      61.753 166.043  33.417  0.00  0.00    -0.506 OA
ATOM     36  H   UNL     1      62.308 166.795  33.366  0.00  0.00    +0.292 HD
ENDBRANCH  33  35
ENDBRANCH  23  26
ENDBRANCH  22  23
BRANCH  22  37
ATOM     37  O   UNL     1      61.228 160.723  41.642  0.00  0.00    -0.153 OA
BRANCH  37  38
ATOM     38  N   UNL     1      62.303 160.247  40.997  0.00  0.00    -0.192 N 
ATOM     39  H   UNL     1      62.156 159.809  40.127  0.00  0.00    +0.182 HD
BRANCH  38  40
ATOM     40  C   UNL     1      63.628 160.329  41.471  0.00  0.00    +0.128 C 
ATOM     41  S   UNL     1      63.968 159.986  43.030  0.00  0.00    -0.031 S 
ENDBRANCH  38  40
ENDBRANCH  37  38
ENDBRANCH  22  37
ENDBRANCH   1  22
TORSDOF 11
ENDMDL
