REMARK  Name = =
REMARK  11 active torsions:
REMARK  status: ('A' for Active; 'I' for Inactive)
REMARK    1  A    between atoms: N_1  and  C_2
REMARK    2  A    between atoms: N_1  and  P_16
REMARK    3  A    between atoms: N_1  and  N_20
REMARK    4  A    between atoms: P_16  and  O_18
REMARK    5  A    between atoms: P_16  and  O_19
REMARK    6  A    between atoms: N_20  and  C_21
REMARK    7  A    between atoms: N_20  and  O_34
REMARK    8  A    between atoms: C_21  and  C_24
REMARK    9  A    between atoms: C_31  and  O_33
REMARK   10  A    between atoms: O_34  and  N_35
REMARK   11  A    between atoms: N_35  and  C_36
REMARK                            x       y       z     vdW  Elec       q    Type
REMARK                         _______ _______ _______ _____ _____    ______ ____
ROOT
ATOM      1  N   UNL     1      60.476 167.091  39.756  0.00  0.00    -0.056 NA
ENDROOT
BRANCH   1   2
ATOM      2  C   UNL     1      60.046 167.870  38.622  0.00  0.00    +0.283 C 
ATOM      3  O   UNL     1      60.195 167.057  37.498  0.00  0.00    -0.314 OA
ATOM      4  C   UNL     1      61.333 167.440  36.825  0.00  0.00    +0.215 C 
ATOM      5  N   UNL     1      61.766 168.716  37.355  0.00  0.00    -0.244 N 
ATOM      6  C   UNL     1      62.967 169.300  36.781  0.00  0.00    +0.181 C 
ATOM      7  C   UNL     1      62.969 169.065  35.298  0.00  0.00    +0.246 C 
ATOM      8  O   UNL     1      63.923 169.498  34.630  0.00  0.00    -0.273 OA
ATOM      9  N   UNL     1      61.907 168.363  34.665  0.00  0.00    -0.276 N 
ATOM     10  C   UNL     1      61.060 167.421  35.367  0.00  0.00    +0.122 C 
ATOM     11  C   UNL     1      59.692 167.888  34.965  0.00  0.00    +0.026 C 
ATOM     12  C   UNL     1      59.900 168.405  33.548  0.00  0.00    +0.023 C 
ATOM     13  C   UNL     1      61.413 168.375  33.308  0.00  0.00    +0.094 C 
ATOM     14  C   UNL     1      60.833 169.069  38.361  0.00  0.00    +0.273 C 
ATOM     15  O   UNL     1      60.735 170.189  38.889  0.00  0.00    -0.271 OA
ENDBRANCH   1   2
BRANCH   1  16
ATOM     16  P   UNL     1      60.087 167.846  41.270  0.00  0.00    +0.427 P 
ATOM     17  O   UNL     1      58.616 168.268  41.185  0.00  0.00    -0.238 OA
BRANCH  16  18
ATOM     18  O   UNL     1      60.961 169.267  41.539  0.00  0.00    -0.311 OA
ATOM     19  H   UNL     1      61.906 169.058  41.602  0.00  0.00    +0.221 HD
ENDBRANCH  16  18
BRANCH  16  20
ATOM     20  O   UNL     1      60.290 166.861  42.597  0.00  0.00    -0.311 OA
ATOM     21  H   UNL     1      61.219 166.589  42.659  0.00  0.00    +0.221 HD
ENDBRANCH  16  20
ENDBRANCH   1  16
BRANCH   1  22
ATOM     22  N   UNL     1      61.747 166.606  39.666  0.00  0.00    -0.099 N 
BRANCH  22  23
ATOM     23  C   UNL     1      61.973 165.265  39.260  0.00  0.00    +0.150 C 
ATOM     24  S   UNL     1      63.136 164.913  38.129  0.00  0.00    -0.032 S 
BRANCH  23  26
ATOM     25  O   UNL     1      61.183 163.047  38.871  0.00  0.00    -0.468 OA
ATOM     26  C   UNL     1      61.207 164.114  39.797  0.00  0.00    +0.234 C 
ATOM     27  C   UNL     1      61.605 163.699  41.170  0.00  0.00    +0.023 C 
ATOM     28  C   UNL     1      61.511 162.254  41.484  0.00  0.00    +0.003 C 
ATOM     29  C   UNL     1      60.822 161.414  40.509  0.00  0.00    +0.037 C 
ATOM     30  C   UNL     1      60.660 161.810  39.204  0.00  0.00    +0.140 C 
ATOM     31  C   UNL     1      60.003 160.984  38.316  0.00  0.00    +0.040 C 
ATOM     32  C   UNL     1      59.518 159.767  38.751  0.00  0.00    +0.040 C 
ATOM     33  C   UNL     1      59.667 159.339  40.065  0.00  0.00    +0.134 C 
ATOM     34  C   UNL     1      60.329 160.191  40.926  0.00  0.00    +0.040 C 
BRANCH  33  35
ATOM     35  O   UNL     1      59.168 158.108  40.475  0.00  0.00    -0.506 OA
ATOM     36  H   UNL     1      58.724 157.555  39.863  0.00  0.00    +0.292 HD
ENDBRANCH  33  35
ENDBRANCH  23  26
ENDBRANCH  22  23
BRANCH  22  37
ATOM     37  O   UNL     1      62.841 167.354  39.950  0.00  0.00    -0.153 OA
BRANCH  37  38
ATOM     38  N   UNL     1      63.395 167.023  41.125  0.00  0.00    -0.192 N 
ATOM     39  H   UNL     1      62.839 167.113  41.933  0.00  0.00    +0.182 HD
BRANCH  38  40
ATOM     40  C   UNL     1      64.715 166.555  41.290  0.00  0.00    +0.128 C 
ATOM     41  S   UNL     1      64.999 165.144  42.059  0.00  0.00    -0.031 S 
ENDBRANCH  38  40
ENDBRANCH  37  38
ENDBRANCH  22  37
ENDBRANCH   1  22
TORSDOF 11
