REMARK  Name = =
REMARK  0 active torsions:
REMARK  status: ('A' for Active; 'I' for Inactive)
REMARK                            x       y       z     vdW  Elec       q    Type
REMARK                         _______ _______ _______ _____ _____    ______ ____
ROOT
ATOM      1  O   UNL     1      51.534 155.216  27.706  0.00  0.00    -0.349 OA
ATOM      2  C   UNL     1      50.614 154.660  28.583  0.00  0.00    +0.147 C 
ATOM      3  C   UNL     1      49.728 155.668  29.247  0.00  0.00    +0.062 C 
ATOM      4  C   UNL     1      50.482 156.909  29.553  0.00  0.00    +0.021 C 
ATOM      5  C   UNL     1      51.753 157.067  29.186  0.00  0.00    +0.045 C 
ATOM      6  C   UNL     1      52.472 155.974  28.440  0.00  0.00    +0.172 C 
ATOM      7  C   UNL     1      52.406 158.321  29.531  0.00  0.00    +0.194 C 
ATOM      8  O   UNL     1      53.606 158.490  29.194  0.00  0.00    -0.287 OA
ATOM      9  C   UNL     1      51.748 159.396  30.248  0.00  0.00    +0.042 C 
ATOM     10  C   UNL     1      50.433 159.220  30.621  0.00  0.00    +0.042 C 
ATOM     11  C   UNL     1      49.784 160.232  31.305  0.00  0.00    +0.003 C 
ATOM     12  C   UNL     1      50.424 161.419  31.625  0.00  0.00    +0.000 C 
ATOM     13  C   UNL     1      51.739 161.595  31.251  0.00  0.00    +0.000 C 
ATOM     14  C   UNL     1      52.394 160.592  30.570  0.00  0.00    +0.003 C 
ATOM     15  C   UNL     1      49.764 157.958  30.277  0.00  0.00    +0.192 C 
ATOM     16  O   UNL     1      48.551 157.819  30.633  0.00  0.00    -0.287 OA
ENDROOT
TORSDOF 0
