REMARK  Name = =
REMARK  4 active torsions:
REMARK  status: ('A' for Active; 'I' for Inactive)
REMARK    1  A    between atoms: N_1  and  C_9
REMARK    2  A    between atoms: C_6  and  S_15
REMARK    3  A    between atoms: S_15  and  S_16
REMARK    4  A    between atoms: S_15  and  S_17
REMARK                            x       y       z     vdW  Elec       q    Type
REMARK                         _______ _______ _______ _____ _____    ______ ____
ROOT
ATOM      1  N   UNL     1     -14.625 -43.213  27.477  0.00  0.00    -0.206 N 
ATOM      2  C   UNL     1     -15.623 -42.789  28.429  0.00  0.00    +0.235 C 
ATOM      3  O   UNL     1     -15.217 -42.651  29.631  0.00  0.00    -0.274 OA
ATOM      4  C   UNL     1     -17.019 -42.535  28.027  0.00  0.00    +0.087 C 
ATOM      5  C   UNL     1     -17.073 -41.893  26.684  0.00  0.00    +0.029 C 
ATOM      6  C   UNL     1     -16.323 -42.711  25.629  0.00  0.00    +0.123 C 
ATOM      7  C   UNL     1     -14.969 -43.063  26.111  0.00  0.00    +0.245 C 
ATOM      8  O   UNL     1     -14.070 -43.239  25.258  0.00  0.00    -0.273 OA
ENDROOT
BRANCH   1   9
ATOM      9  C   UNL     1     -13.391 -43.742  27.918  0.00  0.00    +0.080 C 
ATOM     10  C   UNL     1     -12.294 -42.916  27.961  0.00  0.00    +0.018 C 
ATOM     11  C   UNL     1     -11.051 -43.379  28.387  0.00  0.00    +0.022 C 
ATOM     12  C   UNL     1     -10.908 -44.692  28.775  0.00  0.00    +0.099 C 
ATOM     13  N   UNL     1     -11.986 -45.491  28.729  0.00  0.00    -0.241 NA
ATOM     14  C   UNL     1     -13.192 -45.041  28.317  0.00  0.00    +0.114 C 
ENDBRANCH   1   9
BRANCH   6  15
ATOM     15  S   UNL     1     -16.333 -41.802  24.170  0.00  0.00    -0.144 S 
ATOM     16  H   UNL     1     -17.491 -41.107  24.329  0.00  0.00    +0.104 HD
BRANCH  15  17
ATOM     17  S   UNL     1     -16.579 -42.430  22.733  0.00  0.00    -0.122 S 
ATOM     18  H   UNL     1     -15.504 -43.184  22.378  0.00  0.00    +0.113 HD
ENDBRANCH  15  17
BRANCH  15  19
ATOM     19  S   UNL     1     -14.959 -41.024  24.103  0.00  0.00    -0.122 S 
ATOM     20  H   UNL     1     -13.942 -41.913  23.942  0.00  0.00    +0.113 HD
ENDBRANCH  15  19
ENDBRANCH   6  15
TORSDOF 4
