MODEL 1
REMARK VINA RESULT:    -8.950      0.000      0.000
REMARK INTER + INTRA:         -13.589
REMARK INTER:                 -13.659
REMARK INTRA:                   0.070
REMARK UNBOUND:                 0.070
REMARK  Name = =
REMARK  9 active torsions:
REMARK  status: ('A' for Active; 'I' for Inactive)
REMARK    1  A    between atoms: C_1  and  N_17
REMARK    2  A    between atoms: C_3  and  C_4
REMARK    3  A    between atoms: N_8  and  C_9
REMARK    4  A    between atoms: C_9  and  N_10
REMARK    5  A    between atoms: N_10  and  N_11
REMARK    6  A    between atoms: N_11  and  C_14
REMARK    7  A    between atoms: C_14  and  C_15
REMARK    8  A    between atoms: N_17  and  S_18
REMARK    9  A    between atoms: S_18  and  C_30
REMARK                            x       y       z     vdW  Elec       q    Type
REMARK                         _______ _______ _______ _____ _____    ______ ____
ROOT
ATOM      1  C   UNL     1      51.379 156.900  29.145  0.00  0.00    +0.083 C 
ATOM      2  C   UNL     1      50.098 156.526  29.897  0.00  0.00    +0.027 C 
ATOM      3  C   UNL     1      50.884 157.654  30.313  0.00  0.00    +0.074 C 
ENDROOT
BRANCH   3   4
ATOM      4  C   UNL     1      50.517 159.078  30.275  0.00  0.00    +0.132 C 
ATOM      5  N   UNL     1      49.226 159.520  30.050  0.00  0.00    -0.210 NA
ATOM      6  C   UNL     1      49.173 160.848  30.057  0.00  0.00    +0.218 C 
ATOM      7  N   UNL     1      50.422 161.252  30.284  0.00  0.00    -0.153 NA
ATOM      8  N   UNL     1      51.235 160.175  30.416  0.00  0.00    -0.179 N 
BRANCH   8   9
ATOM      9  C   UNL     1      52.642 160.310  30.663  0.00  0.00    +0.206 C 
BRANCH   9  10
ATOM     10  N   UNL     1      52.939 161.525  31.401  0.00  0.00    -0.205 NA
ATOM     11  H   UNL     1      52.887 161.317  32.398  0.00  0.00    +0.147 HD
BRANCH  10  12
ATOM     12  N   UNL     1      54.189 162.053  31.130  0.00  0.00    -0.208 N 
ATOM     13  C   UNL     1      54.706 162.063  29.828  0.00  0.00    +0.318 C 
ATOM     14  O   UNL     1      55.861 162.554  29.590  0.00  0.00    -0.264 OA
BRANCH  12  15
ATOM     15  C   UNL     1      54.981 162.607  32.219  0.00  0.00    +0.184 C 
BRANCH  15  16
ATOM     16  C   UNL     1      55.852 161.551  32.829  0.00  0.00    +0.231 C 
ATOM     17  O   UNL     1      56.977 161.811  33.213  0.00  0.00    -0.286 OA
ENDBRANCH  15  16
ENDBRANCH  12  15
ENDBRANCH  10  12
ENDBRANCH   9  10
ENDBRANCH   8   9
ENDBRANCH   3   4
BRANCH   1  18
ATOM     18  N   UNL     1      52.399 155.921  29.182  0.00  0.00    -0.180 NA
ATOM     19  H   UNL     1      52.452 155.582  30.142  0.00  0.00    +0.149 HD
BRANCH  18  20
ATOM     20  S   UNL     1      52.276 154.577  28.194  0.00  0.00    +0.060 S 
ATOM     21  O   UNL     1      50.883 154.156  27.851  0.00  0.00    -0.153 OA
ATOM     22  O   UNL     1      52.956 153.414  28.858  0.00  0.00    -0.153 OA
BRANCH  20  32
ATOM     23  C   UNL     1      53.517 151.481  25.378  0.00  0.00    +0.000 C 
ATOM     24  C   UNL     1      53.171 152.515  26.198  0.00  0.00    +0.001 C 
ATOM     25  C   UNL     1      53.446 153.829  25.859  0.00  0.00    +0.019 C 
ATOM     26  C   UNL     1      54.087 154.047  24.657  0.00  0.00    +0.001 C 
ATOM     27  C   UNL     1      54.440 152.990  23.821  0.00  0.00    +0.000 C 
ATOM     28  C   UNL     1      54.155 151.689  24.178  0.00  0.00    +0.000 C 
ATOM     29  C   UNL     1      54.412 155.339  24.229  0.00  0.00    +0.000 C 
ATOM     30  C   UNL     1      54.063 156.384  25.062  0.00  0.00    +0.001 C 
ATOM     31  C   UNL     1      53.418 156.150  26.269  0.00  0.00    +0.020 C 
ATOM     32  C   UNL     1      53.102 154.879  26.684  0.00  0.00    +0.122 C 
ENDBRANCH  20  32
ENDBRANCH  18  20
ENDBRANCH   1  18
TORSDOF 9
ENDMDL
