REMARK  Name = =
REMARK  9 active torsions:
REMARK  status: ('A' for Active; 'I' for Inactive)
REMARK    1  A    between atoms: C_1  and  N_17
REMARK    2  A    between atoms: C_3  and  C_4
REMARK    3  A    between atoms: N_8  and  C_9
REMARK    4  A    between atoms: C_9  and  N_10
REMARK    5  A    between atoms: N_10  and  N_11
REMARK    6  A    between atoms: N_11  and  C_14
REMARK    7  A    between atoms: C_14  and  C_15
REMARK    8  A    between atoms: N_17  and  S_18
REMARK    9  A    between atoms: S_18  and  C_30
REMARK                            x       y       z     vdW  Elec       q    Type
REMARK                         _______ _______ _______ _____ _____    ______ ____
ROOT
ATOM      1  C   UNL     1      53.034 155.944  26.759  0.00  0.00    +0.083 C 
ATOM      2  C   UNL     1      52.285 157.251  27.037  0.00  0.00    +0.027 C 
ATOM      3  C   UNL     1      51.711 155.989  27.413  0.00  0.00    +0.074 C 
ENDROOT
BRANCH   3   4
ATOM      4  C   UNL     1      51.448 155.481  28.768  0.00  0.00    +0.132 C 
ATOM      5  N   UNL     1      51.269 154.139  29.051  0.00  0.00    -0.210 NA
ATOM      6  C   UNL     1      51.038 153.956  30.347  0.00  0.00    +0.218 C 
ATOM      7  N   UNL     1      51.069 155.173  30.889  0.00  0.00    -0.153 NA
ATOM      8  N   UNL     1      51.318 156.096  29.927  0.00  0.00    -0.179 N 
BRANCH   8   9
ATOM      9  C   UNL     1      51.403 157.498  30.223  0.00  0.00    +0.206 C 
BRANCH   9  10
ATOM     10  N   UNL     1      50.091 158.120  30.237  0.00  0.00    -0.205 NA
ATOM     11  H   UNL     1      49.425 157.456  30.632  0.00  0.00    +0.147 HD
BRANCH  10  12
ATOM     12  N   UNL     1      50.033 159.288  30.977  0.00  0.00    -0.208 N 
ATOM     13  C   UNL     1      50.938 160.334  30.753  0.00  0.00    +0.318 C 
ATOM     14  O   UNL     1      50.874 161.408  31.442  0.00  0.00    -0.264 OA
BRANCH  12  15
ATOM     15  C   UNL     1      49.014 159.431  32.007  0.00  0.00    +0.184 C 
BRANCH  15  16
ATOM     16  C   UNL     1      47.729 159.924  31.413  0.00  0.00    +0.231 C 
ATOM     17  O   UNL     1      46.731 160.052  32.097  0.00  0.00    -0.286 OA
ENDBRANCH  15  16
ENDBRANCH  12  15
ENDBRANCH  10  12
ENDBRANCH   9  10
ENDBRANCH   8   9
ENDBRANCH   3   4
BRANCH   1  18
ATOM     18  N   UNL     1      53.255 155.663  25.391  0.00  0.00    -0.180 NA
ATOM     19  H   UNL     1      53.860 156.400  25.029  0.00  0.00    +0.149 HD
BRANCH  18  20
ATOM     20  S   UNL     1      53.951 154.204  24.961  0.00  0.00    +0.060 S 
ATOM     21  O   UNL     1      55.396 154.052  25.311  0.00  0.00    -0.153 OA
ATOM     22  O   UNL     1      53.817 154.013  23.477  0.00  0.00    -0.153 OA
BRANCH  20  32
ATOM     23  C   UNL     1      54.645 149.968  24.167  0.00  0.00    +0.000 C 
ATOM     24  C   UNL     1      54.357 151.265  24.477  0.00  0.00    +0.001 C 
ATOM     25  C   UNL     1      53.398 151.585  25.423  0.00  0.00    +0.019 C 
ATOM     26  C   UNL     1      52.745 150.535  26.036  0.00  0.00    +0.001 C 
ATOM     27  C   UNL     1      53.041 149.212  25.718  0.00  0.00    +0.000 C 
ATOM     28  C   UNL     1      54.001 148.916  24.773  0.00  0.00    +0.000 C 
ATOM     29  C   UNL     1      51.757 150.757  27.002  0.00  0.00    +0.000 C 
ATOM     30  C   UNL     1      51.465 152.070  27.313  0.00  0.00    +0.001 C 
ATOM     31  C   UNL     1      52.129 153.117  26.688  0.00  0.00    +0.020 C 
ATOM     32  C   UNL     1      53.099 152.893  25.740  0.00  0.00    +0.122 C 
ENDBRANCH  20  32
ENDBRANCH  18  20
ENDBRANCH   1  18
TORSDOF 9
