REMARK  Name = =
REMARK  0 active torsions:
REMARK  status: ('A' for Active; 'I' for Inactive)
REMARK                            x       y       z     vdW  Elec       q    Type
REMARK                         _______ _______ _______ _____ _____    ______ ____
ROOT
ATOM      1  N   UNL     1      -0.938  -2.944  30.399  0.00  0.00    -0.304 N 
ATOM      2  C   UNL     1      -2.253  -3.272  29.862  0.00  0.00    +0.089 C 
ATOM      3  C   UNL     1      -2.380  -3.055  28.395  0.00  0.00    +0.022 C 
ATOM      4  C   UNL     1      -1.175  -2.341  27.831  0.00  0.00    +0.011 C 
ATOM      5  C   UNL     1       0.030  -3.244  28.135  0.00  0.00    +0.085 C 
ATOM      6  C   UNL     1       0.190  -3.193  29.597  0.00  0.00    +0.222 C 
ATOM      7  O   UNL     1       1.301  -3.367  30.123  0.00  0.00    -0.275 OA
ATOM      8  H   UNL     1      -0.842  -2.558  31.300  0.00  0.00    +0.149 HD
ENDROOT
TORSDOF 0
