REMARK  Name = =
REMARK  4 active torsions:
REMARK  status: ('A' for Active; 'I' for Inactive)
REMARK    1  A    between atoms: C_3  and  C_10
REMARK    2  A    between atoms: C_5  and  C_7
REMARK    3  A    between atoms: C_7  and  O_9
REMARK    4  A    between atoms: C_10  and  O_12
REMARK                            x       y       z     vdW  Elec       q    Type
REMARK                         _______ _______ _______ _____ _____    ______ ____
ROOT
ATOM      1  N   UNL     1      -1.123  -4.730  30.374  0.00  0.00    -0.328 N 
ATOM      2  C   UNL     1      -1.556  -6.002  30.751  0.00  0.00    +0.121 C 
ATOM      3  C   UNL     1      -2.832  -6.233  31.106  0.00  0.00    +0.073 C 
ATOM      4  C   UNL     1      -3.816  -5.144  31.107  0.00  0.00    +0.012 C 
ATOM      5  C   UNL     1      -3.317  -3.835  30.706  0.00  0.00    +0.090 C 
ATOM      6  C   UNL     1      -2.061  -3.660  30.368  0.00  0.00    +0.065 C 
ATOM      7  H   UNL     1      -0.185  -4.576  30.117  0.00  0.00    +0.147 HD
ENDROOT
BRANCH   5   8
ATOM      8  C   UNL     1      -4.245  -2.711  30.685  0.00  0.00    +0.339 C 
ATOM      9  O   UNL     1      -3.812  -1.527  30.539  0.00  0.00    -0.245 OA
BRANCH   8  10
ATOM     10  O   UNL     1      -5.615  -2.887  30.822  0.00  0.00    -0.477 OA
ATOM     11  H   UNL     1      -5.968  -3.748  30.932  0.00  0.00    +0.295 HD
ENDBRANCH   8  10
ENDBRANCH   5   8
BRANCH   3  12
ATOM     12  C   UNL     1      -3.276  -7.559  31.497  0.00  0.00    +0.336 C 
ATOM     13  O   UNL     1      -4.463  -7.789  31.788  0.00  0.00    -0.245 OA
BRANCH  12  14
ATOM     14  O   UNL     1      -2.343  -8.570  31.539  0.00  0.00    -0.477 OA
ATOM     15  H   UNL     1      -1.450  -8.393  31.319  0.00  0.00    +0.295 HD
ENDBRANCH  12  14
ENDBRANCH   3  12
TORSDOF 4
