REMARK  Name = =
REMARK  5 active torsions:
REMARK  status: ('A' for Active; 'I' for Inactive)
REMARK    1  A    between atoms: C_1  and  C_7
REMARK    2  A    between atoms: C_1  and  O_12
REMARK    3  A    between atoms: C_5  and  C_9
REMARK    4  A    between atoms: C_9  and  O_11
REMARK    5  A    between atoms: O_12  and  C_13
REMARK                            x       y       z     vdW  Elec       q    Type
REMARK                         _______ _______ _______ _____ _____    ______ ____
ROOT
ATOM      1  C   UNL     1      -4.357  -2.997  31.089  0.00  0.00    +0.342 C 
ATOM      2  O   UNL     1      -5.493  -3.541  31.041  0.00  0.00    -0.245 OA
ENDROOT
BRANCH   1   7
ATOM      3  N   UNL     1      -0.772  -3.657  30.294  0.00  0.00    -0.328 N 
ATOM      4  C   UNL     1      -0.773  -5.078  30.307  0.00  0.00    +0.121 C 
ATOM      5  C   UNL     1      -1.836  -5.816  30.553  0.00  0.00    +0.073 C 
ATOM      6  C   UNL     1      -3.125  -5.175  30.834  0.00  0.00    +0.012 C 
ATOM      7  C   UNL     1      -3.122  -3.706  30.820  0.00  0.00    +0.090 C 
ATOM      8  C   UNL     1      -2.031  -3.043  30.570  0.00  0.00    +0.065 C 
ATOM      9  H   UNL     1       0.040  -3.133  30.108  0.00  0.00    +0.147 HD
BRANCH   5  10
ATOM     10  C   UNL     1      -1.778  -7.282  30.553  0.00  0.00    +0.336 C 
ATOM     11  O   UNL     1      -0.701  -7.903  30.363  0.00  0.00    -0.245 OA
BRANCH  10  12
ATOM     12  O   UNL     1      -2.917  -8.029  30.766  0.00  0.00    -0.477 OA
ATOM     13  H   UNL     1      -3.738  -7.601  30.911  0.00  0.00    +0.295 HD
ENDBRANCH  10  12
ENDBRANCH   5  10
ENDBRANCH   1   7
BRANCH   1  14
ATOM     14  O   UNL     1      -4.347  -1.651  31.423  0.00  0.00    -0.448 OA
BRANCH  14  15
ATOM     15  C   UNL     1      -5.322  -0.751  31.015  0.00  0.00    +0.178 C 
ATOM     16  C   UNL     1      -4.807   0.635  30.727  0.00  0.00    +0.070 C 
ATOM     17  C   UNL     1      -6.004   1.467  31.008  0.00  0.00    -0.022 C 
ATOM     18  C   UNL     1      -6.964   0.781  31.695  0.00  0.00    -0.022 C 
ATOM     19  C   UNL     1      -6.480  -0.600  31.943  0.00  0.00    +0.070 C 
ATOM     20  C   UNL     1      -8.174   1.395  32.055  0.00  0.00    -0.004 C 
ATOM     21  C   UNL     1      -8.374   2.695  31.703  0.00  0.00    -0.000 C 
ATOM     22  C   UNL     1      -7.443   3.423  31.016  0.00  0.00    -0.000 C 
ATOM     23  C   UNL     1      -6.264   2.800  30.674  0.00  0.00    -0.004 C 
ENDBRANCH  14  15
ENDBRANCH   1  14
TORSDOF 5
