REMARK  Name = =
REMARK  1 active torsions:
REMARK  status: ('A' for Active; 'I' for Inactive)
REMARK    1  A    between atoms: C_5  and  C_8
REMARK                            x       y       z     vdW  Elec       q    Type
REMARK                         _______ _______ _______ _____ _____    ______ ____
ROOT
ATOM      1  N   UNL     1      -0.994  -3.754  30.332  0.00  0.00    -0.304 N 
ATOM      2  C   UNL     1      -2.052  -3.196  29.507  0.00  0.00    +0.089 C 
ATOM      3  C   UNL     1      -1.340  -2.613  28.282  0.00  0.00    +0.022 C 
ATOM      4  C   UNL     1      -0.668  -3.757  27.597  0.00  0.00    +0.011 C 
ATOM      5  C   UNL     1       0.477  -4.349  28.388  0.00  0.00    +0.077 C 
ATOM      6  C   UNL     1       0.321  -3.933  29.806  0.00  0.00    +0.222 C 
ATOM      7  O   UNL     1       1.344  -3.736  30.550  0.00  0.00    -0.275 OA
ATOM      8  H   UNL     1      -1.186  -4.011  31.263  0.00  0.00    +0.149 HD
ENDROOT
BRANCH   5   9
ATOM      9  C   UNL     1       0.411  -5.844  28.345  0.00  0.00    +0.009 C 
ATOM     10  C   UNL     1       1.318  -6.529  29.303  0.00  0.00    +0.000 C 
ATOM     11  C   UNL     1       2.213  -7.386  28.395  0.00  0.00    +0.000 C 
ATOM     12  C   UNL     1       1.149  -7.821  27.371  0.00  0.00    +0.000 C 
ATOM     13  C   UNL     1       0.712  -6.401  26.958  0.00  0.00    +0.000 C 
ATOM     14  C   UNL     1       2.078  -5.898  26.478  0.00  0.00    +0.000 C 
ATOM     15  C   UNL     1       2.994  -6.386  27.549  0.00  0.00    +0.000 C 
ENDBRANCH   5   9
TORSDOF 1
