REMARK  Name = =
REMARK  7 active torsions:
REMARK  status: ('A' for Active; 'I' for Inactive)
REMARK    1  A    between atoms: N_1  and  C_22
REMARK    2  A    between atoms: C_3  and  C_19
REMARK    3  A    between atoms: C_5  and  C_7
REMARK    4  A    between atoms: C_7  and  O_9
REMARK    5  A    between atoms: O_9  and  C_10
REMARK    6  A    between atoms: C_19  and  O_21
REMARK    7  A    between atoms: C_22  and  N_23
REMARK                            x       y       z     vdW  Elec       q    Type
REMARK                         _______ _______ _______ _____ _____    ______ ____
ROOT
ATOM      1  N   UNL     1      -0.680  -4.122  30.181  0.00  0.00    -0.287 N 
ATOM      2  C   UNL     1       0.205  -3.697  29.163  0.00  0.00    +0.125 C 
ATOM      3  C   UNL     1       0.002  -2.617  28.450  0.00  0.00    +0.073 C 
ATOM      4  C   UNL     1      -1.168  -1.763  28.654  0.00  0.00    +0.012 C 
ATOM      5  C   UNL     1      -2.060  -2.229  29.709  0.00  0.00    +0.090 C 
ATOM      6  C   UNL     1      -1.817  -3.314  30.399  0.00  0.00    +0.069 C 
ENDROOT
BRANCH   5   7
ATOM      7  C   UNL     1      -3.285  -1.464  30.029  0.00  0.00    +0.342 C 
ATOM      8  O   UNL     1      -3.538  -0.360  29.487  0.00  0.00    -0.245 OA
BRANCH   7   9
ATOM      9  O   UNL     1      -4.168  -1.968  30.936  0.00  0.00    -0.448 OA
BRANCH   9  10
ATOM     10  C   UNL     1      -5.527  -1.629  31.033  0.00  0.00    +0.178 C 
ATOM     11  C   UNL     1      -6.448  -2.784  30.807  0.00  0.00    +0.070 C 
ATOM     12  C   UNL     1      -7.606  -2.483  31.673  0.00  0.00    -0.022 C 
ATOM     13  C   UNL     1      -7.283  -1.516  32.582  0.00  0.00    -0.022 C 
ATOM     14  C   UNL     1      -5.890  -1.091  32.400  0.00  0.00    +0.070 C 
ATOM     15  C   UNL     1      -8.250  -1.092  33.496  0.00  0.00    -0.004 C 
ATOM     16  C   UNL     1      -9.513  -1.642  33.480  0.00  0.00    -0.000 C 
ATOM     17  C   UNL     1      -9.840  -2.617  32.561  0.00  0.00    -0.000 C 
ATOM     18  C   UNL     1      -8.894  -3.041  31.656  0.00  0.00    -0.004 C 
ENDBRANCH   9  10
ENDBRANCH   7   9
ENDBRANCH   5   7
BRANCH   3  19
ATOM     19  C   UNL     1       0.968  -2.216  27.388  0.00  0.00    +0.336 C 
ATOM     20  O   UNL     1       0.791  -1.199  26.696  0.00  0.00    -0.245 OA
BRANCH  19  21
ATOM     21  O   UNL     1       2.070  -3.028  27.215  0.00  0.00    -0.477 OA
ATOM     22  H   UNL     1       2.180  -3.789  27.750  0.00  0.00    +0.295 HD
ENDBRANCH  19  21
ENDBRANCH   3  19
BRANCH   1  23
ATOM     23  C   UNL     1      -0.468  -5.300  30.968  0.00  0.00    +0.184 C 
BRANCH  23  24
ATOM     24  N   UNL     1       0.911  -5.748  30.946  0.00  0.00    -0.196 NA
ATOM     25  C   UNL     1       1.822  -4.639  30.747  0.00  0.00    +0.109 C 
ENDBRANCH  23  24
ENDBRANCH   1  23
TORSDOF 7
