REMARK  Name = =
REMARK  11 active torsions:
REMARK  status: ('A' for Active; 'I' for Inactive)
REMARK    1  A    between atoms: C_1  and  O_10
REMARK    2  A    between atoms: C_2  and  N_25
REMARK    3  A    between atoms: O_10  and  C_11
REMARK    4  A    between atoms: C_11  and  C_17
REMARK    5  A    between atoms: N_13  and  C_22
REMARK    6  A    between atoms: C_15  and  C_19
REMARK    7  A    between atoms: C_19  and  O_21
REMARK    8  A    between atoms: C_22  and  N_23
REMARK    9  A    between atoms: N_25  and  C_26
REMARK   10  A    between atoms: N_25  and  O_29
REMARK   11  A    between atoms: C_26  and  N_28
REMARK                            x       y       z     vdW  Elec       q    Type
REMARK                         _______ _______ _______ _____ _____    ______ ____
ROOT
ATOM      1  C   UNL     1      -5.662  -2.001  31.497  0.00  0.00    +0.198 C 
ATOM      2  C   UNL     1      -5.582  -0.754  30.623  0.00  0.00    +0.164 C 
ATOM      3  C   UNL     1      -6.711   0.013  31.230  0.00  0.00    -0.002 C 
ATOM      4  C   UNL     1      -7.673  -0.903  31.674  0.00  0.00    -0.021 C 
ATOM      5  C   UNL     1      -7.152  -2.281  31.377  0.00  0.00    +0.072 C 
ATOM      6  C   UNL     1      -8.831  -0.472  32.274  0.00  0.00    -0.004 C 
ATOM      7  C   UNL     1      -9.095   0.884  32.464  0.00  0.00    -0.000 C 
ATOM      8  C   UNL     1      -8.154   1.779  32.031  0.00  0.00    -0.000 C 
ATOM      9  C   UNL     1      -6.988   1.339  31.428  0.00  0.00    -0.003 C 
ENDROOT
BRANCH   1  10
ATOM     10  O   UNL     1      -4.837  -3.036  31.115  0.00  0.00    -0.447 OA
BRANCH  10  11
ATOM     11  C   UNL     1      -4.297  -4.000  31.939  0.00  0.00    +0.342 C 
ATOM     12  O   UNL     1      -4.661  -3.988  33.137  0.00  0.00    -0.245 OA
BRANCH  11  17
ATOM     13  N   UNL     1      -1.674  -5.788  29.932  0.00  0.00    -0.287 N 
ATOM     14  C   UNL     1      -1.558  -7.009  30.657  0.00  0.00    +0.125 C 
ATOM     15  C   UNL     1      -2.279  -7.242  31.725  0.00  0.00    +0.073 C 
ATOM     16  C   UNL     1      -3.241  -6.257  32.226  0.00  0.00    +0.012 C 
ATOM     17  C   UNL     1      -3.333  -5.004  31.450  0.00  0.00    +0.090 C 
ATOM     18  C   UNL     1      -2.598  -4.812  30.394  0.00  0.00    +0.069 C 
BRANCH  15  19
ATOM     19  C   UNL     1      -2.167  -8.503  32.480  0.00  0.00    +0.336 C 
ATOM     20  O   UNL     1      -1.357  -9.403  32.113  0.00  0.00    -0.245 OA
BRANCH  19  21
ATOM     21  O   UNL     1      -2.924  -8.767  33.609  0.00  0.00    -0.477 OA
ATOM     22  H   UNL     1      -3.538  -8.131  33.920  0.00  0.00    +0.295 HD
ENDBRANCH  19  21
ENDBRANCH  15  19
BRANCH  13  23
ATOM     23  C   UNL     1      -0.870  -5.543  28.754  0.00  0.00    +0.184 C 
BRANCH  23  24
ATOM     24  N   UNL     1       0.528  -5.613  29.144  0.00  0.00    -0.196 NA
ATOM     25  C   UNL     1       1.086  -4.280  29.283  0.00  0.00    +0.109 C 
ENDBRANCH  23  24
ENDBRANCH  13  23
ENDBRANCH  11  17
ENDBRANCH  10  11
ENDBRANCH   1  10
BRANCH   2  26
ATOM     26  N   UNL     1      -4.323  -0.101  30.720  0.00  0.00    -0.178 N 
BRANCH  26  27
ATOM     27  C   UNL     1      -3.926   0.827  29.726  0.00  0.00    +0.154 C 
ATOM     28  S   UNL     1      -4.987   1.543  28.709  0.00  0.00    -0.017 S 
BRANCH  27  29
ATOM     29  N   UNL     1      -2.541   1.178  29.534  0.00  0.00    -0.339 N 
ATOM     30  H   UNL     1      -1.848   0.783  30.112  0.00  0.00    +0.144 HD
ATOM     31  H   UNL     1      -2.288   1.812  28.825  0.00  0.00    +0.144 HD
ENDBRANCH  27  29
ENDBRANCH  26  27
BRANCH  26  32
ATOM     32  O   UNL     1      -3.485  -0.341  31.743  0.00  0.00    -0.292 OA
ATOM     33  H   UNL     1      -3.884  -0.992  32.342  0.00  0.00    +0.242 HD
ENDBRANCH  26  32
ENDBRANCH   2  26
TORSDOF 11
