REMARK  Name = =
REMARK  6 active torsions:
REMARK  status: ('A' for Active; 'I' for Inactive)
REMARK    1  A    between atoms: N_1  and  N_21
REMARK    2  A    between atoms: C_2  and  C_15
REMARK    3  A    between atoms: C_5  and  C_8
REMARK    4  A    between atoms: N_17  and  N_18
REMARK    5  A    between atoms: N_21  and  C_22
REMARK    6  A    between atoms: C_30  and  O_32
REMARK                            x       y       z     vdW  Elec       q    Type
REMARK                         _______ _______ _______ _____ _____    ______ ____
ROOT
ATOM      1  N   UNL     1       4.662 -13.696  21.434  0.00  0.00    -0.203 N 
ATOM      2  C   UNL     1       5.274 -14.865  20.822  0.00  0.00    +0.172 C 
ATOM      3  C   UNL     1       5.024 -14.617  19.294  0.00  0.00    +0.032 C 
ATOM      4  C   UNL     1       5.965 -13.516  18.923  0.00  0.00    +0.011 C 
ATOM      5  C   UNL     1       5.620 -12.199  19.631  0.00  0.00    +0.078 C 
ATOM      6  C   UNL     1       5.197 -12.421  21.009  0.00  0.00    +0.241 C 
ATOM      7  O   UNL     1       5.278 -11.527  21.860  0.00  0.00    -0.273 OA
ENDROOT
BRANCH   5   8
ATOM      8  C   UNL     1       6.738 -11.267  19.392  0.00  0.00    +0.009 C 
ATOM      9  C   UNL     1       6.684  -9.933  20.028  0.00  0.00    +0.000 C 
ATOM     10  C   UNL     1       6.706  -8.898  18.891  0.00  0.00    +0.000 C 
ATOM     11  C   UNL     1       6.004  -9.724  17.802  0.00  0.00    +0.000 C 
ATOM     12  C   UNL     1       6.887 -10.979  17.887  0.00  0.00    +0.000 C 
ATOM     13  C   UNL     1       8.255 -10.342  17.736  0.00  0.00    +0.000 C 
ATOM     14  C   UNL     1       8.140  -8.959  18.344  0.00  0.00    +0.000 C 
ENDBRANCH   5   8
BRANCH   2  15
ATOM     15  C   UNL     1       6.735 -14.936  20.955  0.00  0.00    +0.258 C 
ATOM     16  O   UNL     1       7.506 -15.760  20.430  0.00  0.00    -0.272 OA
ATOM     17  N   UNL     1       7.367 -13.947  21.781  0.00  0.00    -0.232 N 
ATOM     18  H   UNL     1       6.817 -13.263  22.227  0.00  0.00    +0.173 HD
BRANCH  17  19
ATOM     19  N   UNL     1       8.756 -13.941  21.961  0.00  0.00    -0.226 N 
ATOM     20  C   UNL     1       9.318 -13.770  23.255  0.00  0.00    +0.316 C 
ATOM     21  O   UNL     1       8.616 -13.615  24.294  0.00  0.00    -0.264 OA
ATOM     22  H   UNL     1       9.349 -14.056  21.183  0.00  0.00    +0.173 HD
ENDBRANCH  17  19
ENDBRANCH   2  15
BRANCH   1  23
ATOM     23  N   UNL     1       3.605 -13.830  22.293  0.00  0.00    -0.258 N 
ATOM     24  H   UNL     1       3.420 -13.021  22.822  0.00  0.00    +0.170 HD
BRANCH  23  25
ATOM     25  C   UNL     1       2.742 -14.885  22.564  0.00  0.00    +0.082 C 
ATOM     26  C   UNL     1       1.554 -14.750  23.203  0.00  0.00    +0.096 C 
ATOM     27  N   UNL     1       1.182 -13.547  23.624  0.00  0.00    -0.243 NA
ATOM     28  C   UNL     1       0.050 -13.250  24.270  0.00  0.00    +0.099 C 
ATOM     29  C   UNL     1      -0.819 -14.285  24.528  0.00  0.00    +0.021 C 
ATOM     30  C   UNL     1      -0.502 -15.551  24.124  0.00  0.00    +0.003 C 
ATOM     31  C   UNL     1       0.680 -15.793  23.462  0.00  0.00    +0.022 C 
ATOM     32  C   UNL     1       1.029 -17.062  23.048  0.00  0.00    +0.038 C 
ATOM     33  C   UNL     1       2.220 -17.246  22.398  0.00  0.00    +0.135 C 
ATOM     34  C   UNL     1       3.070 -16.194  22.152  0.00  0.00    +0.054 C 
BRANCH  33  35
ATOM     35  O   UNL     1       2.555 -18.548  21.983  0.00  0.00    -0.505 OA
ATOM     36  H   UNL     1       1.970 -19.260  22.155  0.00  0.00    +0.292 HD
ENDBRANCH  33  35
ENDBRANCH  23  25
ENDBRANCH   1  23
TORSDOF 6
