REMARK  Name = =
REMARK  8 active torsions:
REMARK  status: ('A' for Active; 'I' for Inactive)
REMARK    1  A    between atoms: N_1  and  N_24
REMARK    2  A    between atoms: C_2  and  C_18
REMARK    3  A    between atoms: C_5  and  C_8
REMARK    4  A    between atoms: C_14  and  N_15
REMARK    5  A    between atoms: N_15  and  N_16
REMARK    6  A    between atoms: N_20  and  N_21
REMARK    7  A    between atoms: N_24  and  C_25
REMARK    8  A    between atoms: C_33  and  O_35
REMARK                            x       y       z     vdW  Elec       q    Type
REMARK                         _______ _______ _______ _____ _____    ______ ____
ROOT
ATOM      1  N   UNL     1       4.282 -14.701  22.605  0.00  0.00    -0.203 N 
ATOM      2  C   UNL     1       4.984 -15.817  23.152  0.00  0.00    +0.172 C 
ATOM      3  C   UNL     1       4.113 -17.052  23.255  0.00  0.00    +0.032 C 
ATOM      4  C   UNL     1       2.831 -16.843  22.462  0.00  0.00    +0.011 C 
ATOM      5  C   UNL     1       2.079 -15.720  23.194  0.00  0.00    +0.078 C 
ATOM      6  C   UNL     1       2.875 -14.493  22.829  0.00  0.00    +0.241 C 
ATOM      7  O   UNL     1       2.346 -13.379  22.728  0.00  0.00    -0.273 OA
ENDROOT
BRANCH   5   8
ATOM      8  C   UNL     1       0.675 -15.627  22.693  0.00  0.00    +0.009 C 
ATOM      9  C   UNL     1      -0.337 -15.363  23.764  0.00  0.00    +0.002 C 
ATOM     10  C   UNL     1      -1.133 -16.664  23.949  0.00  0.00    +0.016 C 
ATOM     11  C   UNL     1      -0.097 -17.685  23.461  0.00  0.00    +0.001 C 
ATOM     12  C   UNL     1       0.277 -16.989  22.156  0.00  0.00    +0.002 C 
ATOM     13  C   UNL     1      -1.137 -16.770  21.586  0.00  0.00    +0.017 C 
ATOM     14  C   UNL     1      -2.077 -16.732  22.737  0.00  0.00    +0.072 C 
BRANCH  14  15
ATOM     15  N   UNL     1      -3.030 -15.681  22.752  0.00  0.00    -0.201 NA
ATOM     16  H   UNL     1      -2.699 -14.998  23.434  0.00  0.00    +0.145 HD
BRANCH  15  17
ATOM     17  N   UNL     1      -3.327 -14.974  21.596  0.00  0.00    +0.029 NA
ATOM     18  O   UNL     1      -4.228 -15.414  20.828  0.00  0.00    -0.082 OA
ENDBRANCH  15  17
ENDBRANCH  14  15
ENDBRANCH   5   8
BRANCH   2  19
ATOM     19  C   UNL     1       5.533 -15.543  24.514  0.00  0.00    +0.258 C 
ATOM     20  O   UNL     1       6.355 -16.355  25.009  0.00  0.00    -0.272 OA
ATOM     21  N   UNL     1       5.181 -14.411  25.294  0.00  0.00    -0.232 N 
ATOM     22  H   UNL     1       4.539 -13.765  24.921  0.00  0.00    +0.173 HD
BRANCH  21  23
ATOM     23  N   UNL     1       5.706 -14.172  26.570  0.00  0.00    -0.226 N 
ATOM     24  C   UNL     1       6.419 -12.994  26.926  0.00  0.00    +0.316 C 
ATOM     25  O   UNL     1       6.561 -12.130  25.995  0.00  0.00    -0.264 OA
ATOM     26  H   UNL     1       5.574 -14.860  27.262  0.00  0.00    +0.173 HD
ENDBRANCH  21  23
ENDBRANCH   2  19
BRANCH   1  27
ATOM     27  N   UNL     1       4.936 -13.763  21.822  0.00  0.00    -0.258 N 
ATOM     28  H   UNL     1       5.514 -13.106  22.273  0.00  0.00    +0.170 HD
BRANCH  27  29
ATOM     29  C   UNL     1       4.822 -13.693  20.400  0.00  0.00    +0.082 C 
ATOM     30  C   UNL     1       4.667 -12.471  19.756  0.00  0.00    +0.096 C 
ATOM     31  N   UNL     1       4.610 -11.327  20.478  0.00  0.00    -0.243 NA
ATOM     32  C   UNL     1       4.453 -10.152  19.839  0.00  0.00    +0.099 C 
ATOM     33  C   UNL     1       4.343 -10.030  18.474  0.00  0.00    +0.021 C 
ATOM     34  C   UNL     1       4.399 -11.176  17.719  0.00  0.00    +0.003 C 
ATOM     35  C   UNL     1       4.559 -12.369  18.386  0.00  0.00    +0.022 C 
ATOM     36  C   UNL     1       4.615 -13.542  17.662  0.00  0.00    +0.038 C 
ATOM     37  C   UNL     1       4.769 -14.748  18.293  0.00  0.00    +0.135 C 
ATOM     38  C   UNL     1       4.877 -14.855  19.679  0.00  0.00    +0.054 C 
BRANCH  37  39
ATOM     39  O   UNL     1       4.823 -15.915  17.554  0.00  0.00    -0.505 OA
ATOM     40  H   UNL     1       4.754 -15.882  16.620  0.00  0.00    +0.292 HD
ENDBRANCH  37  39
ENDBRANCH  27  29
ENDBRANCH   1  27
TORSDOF 8
