REMARK  Name = =
REMARK  12 active torsions:
REMARK  status: ('A' for Active; 'I' for Inactive)
REMARK    1  A    between atoms: C_1  and  C_7
REMARK    2  A    between atoms: C_1  and  O_21
REMARK    3  A    between atoms: N_3  and  C_18
REMARK    4  A    between atoms: C_4  and  C_9
REMARK    5  A    between atoms: C_5  and  C_15
REMARK    6  A    between atoms: C_15  and  O_17
REMARK    7  A    between atoms: C_18  and  N_19
REMARK    8  A    between atoms: O_21  and  C_22
REMARK    9  A    between atoms: C_23  and  N_31
REMARK   10  A    between atoms: N_31  and  C_32
REMARK   11  A    between atoms: N_31  and  O_35
REMARK   12  A    between atoms: C_32  and  N_34
REMARK                            x       y       z     vdW  Elec       q    Type
REMARK                         _______ _______ _______ _____ _____    ______ ____
ROOT
ATOM      1  C   UNL     1      -4.254  -3.797  32.024  0.00  0.00    +0.342 C 
ATOM      2  O   UNL     1      -4.471  -4.589  32.986  0.00  0.00    -0.245 OA
ENDROOT
BRANCH   1   7
ATOM      3  N   UNL     1      -7.145  -1.393  32.109  0.00  0.00    -0.284 N 
ATOM      4  C   UNL     1      -6.644  -0.269  31.411  0.00  0.00    +0.143 C 
ATOM      5  C   UNL     1      -5.391  -0.307  30.931  0.00  0.00    +0.077 C 
ATOM      6  C   UNL     1      -4.507  -1.488  31.098  0.00  0.00    +0.012 C 
ATOM      7  C   UNL     1      -5.098  -2.603  31.830  0.00  0.00    +0.090 C 
ATOM      8  C   UNL     1      -6.330  -2.549  32.297  0.00  0.00    +0.069 C 
BRANCH   4   9
ATOM      9  C   UNL     1      -7.497   0.897  31.146  0.00  0.00    +0.085 C 
ATOM     10  N   UNL     1      -8.461   0.853  30.186  0.00  0.00    -0.226 NA
ATOM     11  C   UNL     1      -9.257   1.888  29.880  0.00  0.00    +0.199 C 
ATOM     12  N   UNL     1      -9.094   3.035  30.557  0.00  0.00    -0.222 NA
ATOM     13  C   UNL     1      -8.175   3.183  31.522  0.00  0.00    +0.102 C 
ATOM     14  C   UNL     1      -7.360   2.086  31.818  0.00  0.00    +0.037 C 
ENDBRANCH   4   9
BRANCH   5  15
ATOM     15  C   UNL     1      -4.800   0.834  30.250  0.00  0.00    +0.336 C 
ATOM     16  O   UNL     1      -3.565   0.771  29.957  0.00  0.00    -0.245 OA
BRANCH  15  17
ATOM     17  O   UNL     1      -5.444   1.990  29.886  0.00  0.00    -0.477 OA
ATOM     18  H   UNL     1      -6.356   2.098  30.074  0.00  0.00    +0.295 HD
ENDBRANCH  15  17
ENDBRANCH   5  15
BRANCH   3  19
ATOM     19  C   UNL     1      -8.517  -1.364  32.617  0.00  0.00    +0.184 C 
BRANCH  19  20
ATOM     20  N   UNL     1      -8.960  -2.725  32.932  0.00  0.00    -0.196 NA
ATOM     21  C   UNL     1      -9.739  -3.278  31.836  0.00  0.00    +0.109 C 
ENDBRANCH  19  20
ENDBRANCH   3  19
ENDBRANCH   1   7
BRANCH   1  22
ATOM     22  O   UNL     1      -3.210  -4.111  31.195  0.00  0.00    -0.447 OA
BRANCH  22  23
ATOM     23  C   UNL     1      -2.321  -5.179  31.311  0.00  0.00    +0.198 C 
ATOM     24  C   UNL     1      -2.299  -6.100  30.146  0.00  0.00    +0.164 C 
ATOM     25  C   UNL     1      -1.192  -5.570  29.303  0.00  0.00    -0.002 C 
ATOM     26  C   UNL     1      -0.353  -4.787  30.056  0.00  0.00    -0.021 C 
ATOM     27  C   UNL     1      -0.882  -4.771  31.436  0.00  0.00    +0.072 C 
ATOM     28  C   UNL     1       0.734  -4.205  29.450  0.00  0.00    -0.004 C 
ATOM     29  C   UNL     1       0.994  -4.393  28.111  0.00  0.00    -0.000 C 
ATOM     30  C   UNL     1       0.162  -5.176  27.344  0.00  0.00    -0.000 C 
ATOM     31  C   UNL     1      -0.921  -5.751  27.965  0.00  0.00    -0.003 C 
BRANCH  24  32
ATOM     32  N   UNL     1      -1.971  -7.473  30.527  0.00  0.00    -0.178 N 
BRANCH  32  33
ATOM     33  C   UNL     1      -2.842  -8.286  31.286  0.00  0.00    +0.154 C 
ATOM     34  S   UNL     1      -4.322  -7.810  31.776  0.00  0.00    -0.017 S 
BRANCH  33  35
ATOM     35  N   UNL     1      -2.433  -9.590  31.649  0.00  0.00    -0.339 N 
ATOM     36  H   UNL     1      -1.547  -9.922  31.376  0.00  0.00    +0.144 HD
ATOM     37  H   UNL     1      -3.034 -10.166  32.175  0.00  0.00    +0.144 HD
ENDBRANCH  33  35
ENDBRANCH  32  33
BRANCH  32  38
ATOM     38  O   UNL     1      -0.772  -8.020  30.143  0.00  0.00    -0.292 OA
ATOM     39  H   UNL     1      -0.268  -7.368  29.632  0.00  0.00    +0.242 HD
ENDBRANCH  32  38
ENDBRANCH  24  32
ENDBRANCH  22  23
ENDBRANCH   1  22
TORSDOF 12
