REMARK  Name = =
REMARK  14 active torsions:
REMARK  status: ('A' for Active; 'I' for Inactive)
REMARK    1  A    between atoms: S_1  and  C_2
REMARK    2  A    between atoms: S_1  and  C_14
REMARK    3  A    between atoms: S_1  and  P_32
REMARK    4  A    between atoms: C_2  and  O_9
REMARK    5  A    between atoms: O_9  and  P_10
REMARK    6  A    between atoms: P_10  and  O_12
REMARK    7  A    between atoms: P_10  and  O_13
REMARK    8  A    between atoms: C_14  and  C_17
REMARK    9  A    between atoms: C_17  and  C_20
REMARK   10  A    between atoms: C_18  and  C_30
REMARK   11  A    between atoms: S_19  and  N_26
REMARK   12  A    between atoms: C_27  and  O_29
REMARK   13  A    between atoms: P_32  and  O_34
REMARK   14  A    between atoms: P_32  and  O_35
REMARK                            x       y       z     vdW  Elec       q    Type
REMARK                         _______ _______ _______ _____ _____    ______ ____
ROOT
ATOM      1  S   UNL     1     -22.605 -40.885  21.975  0.00  0.00    -0.089 S 
ATOM      2  H   UNL     1     -22.440 -41.655  20.866  0.00  0.00    +0.099 HD
ENDROOT
BRANCH   1   3
ATOM      3  C   UNL     1     -21.046 -40.588  22.028  0.00  0.00    +0.232 C 
ATOM      4  O   UNL     1     -20.729 -39.584  23.002  0.00  0.00    -0.319 OA
ATOM      5  C   UNL     1     -19.398 -39.539  23.304  0.00  0.00    +0.209 C 
ATOM      6  C   UNL     1     -18.500 -40.272  22.389  0.00  0.00    +0.181 C 
ATOM      7  O   UNL     1     -17.534 -39.791  21.840  0.00  0.00    -0.293 OA
ATOM      8  C   UNL     1     -18.833 -41.720  22.137  0.00  0.00    +0.073 C 
ATOM      9  C   UNL     1     -20.286 -41.839  22.630  0.00  0.00    +0.075 C 
BRANCH   3  10
ATOM     10  O   UNL     1     -20.354 -40.269  20.957  0.00  0.00    -0.245 OA
BRANCH  10  11
ATOM     11  P   UNL     1     -20.392 -38.991  19.993  0.00  0.00    +0.475 P 
ATOM     12  O   UNL     1     -20.786 -37.669  20.639  0.00  0.00    -0.227 OA
BRANCH  11  13
ATOM     13  O   UNL     1     -21.338 -39.188  18.616  0.00  0.00    -0.303 OA
ATOM     14  H   UNL     1     -22.249 -39.395  18.877  0.00  0.00    +0.222 HD
ENDBRANCH  11  13
BRANCH  11  15
ATOM     15  O   UNL     1     -18.806 -38.628  19.360  0.00  0.00    -0.303 OA
ATOM     16  H   UNL     1     -18.187 -38.497  20.095  0.00  0.00    +0.222 HD
ENDBRANCH  11  15
ENDBRANCH  10  11
ENDBRANCH   3  10
ENDBRANCH   1   3
BRANCH   1  17
ATOM     17  C   UNL     1     -23.284 -41.799  23.233  0.00  0.00    +0.052 C 
ATOM     18  C   UNL     1     -24.375 -40.857  23.918  0.00  0.00    +0.014 C 
ATOM     19  C   UNL     1     -23.282 -41.463  24.667  0.00  0.00    +0.014 C 
BRANCH  17  20
ATOM     20  C   UNL     1     -23.892 -43.185  22.967  0.00  0.00    -0.015 C 
ATOM     21  C   UNL     1     -24.251 -43.462  21.750  0.00  0.00    -0.006 C 
BRANCH  20  23
ATOM     22  S   UNL     1     -22.554 -44.697  24.626  0.00  0.00    -0.148 S 
ATOM     23  C   UNL     1     -24.114 -44.082  24.091  0.00  0.00    +0.099 C 
ATOM     24  N   UNL     1     -24.759 -45.329  23.883  0.00  0.00    -0.263 NA
ATOM     25  C   UNL     1     -23.961 -46.353  23.340  0.00  0.00    +0.084 C 
ATOM     26  C   UNL     1     -22.700 -46.278  23.582  0.00  0.00    +0.072 C 
ATOM     27  C   UNL     1     -26.032 -44.829  24.435  0.00  0.00    +0.076 C 
ATOM     28  C   UNL     1     -25.103 -43.789  25.147  0.00  0.00    +0.046 C 
ATOM     29  H   UNL     1     -22.432 -44.662  25.980  0.00  0.00    +0.103 HD
BRANCH  22  30
ATOM     30  N   UNL     1     -21.106 -43.945  24.642  0.00  0.00    -0.243 N 
ATOM     31  C   UNL     1     -20.389 -43.526  25.807  0.00  0.00    +0.406 C 
ATOM     32  O   UNL     1     -20.914 -43.752  26.925  0.00  0.00    -0.226 OA
ATOM     33  H   UNL     1     -20.687 -43.763  23.770  0.00  0.00    +0.164 HD
BRANCH  31  34
ATOM     34  O   UNL     1     -19.145 -42.884  25.698  0.00  0.00    -0.466 OA
ATOM     35  H   UNL     1     -18.772 -42.726  24.853  0.00  0.00    +0.297 HD
ENDBRANCH  31  34
ENDBRANCH  22  30
ENDBRANCH  20  23
BRANCH  21  36
ATOM     36  C   UNL     1     -24.917 -44.572  21.148  0.00  0.00    -0.001 C 
ATOM     37  C   UNL     1     -25.115 -44.540  19.806  0.00  0.00    -0.000 C 
ENDBRANCH  21  36
ENDBRANCH  17  20
ENDBRANCH   1  17
BRANCH   1  38
ATOM     38  P   UNL     1     -23.798 -39.605  21.494  0.00  0.00    +0.372 P 
ATOM     39  O   UNL     1     -23.761 -38.334  22.339  0.00  0.00    -0.248 OA
BRANCH  38  40
ATOM     40  O   UNL     1     -25.398 -40.204  21.824  0.00  0.00    -0.317 OA
ATOM     41  H   UNL     1     -25.462 -40.457  22.758  0.00  0.00    +0.220 HD
ENDBRANCH  38  40
BRANCH  38  42
ATOM     42  O   UNL     1     -23.841 -39.209  19.847  0.00  0.00    -0.317 OA
ATOM     43  H   UNL     1     -23.864 -40.023  19.319  0.00  0.00    +0.220 HD
ENDBRANCH  38  42
ENDBRANCH   1  38
TORSDOF 14
