MODEL 1
REMARK VINA RESULT:   -10.562      0.000      0.000
REMARK INTER + INTRA:         -16.438
REMARK INTER:                 -13.958
REMARK INTRA:                  -2.479
REMARK UNBOUND:                -2.479
REMARK  Name = =
REMARK  6 active torsions:
REMARK  status: ('A' for Active; 'I' for Inactive)
REMARK    1  A    between atoms: C_1  and  C_17
REMARK    2  A    between atoms: C_1  and  C_40
REMARK    3  A    between atoms: N_16  and  C_22
REMARK    4  A    between atoms: N_19  and  C_33
REMARK    5  A    between atoms: C_34  and  O_39
REMARK    6  A    between atoms: C_40  and  C_45
REMARK                            x       y       z     vdW  Elec       q    Type
REMARK                         _______ _______ _______ _____ _____    ______ ____
ROOT
ATOM      1  C   UNL     1     -22.555 -41.002  24.369  0.00  0.00    +0.150 C 
ATOM      2  O   UNL     1     -23.599 -41.519  23.530  0.00  0.00    -0.351 OA
ATOM      3  C   UNL     1     -23.202 -41.424  22.196  0.00  0.00    +0.174 C 
ATOM      4  C   UNL     1     -23.531 -40.034  21.708  0.00  0.00    +0.174 C 
ATOM      5  O   UNL     1     -22.996 -39.792  20.448  0.00  0.00    -0.326 OA
ATOM      6  C   UNL     1     -23.157 -38.449  20.178  0.00  0.00    +0.264 C 
ATOM      7  O   UNL     1     -22.993 -38.096  18.846  0.00  0.00    -0.321 OA
ATOM      8  C   UNL     1     -21.709 -38.362  18.384  0.00  0.00    +0.209 C 
ATOM      9  C   UNL     1     -20.831 -38.845  19.467  0.00  0.00    +0.183 C 
ATOM     10  O   UNL     1     -20.170 -39.836  19.342  0.00  0.00    -0.293 OA
ATOM     11  C   UNL     1     -20.815 -38.004  20.732  0.00  0.00    +0.102 C 
ATOM     12  C   UNL     1     -22.235 -37.695  21.095  0.00  0.00    +0.179 C 
ATOM     13  O   UNL     1     -22.580 -37.889  22.401  0.00  0.00    -0.350 OA
ATOM     14  C   UNL     1     -22.984 -39.114  22.761  0.00  0.00    +0.147 C 
ATOM     15  C   UNL     1     -22.050 -39.811  23.697  0.00  0.00    +0.065 C 
ENDROOT
BRANCH   1  17
ATOM     16  N   UNL     1     -20.595 -42.156  25.524  0.00  0.00    -0.264 NA
ATOM     17  C   UNL     1     -21.636 -42.155  24.594  0.00  0.00    +0.107 C 
ATOM     18  C   UNL     1     -21.543 -43.280  23.642  0.00  0.00    +0.109 C 
ATOM     19  N   UNL     1     -21.880 -44.489  24.427  0.00  0.00    -0.302 N 
ATOM     20  C   UNL     1     -21.328 -44.523  25.767  0.00  0.00    +0.108 C 
ATOM     21  C   UNL     1     -20.389 -43.450  26.121  0.00  0.00    +0.094 C 
BRANCH  16  22
ATOM     22  C   UNL     1     -19.326 -41.617  25.211  0.00  0.00    +0.120 C 
ATOM     23  C   UNL     1     -18.366 -42.546  24.447  0.00  0.00    +0.029 C 
ATOM     24  C   UNL     1     -16.982 -41.824  24.487  0.00  0.00    +0.028 C 
ATOM     25  C   UNL     1     -16.474 -42.174  25.844  0.00  0.00    -0.019 C 
ATOM     26  C   UNL     1     -17.360 -41.947  26.884  0.00  0.00    +0.032 C 
ATOM     27  C   UNL     1     -17.002 -42.245  28.179  0.00  0.00    +0.003 C 
ATOM     28  C   UNL     1     -15.751 -42.772  28.423  0.00  0.00    +0.000 C 
ATOM     29  C   UNL     1     -14.879 -42.998  27.374  0.00  0.00    -0.000 C 
ATOM     30  C   UNL     1     -15.227 -42.698  26.053  0.00  0.00    -0.004 C 
ATOM     31  C   UNL     1     -18.652 -41.390  26.529  0.00  0.00    +0.187 C 
ATOM     32  O   UNL     1     -19.238 -40.677  27.394  0.00  0.00    -0.290 OA
ENDBRANCH  16  22
BRANCH  19  33
ATOM     33  C   UNL     1     -22.685 -45.544  24.029  0.00  0.00    +0.082 C 
ATOM     34  C   UNL     1     -24.035 -45.408  23.794  0.00  0.00    +0.147 C 
ATOM     35  C   UNL     1     -24.816 -46.496  23.415  0.00  0.00    +0.038 C 
ATOM     36  C   UNL     1     -24.275 -47.754  23.256  0.00  0.00    +0.003 C 
ATOM     37  C   UNL     1     -22.940 -47.892  23.486  0.00  0.00    +0.001 C 
ATOM     38  C   UNL     1     -22.166 -46.833  23.859  0.00  0.00    +0.018 C 
BRANCH  34  39
ATOM     39  O   UNL     1     -24.696 -44.195  23.913  0.00  0.00    -0.504 OA
ATOM     40  H   UNL     1     -24.229 -43.393  23.782  0.00  0.00    +0.292 HD
ENDBRANCH  34  39
ENDBRANCH  19  33
ENDBRANCH   1  17
BRANCH   1  41
ATOM     41  C   UNL     1     -23.394 -40.754  25.625  0.00  0.00    +0.213 C 
ATOM     42  O   UNL     1     -24.550 -40.196  25.169  0.00  0.00    -0.470 OA
ATOM     43  C   UNL     1     -24.820 -38.994  25.717  0.00  0.00    +0.168 C 
ATOM     44  C   UNL     1     -23.656 -38.490  26.468  0.00  0.00    +0.018 C 
ATOM     45  C   UNL     1     -22.710 -39.664  26.457  0.00  0.00    +0.079 C 
BRANCH  41  46
ATOM     46  C   UNL     1     -23.636 -41.851  26.514  0.00  0.00    +0.197 A 
ATOM     47  N   UNL     1     -24.374 -42.974  26.540  0.00  0.00    -0.109 NA
ATOM     48  N   UNL     1     -24.205 -43.652  27.643  0.00  0.00    -0.023 NA
ATOM     49  N   UNL     1     -23.340 -42.958  28.353  0.00  0.00    -0.047 NA
ATOM     50  N   UNL     1     -22.973 -41.878  27.721  0.00  0.00    -0.239 N 
ATOM     51  H   UNL     1     -22.336 -41.202  28.048  0.00  0.00    +0.192 HD
ENDBRANCH  41  46
ENDBRANCH   1  41
TORSDOF 6
ENDMDL
