REMARK  Name = =
REMARK  0 active torsions:
REMARK  status: ('A' for Active; 'I' for Inactive)
REMARK                            x       y       z     vdW  Elec       q    Type
REMARK                         _______ _______ _______ _____ _____    ______ ____
ROOT
ATOM      1  N   UNL     1      -2.752  -4.967  30.203  0.00  0.00    -0.274 N 
ATOM      2  C   UNL     1      -1.533  -5.551  29.658  0.00  0.00    +0.076 C 
ATOM      3  C   UNL     1      -0.382  -4.674  29.853  0.00  0.00    +0.020 C 
ATOM      4  C   UNL     1       0.757  -5.215  30.646  0.00  0.00    +0.002 C 
ATOM      5  C   UNL     1       0.962  -6.680  30.541  0.00  0.00    +0.000 C 
ATOM      6  C   UNL     1      -0.275  -7.495  30.665  0.00  0.00    +0.002 C 
ATOM      7  C   UNL     1      -1.512  -6.913  30.156  0.00  0.00    +0.020 C 
ATOM      8  C   UNL     1      -2.671  -7.043  31.145  0.00  0.00    +0.023 C 
ATOM      9  C   UNL     1      -2.848  -5.574  31.541  0.00  0.00    +0.094 C 
ATOM     10  C   UNL     1      -3.638  -4.042  29.601  0.00  0.00    +0.303 C 
ATOM     11  O   UNL     1      -4.636  -3.654  30.226  0.00  0.00    -0.265 OA
ENDROOT
TORSDOF 0
