REMARK  Name = =
REMARK  1 active torsions:
REMARK  status: ('A' for Active; 'I' for Inactive)
REMARK    1  A    between atoms: C_6  and  N_12
REMARK                            x       y       z     vdW  Elec       q    Type
REMARK                         _______ _______ _______ _____ _____    ______ ____
ROOT
ATOM      1  N   UNL     1      -3.245  -4.615  30.443  0.00  0.00    -0.274 N 
ATOM      2  C   UNL     1      -2.067  -5.002  29.753  0.00  0.00    +0.078 C 
ATOM      3  C   UNL     1      -0.910  -4.074  29.904  0.00  0.00    +0.020 C 
ATOM      4  C   UNL     1       0.263  -4.685  29.171  0.00  0.00    +0.004 C 
ATOM      5  C   UNL     1       0.673  -5.981  29.772  0.00  0.00    +0.028 C 
ATOM      6  C   UNL     1      -0.422  -6.836  30.279  0.00  0.00    +0.148 C 
ATOM      7  C   UNL     1      -1.797  -6.425  29.966  0.00  0.00    +0.046 C 
ATOM      8  C   UNL     1      -2.767  -6.831  31.069  0.00  0.00    +0.025 C 
ATOM      9  C   UNL     1      -3.419  -5.550  31.544  0.00  0.00    +0.094 C 
ATOM     10  C   UNL     1      -4.068  -3.518  30.091  0.00  0.00    +0.303 C 
ATOM     11  O   UNL     1      -5.098  -3.265  30.777  0.00  0.00    -0.265 OA
ENDROOT
BRANCH   6  12
ATOM     12  N   UNL     1      -0.240  -8.188  29.762  0.00  0.00    -0.058 NA
ATOM     13  O   UNL     1      -1.181  -8.928  29.746  0.00  0.00    -0.148 OA
ENDBRANCH   6  12
TORSDOF 1
