REMARK  Name = =
REMARK  4 active torsions:
REMARK  status: ('A' for Active; 'I' for Inactive)
REMARK    1  A    between atoms: C_6  and  N_12
REMARK    2  A    between atoms: C_10  and  C_14
REMARK    3  A    between atoms: C_14  and  C_16
REMARK    4  A    between atoms: C_16  and  O_18
REMARK                            x       y       z     vdW  Elec       q    Type
REMARK                         _______ _______ _______ _____ _____    ______ ____
ROOT
ATOM      1  N   UNL     1      -0.443  -7.067  30.703  0.00  0.00    -0.275 N 
ATOM      2  C   UNL     1      -1.800  -7.106  31.202  0.00  0.00    +0.078 C 
ATOM      3  C   UNL     1      -2.398  -8.467  31.166  0.00  0.00    +0.020 C 
ATOM      4  C   UNL     1      -2.963  -8.954  32.451  0.00  0.00    +0.004 C 
ATOM      5  C   UNL     1      -3.647  -7.871  33.256  0.00  0.00    +0.028 C 
ATOM      6  C   UNL     1      -2.789  -6.678  33.481  0.00  0.00    +0.148 C 
ATOM      7  C   UNL     1      -1.680  -6.480  32.537  0.00  0.00    +0.046 C 
ATOM      8  C   UNL     1      -0.327  -6.888  33.007  0.00  0.00    +0.025 C 
ATOM      9  C   UNL     1       0.411  -7.450  31.782  0.00  0.00    +0.094 C 
ATOM     10  C   UNL     1      -0.078  -6.712  29.388  0.00  0.00    +0.295 C 
ATOM     11  O   UNL     1      -0.991  -6.381  28.543  0.00  0.00    -0.266 OA
ENDROOT
BRANCH   6  12
ATOM     12  N   UNL     1      -3.622  -5.487  33.566  0.00  0.00    -0.058 NA
ATOM     13  O   UNL     1      -3.939  -4.861  32.610  0.00  0.00    -0.148 OA
ENDBRANCH   6  12
BRANCH  10  14
ATOM     14  C   UNL     1       1.282  -6.679  28.865  0.00  0.00    +0.323 C 
ATOM     15  O   UNL     1       2.061  -5.715  29.160  0.00  0.00    -0.275 OA
BRANCH  14  16
ATOM     16  C   UNL     1       1.782  -7.738  27.996  0.00  0.00    +0.382 C 
ATOM     17  O   UNL     1       1.200  -8.831  27.907  0.00  0.00    -0.241 OA
BRANCH  16  18
ATOM     18  O   UNL     1       2.925  -7.517  27.262  0.00  0.00    -0.475 OA
ATOM     19  H   UNL     1       3.370  -6.695  27.324  0.00  0.00    +0.296 HD
ENDBRANCH  16  18
ENDBRANCH  14  16
ENDBRANCH  10  14
TORSDOF 4
