REMARK  Name = =
REMARK  6 active torsions:
REMARK  status: ('A' for Active; 'I' for Inactive)
REMARK    1  A    between atoms: C_6  and  N_23
REMARK    2  A    between atoms: C_8  and  N_12
REMARK    3  A    between atoms: C_10  and  C_25
REMARK    4  A    between atoms: C_17  and  O_22
REMARK    5  A    between atoms: C_25  and  C_27
REMARK    6  A    between atoms: C_27  and  O_29
REMARK                            x       y       z     vdW  Elec       q    Type
REMARK                         _______ _______ _______ _____ _____    ______ ____
ROOT
ATOM      1  N   UNL     1      -0.961  -8.033  29.693  0.00  0.00    -0.273 N 
ATOM      2  C   UNL     1      -2.202  -7.531  30.234  0.00  0.00    +0.079 C 
ATOM      3  C   UNL     1      -3.203  -8.632  30.307  0.00  0.00    +0.020 C 
ATOM      4  C   UNL     1      -4.403  -8.206  31.147  0.00  0.00    +0.004 C 
ATOM      5  C   UNL     1      -3.856  -8.043  32.572  0.00  0.00    +0.028 C 
ATOM      6  C   UNL     1      -2.947  -6.848  32.534  0.00  0.00    +0.150 C 
ATOM      7  C   UNL     1      -1.820  -6.959  31.574  0.00  0.00    +0.064 C 
ATOM      8  C   UNL     1      -0.678  -7.803  32.033  0.00  0.00    +0.103 C 
ATOM      9  C   UNL     1       0.041  -8.125  30.734  0.00  0.00    +0.114 C 
ATOM     10  C   UNL     1      -0.731  -8.391  28.346  0.00  0.00    +0.295 C 
ATOM     11  O   UNL     1      -1.705  -8.261  27.527  0.00  0.00    -0.266 OA
ENDROOT
BRANCH   8  12
ATOM     12  N   UNL     1       0.203  -7.088  32.937  0.00  0.00    -0.254 N 
ATOM     13  C   UNL     1       1.240  -6.293  32.576  0.00  0.00    +0.162 A 
ATOM     14  N   UNL     1       1.689  -5.983  31.355  0.00  0.00    -0.197 NA
ATOM     15  C   UNL     1       2.748  -5.163  31.222  0.00  0.00    +0.217 A 
ATOM     16  N   UNL     1       3.349  -4.659  32.329  0.00  0.00    -0.178 NA
ATOM     17  C   UNL     1       2.937  -4.940  33.561  0.00  0.00    +0.245 A 
ATOM     18  C   UNL     1       1.851  -5.780  33.709  0.00  0.00    +0.167 A 
ATOM     19  N   UNL     1       1.163  -6.282  34.745  0.00  0.00    -0.220 NA
ATOM     20  C   UNL     1       0.173  -7.068  34.281  0.00  0.00    +0.169 C 
ATOM     21  N   UNL     1       3.242  -4.819  29.922  0.00  0.00    -0.327 N 
ATOM     22  H   UNL     1       2.807  -5.184  29.118  0.00  0.00    +0.145 HD
ATOM     23  H   UNL     1       4.016  -4.218  29.833  0.00  0.00    +0.145 HD
BRANCH  17  24
ATOM     24  O   UNL     1       3.535  -4.436  34.707  0.00  0.00    -0.491 OA
ATOM     25  H   UNL     1       4.274  -3.864  34.637  0.00  0.00    +0.294 HD
ENDBRANCH  17  24
ENDBRANCH   8  12
BRANCH   6  26
ATOM     26  N   UNL     1      -3.762  -5.711  32.160  0.00  0.00    -0.058 NA
ATOM     27  O   UNL     1      -4.171  -4.972  33.024  0.00  0.00    -0.148 OA
ENDBRANCH   6  26
BRANCH  10  28
ATOM     28  C   UNL     1       0.537  -8.889  27.856  0.00  0.00    +0.323 C 
ATOM     29  O   UNL     1       1.592  -8.351  28.256  0.00  0.00    -0.275 OA
BRANCH  28  30
ATOM     30  C   UNL     1       0.595  -9.992  26.917  0.00  0.00    +0.382 C 
ATOM     31  O   UNL     1      -0.471 -10.529  26.525  0.00  0.00    -0.241 OA
BRANCH  30  32
ATOM     32  O   UNL     1       1.793 -10.485  26.430  0.00  0.00    -0.475 OA
ATOM     33  H   UNL     1       2.603 -10.103  26.705  0.00  0.00    +0.296 HD
ENDBRANCH  30  32
ENDBRANCH  28  30
ENDBRANCH  10  28
TORSDOF 6
