REMARK  Name = =
REMARK  10 active torsions:
REMARK  status: ('A' for Active; 'I' for Inactive)
REMARK    1  A    between atoms: N_1  and  C_18
REMARK    2  A    between atoms: C_6  and  O_29
REMARK    3  A    between atoms: C_16  and  N_22
REMARK    4  A    between atoms: C_20  and  C_24
REMARK    5  A    between atoms: C_24  and  C_26
REMARK    6  A    between atoms: C_26  and  O_28
REMARK    7  A    between atoms: O_29  and  O_30
REMARK    8  A    between atoms: O_30  and  P_31
REMARK    9  A    between atoms: P_31  and  N_33
REMARK   10  A    between atoms: P_31  and  N_34
REMARK                            x       y       z     vdW  Elec       q    Type
REMARK                         _______ _______ _______ _____ _____    ______ ____
ROOT
ATOM      1  N   UNL     1      -0.482  -6.425  31.837  0.00  0.00    -0.254 N 
ATOM      2  C   UNL     1       0.718  -5.947  31.463  0.00  0.00    +0.162 A 
ATOM      3  N   UNL     1       1.140  -5.352  30.357  0.00  0.00    -0.197 NA
ATOM      4  C   UNL     1       2.391  -4.942  30.160  0.00  0.00    +0.218 A 
ATOM      5  N   UNL     1       3.275  -5.148  31.157  0.00  0.00    -0.175 NA
ATOM      6  C   UNL     1       2.910  -5.744  32.300  0.00  0.00    +0.289 A 
ATOM      7  C   UNL     1       1.625  -6.163  32.497  0.00  0.00    +0.171 A 
ATOM      8  N   UNL     1       0.956  -6.765  33.470  0.00  0.00    -0.220 NA
ATOM      9  C   UNL     1      -0.309  -6.922  33.074  0.00  0.00    +0.169 C 
ATOM     10  N   UNL     1       2.824  -4.308  28.974  0.00  0.00    -0.327 N 
ATOM     11  H   UNL     1       2.188  -4.152  28.239  0.00  0.00    +0.145 HD
ATOM     12  H   UNL     1       3.762  -4.022  28.883  0.00  0.00    +0.145 HD
ENDROOT
BRANCH   1  20
ATOM     13  N   UNL     1      -1.374  -8.112  29.414  0.00  0.00    -0.273 N 
ATOM     14  C   UNL     1      -2.083  -8.715  30.522  0.00  0.00    +0.079 C 
ATOM     15  C   UNL     1      -3.316  -9.455  30.092  0.00  0.00    +0.020 C 
ATOM     16  C   UNL     1      -4.506  -8.569  30.208  0.00  0.00    +0.004 C 
ATOM     17  C   UNL     1      -4.792  -8.126  31.621  0.00  0.00    +0.028 C 
ATOM     18  C   UNL     1      -3.521  -7.618  32.307  0.00  0.00    +0.150 C 
ATOM     19  C   UNL     1      -2.481  -7.564  31.317  0.00  0.00    +0.064 C 
ATOM     20  C   UNL     1      -1.689  -6.386  31.017  0.00  0.00    +0.103 C 
ATOM     21  C   UNL     1      -1.213  -6.684  29.581  0.00  0.00    +0.114 C 
ATOM     22  C   UNL     1      -0.887  -8.827  28.298  0.00  0.00    +0.295 C 
ATOM     23  O   UNL     1      -1.041 -10.061  28.203  0.00  0.00    -0.266 OA
BRANCH  18  24
ATOM     24  N   UNL     1      -3.792  -6.379  32.992  0.00  0.00    -0.058 NA
ATOM     25  O   UNL     1      -4.311  -5.459  32.445  0.00  0.00    -0.148 OA
ENDBRANCH  18  24
BRANCH  22  26
ATOM     26  C   UNL     1      -0.180  -8.140  27.208  0.00  0.00    +0.323 C 
ATOM     27  O   UNL     1      -0.122  -6.901  27.172  0.00  0.00    -0.275 OA
BRANCH  26  28
ATOM     28  C   UNL     1       0.461  -8.913  26.153  0.00  0.00    +0.382 C 
ATOM     29  O   UNL     1       0.405 -10.177  26.119  0.00  0.00    -0.241 OA
BRANCH  28  30
ATOM     30  O   UNL     1       1.165  -8.301  25.134  0.00  0.00    -0.475 OA
ATOM     31  H   UNL     1       1.238  -7.367  25.110  0.00  0.00    +0.296 HD
ENDBRANCH  28  30
ENDBRANCH  26  28
ENDBRANCH  22  26
ENDBRANCH   1  20
BRANCH   6  32
ATOM     32  O   UNL     1       3.858  -5.930  33.286  0.00  0.00    -0.304 OA
BRANCH  32  33
ATOM     33  O   UNL     1       4.636  -4.980  33.762  0.00  0.00    -0.095 OA
BRANCH  33  34
ATOM     34  P   UNL     1       3.877  -3.885  34.775  0.00  0.00    +0.376 P 
ATOM     35  O   UNL     1       4.257  -2.453  34.459  0.00  0.00    -0.252 OA
BRANCH  34  36
ATOM     36  N   UNL     1       4.396  -4.252  36.419  0.00  0.00    -0.245 NA
ATOM     37  H   UNL     1       5.411  -4.176  36.480  0.00  0.00    +0.129 HD
ATOM     38  H   UNL     1       4.110  -5.201  36.662  0.00  0.00    +0.129 HD
ENDBRANCH  34  36
BRANCH  34  39
ATOM     39  N   UNL     1       2.128  -4.036  34.753  0.00  0.00    -0.245 NA
ATOM     40  H   UNL     1       1.867  -4.999  34.965  0.00  0.00    +0.129 HD
ATOM     41  H   UNL     1       1.777  -3.784  33.829  0.00  0.00    +0.129 HD
ENDBRANCH  34  39
ENDBRANCH  33  34
ENDBRANCH  32  33
ENDBRANCH   6  32
TORSDOF 10
