REMARK  Name = =
REMARK  13 active torsions:
REMARK  status: ('A' for Active; 'I' for Inactive)
REMARK    1  A    between atoms: N_1  and  C_18
REMARK    2  A    between atoms: C_6  and  O_29
REMARK    3  A    between atoms: C_16  and  N_22
REMARK    4  A    between atoms: C_20  and  C_24
REMARK    5  A    between atoms: C_24  and  C_26
REMARK    6  A    between atoms: C_26  and  O_28
REMARK    7  A    between atoms: O_29  and  O_30
REMARK    8  A    between atoms: O_30  and  P_31
REMARK    9  A    between atoms: P_31  and  N_33
REMARK   10  A    between atoms: P_31  and  N_34
REMARK   11  A    between atoms: N_34  and  S_35
REMARK   12  A    between atoms: S_35  and  S_36
REMARK   13  A    between atoms: S_35  and  C_38
REMARK                            x       y       z     vdW  Elec       q    Type
REMARK                         _______ _______ _______ _____ _____    ______ ____
ROOT
ATOM      1  N   UNL     1      -1.351  -3.279  29.861  0.00  0.00    -0.254 N 
ATOM      2  C   UNL     1      -2.367  -4.080  30.290  0.00  0.00    +0.162 A 
ATOM      3  N   UNL     1      -2.395  -5.364  30.696  0.00  0.00    -0.197 NA
ATOM      4  C   UNL     1      -3.524  -5.970  31.086  0.00  0.00    +0.218 A 
ATOM      5  N   UNL     1      -4.661  -5.255  31.066  0.00  0.00    -0.175 NA
ATOM      6  C   UNL     1      -4.725  -3.974  30.677  0.00  0.00    +0.289 A 
ATOM      7  C   UNL     1      -3.539  -3.358  30.273  0.00  0.00    +0.171 A 
ATOM      8  N   UNL     1      -3.227  -2.132  29.838  0.00  0.00    -0.220 NA
ATOM      9  C   UNL     1      -1.886  -2.083  29.586  0.00  0.00    +0.169 C 
ATOM     10  N   UNL     1      -3.531  -7.346  31.517  0.00  0.00    -0.327 N 
ATOM     11  H   UNL     1      -2.693  -7.863  31.528  0.00  0.00    +0.145 HD
ATOM     12  H   UNL     1      -4.374  -7.769  31.800  0.00  0.00    +0.145 HD
ENDROOT
BRANCH   1  20
ATOM     13  N   UNL     1       1.283  -4.662  28.008  0.00  0.00    -0.273 N 
ATOM     14  C   UNL     1       1.338  -5.582  29.114  0.00  0.00    +0.084 C 
ATOM     15  C   UNL     1       2.626  -5.783  29.772  0.00  0.00    +0.046 C 
ATOM     16  C   UNL     1       2.718  -5.002  31.048  0.00  0.00    -0.027 C 
ATOM     17  C   UNL     1       1.542  -5.099  31.950  0.00  0.00    -0.003 C 
ATOM     18  C   UNL     1       0.311  -5.702  31.356  0.00  0.00    +0.172 C 
ATOM     19  C   UNL     1       0.159  -5.214  29.936  0.00  0.00    +0.069 C 
ATOM     20  C   UNL     1       0.007  -3.766  29.775  0.00  0.00    +0.104 C 
ATOM     21  C   UNL     1       0.636  -3.440  28.448  0.00  0.00    +0.114 C 
ATOM     22  C   UNL     1       1.762  -4.868  26.684  0.00  0.00    +0.295 C 
ATOM     23  O   UNL     1       1.650  -3.965  25.815  0.00  0.00    -0.266 OA
BRANCH  18  24
ATOM     24  N   UNL     1       0.559  -7.133  31.264  0.00  0.00    -0.054 NA
ATOM     25  O   UNL     1      -0.387  -7.854  31.415  0.00  0.00    -0.148 OA
ENDBRANCH  18  24
BRANCH  22  26
ATOM     26  C   UNL     1       2.394  -6.112  26.278  0.00  0.00    +0.323 C 
ATOM     27  O   UNL     1       3.648  -6.166  26.287  0.00  0.00    -0.275 OA
BRANCH  26  28
ATOM     28  C   UNL     1       1.635  -7.274  25.870  0.00  0.00    +0.382 C 
ATOM     29  O   UNL     1       1.996  -7.908  24.854  0.00  0.00    -0.241 OA
BRANCH  28  30
ATOM     30  O   UNL     1       0.521  -7.713  26.564  0.00  0.00    -0.475 OA
ATOM     31  H   UNL     1       0.233  -7.253  27.328  0.00  0.00    +0.296 HD
ENDBRANCH  28  30
ENDBRANCH  26  28
ENDBRANCH  22  26
ENDBRANCH   1  20
BRANCH   6  32
ATOM     32  O   UNL     1      -5.854  -3.202  30.639  0.00  0.00    -0.304 OA
BRANCH  32  33
ATOM     33  O   UNL     1      -6.003  -1.976  31.109  0.00  0.00    -0.094 OA
BRANCH  33  34
ATOM     34  P   UNL     1      -6.552  -2.006  32.724  0.00  0.00    +0.387 P 
ATOM     35  O   UNL     1      -5.802  -3.025  33.542  0.00  0.00    -0.251 OA
BRANCH  34  36
ATOM     36  N   UNL     1      -6.278  -0.414  33.386  0.00  0.00    -0.244 NA
ATOM     37  H   UNL     1      -6.786   0.276  32.833  0.00  0.00    +0.129 HD
ATOM     38  H   UNL     1      -5.280  -0.203  33.361  0.00  0.00    +0.129 HD
ENDBRANCH  34  36
BRANCH  34  39
ATOM     39  N   UNL     1      -8.276  -2.301  32.766  0.00  0.00    -0.180 NA
ATOM     40  H   UNL     1      -8.697  -1.750  33.514  0.00  0.00    +0.146 HD
BRANCH  39  41
ATOM     41  S   UNL     1      -8.954  -1.859  31.293  0.00  0.00    -0.072 S 
ATOM     42  H   UNL     1      -8.377  -2.602  30.311  0.00  0.00    +0.116 HD
BRANCH  41  43
ATOM     43  S   UNL     1     -10.608  -1.968  31.138  0.00  0.00    +0.178 S 
ATOM     44  O   UNL     1     -11.602  -1.445  31.725  0.00  0.00    -0.231 OA
ENDBRANCH  41  43
BRANCH  41  45
ATOM     45  C   UNL     1      -8.817  -0.028  31.468  0.00  0.00    +0.036 C 
ATOM     46  C   UNL     1      -8.933   0.641  30.359  0.00  0.00    +0.007 C 
ENDBRANCH  41  45
ENDBRANCH  39  41
ENDBRANCH  34  39
ENDBRANCH  33  34
ENDBRANCH  32  33
ENDBRANCH   6  32
TORSDOF 13
