REMARK  Name = =
REMARK  9 active torsions:
REMARK  status: ('A' for Active; 'I' for Inactive)
REMARK    1  A    between atoms: N_1  and  C_7
REMARK    2  A    between atoms: C_3  and  C_30
REMARK    3  A    between atoms: C_4  and  N_39
REMARK    4  A    between atoms: C_8  and  N_14
REMARK    5  A    between atoms: C_17  and  N_19
REMARK    6  A    between atoms: N_32  and  C_33
REMARK    7  A    between atoms: N_39  and  P_40
REMARK    8  A    between atoms: P_40  and  N_42
REMARK    9  A    between atoms: P_40  and  O_43
REMARK                            x       y       z     vdW  Elec       q    Type
REMARK                         _______ _______ _______ _____ _____    ______ ____
ROOT
ATOM      1  N   UNL     1      -5.398  -1.881  31.030  0.00  0.00    -0.269 NA
ATOM      2  C   UNL     1      -5.035  -3.232  31.022  0.00  0.00    +0.083 C 
ATOM      3  C   UNL     1      -3.546  -3.449  31.305  0.00  0.00    +0.107 C 
ATOM      4  C   UNL     1      -2.848  -2.808  30.119  0.00  0.00    +0.074 C 
ATOM      5  C   UNL     1      -3.174  -1.360  30.088  0.00  0.00    +0.034 C 
ATOM      6  C   UNL     1      -4.419  -0.919  30.750  0.00  0.00    +0.074 C 
ENDROOT
BRANCH   1   7
ATOM      7  C   UNL     1      -6.746  -1.504  31.141  0.00  0.00    +0.095 C 
ATOM      8  C   UNL     1      -7.302  -1.899  32.485  0.00  0.00    +0.084 C 
ATOM      9  C   UNL     1      -6.740  -0.954  33.510  0.00  0.00    +0.087 C 
ATOM     10  C   UNL     1      -7.192   0.405  33.210  0.00  0.00    +0.174 C 
ATOM     11  O   UNL     1      -7.566   1.175  34.118  0.00  0.00    -0.291 OA
ATOM     12  C   UNL     1      -7.195   0.839  31.824  0.00  0.00    +0.034 C 
ATOM     13  C   UNL     1      -6.987  -0.058  30.876  0.00  0.00    -0.006 C 
BRANCH   8  14
ATOM     14  N   UNL     1      -8.734  -1.880  32.403  0.00  0.00    -0.271 NA
ATOM     15  C   UNL     1      -9.170  -3.055  31.694  0.00  0.00    +0.074 C 
ATOM     16  C   UNL     1     -10.233  -3.721  32.521  0.00  0.00    +0.035 C 
ATOM     17  C   UNL     1     -10.681  -2.652  33.477  0.00  0.00    +0.075 C 
ATOM     18  C   UNL     1      -9.424  -1.827  33.640  0.00  0.00    +0.088 C 
BRANCH  17  19
ATOM     19  N   UNL     1     -11.790  -1.967  32.975  0.00  0.00    -0.272 NA
ATOM     20  C   UNL     1     -12.311  -2.232  31.705  0.00  0.00    +0.077 C 
ATOM     21  C   UNL     1     -12.929  -0.989  31.040  0.00  0.00    +0.043 C 
ATOM     22  C   UNL     1     -14.301  -0.768  31.571  0.00  0.00    -0.025 C 
ATOM     23  C   UNL     1     -14.816  -1.250  32.761  0.00  0.00    -0.025 C 
ATOM     24  C   UNL     1     -16.115  -0.957  33.120  0.00  0.00    -0.005 C 
ATOM     25  C   UNL     1     -16.879  -0.181  32.278  0.00  0.00    -0.000 C 
ATOM     26  C   UNL     1     -16.364   0.301  31.090  0.00  0.00    -0.000 C 
ATOM     27  C   UNL     1     -15.081   0.015  30.727  0.00  0.00    -0.005 C 
ATOM     28  C   UNL     1     -14.125  -2.108  33.791  0.00  0.00    +0.043 C 
ATOM     29  C   UNL     1     -12.737  -1.583  33.945  0.00  0.00    +0.077 C 
ENDBRANCH  17  19
ENDBRANCH   8  14
ENDBRANCH   1   7
BRANCH   3  30
ATOM     30  C   UNL     1      -3.334  -4.902  31.389  0.00  0.00    +0.227 C 
ATOM     31  O   UNL     1      -4.244  -5.748  31.162  0.00  0.00    -0.275 OA
ATOM     32  N   UNL     1      -2.048  -5.389  31.743  0.00  0.00    -0.280 N 
ATOM     33  H   UNL     1      -1.335  -4.735  31.922  0.00  0.00    +0.152 HD
BRANCH  32  34
ATOM     34  C   UNL     1      -1.732  -6.793  31.854  0.00  0.00    +0.193 C 
ATOM     35  N   UNL     1      -0.719  -7.128  30.912  0.00  0.00    -0.270 NA
ATOM     36  C   UNL     1       0.587  -6.644  31.364  0.00  0.00    +0.072 C 
ATOM     37  C   UNL     1       0.906  -7.434  32.631  0.00  0.00    +0.034 C 
ATOM     38  C   UNL     1      -0.132  -7.058  33.650  0.00  0.00    +0.072 C 
ATOM     39  N   UNL     1      -1.474  -7.203  33.206  0.00  0.00    -0.270 NA
ATOM     40  H   UNL     1      -0.682  -8.142  30.806  0.00  0.00    +0.126 HD
ATOM     41  H   UNL     1      -1.726  -8.188  33.288  0.00  0.00    +0.126 HD
ENDBRANCH  32  34
ENDBRANCH   3  30
BRANCH   4  42
ATOM     42  N   UNL     1      -1.412  -2.985  30.194  0.00  0.00    -0.224 NA
ATOM     43  H   UNL     1      -1.199  -3.859  30.676  0.00  0.00    +0.133 HD
BRANCH  42  44
ATOM     44  P   UNL     1      -0.764  -3.036  28.578  0.00  0.00    +0.339 P 
ATOM     45  O   UNL     1      -1.819  -3.499  27.606  0.00  0.00    -0.255 OA
BRANCH  44  46
ATOM     46  N   UNL     1       0.566  -4.191  28.513  0.00  0.00    -0.247 NA
ATOM     47  H   UNL     1       0.224  -5.118  28.768  0.00  0.00    +0.129 HD
ATOM     48  H   UNL     1       1.296  -3.906  29.166  0.00  0.00    +0.129 HD
ENDBRANCH  44  46
BRANCH  44  49
ATOM     49  O   UNL     1      -0.126  -1.536  28.147  0.00  0.00    -0.322 OA
ATOM     50  H   UNL     1      -0.828  -0.867  28.170  0.00  0.00    +0.220 HD
ENDBRANCH  44  49
ENDBRANCH  42  44
ENDBRANCH   4  42
TORSDOF 9
