REMARK  Name = =
REMARK  1 active torsions:
REMARK  status: ('A' for Active; 'I' for Inactive)
REMARK    1  A    between atoms: N_4  and  C_5
REMARK                            x       y       z     vdW  Elec       q    Type
REMARK                         _______ _______ _______ _____ _____    ______ ____
ROOT
ATOM      1  N   UNL     1      -5.001  -2.487  32.876  0.00  0.00    -0.313 N 
ATOM      2  C   UNL     1      -4.429  -2.854  31.600  0.00  0.00    +0.301 C 
ATOM      3  O   UNL     1      -5.181  -3.102  30.626  0.00  0.00    -0.253 OA
ATOM      4  N   UNL     1      -3.040  -2.940  31.422  0.00  0.00    -0.268 N 
ATOM      5  H   UNL     1      -5.978  -2.432  32.980  0.00  0.00    +0.146 HD
ATOM      6  H   UNL     1      -4.413  -2.292  33.641  0.00  0.00    +0.146 HD
ATOM      7  H   UNL     1      -2.489  -2.737  32.212  0.00  0.00    +0.156 HD
ENDROOT
BRANCH   4   8
ATOM      8  C   UNL     1      -2.340  -3.280  30.253  0.00  0.00    +0.052 C 
ATOM      9  C   UNL     1      -2.064  -4.642  30.003  0.00  0.00    +0.015 C 
ATOM     10  C   UNL     1      -1.385  -5.035  28.880  0.00  0.00    +0.001 C 
ATOM     11  C   UNL     1      -0.940  -4.135  27.942  0.00  0.00    +0.000 C 
ATOM     12  C   UNL     1      -1.190  -2.805  28.151  0.00  0.00    +0.001 C 
ATOM     13  C   UNL     1      -1.879  -2.427  29.294  0.00  0.00    +0.015 C 
ENDBRANCH   4   8
TORSDOF 1
