REMARK  Name = =
REMARK  2 active torsions:
REMARK  status: ('A' for Active; 'I' for Inactive)
REMARK    1  A    between atoms: N_4  and  C_5
REMARK    2  A    between atoms: N_4  and  N_11
REMARK                            x       y       z     vdW  Elec       q    Type
REMARK                         _______ _______ _______ _____ _____    ______ ____
ROOT
ATOM      1  N   UNL     1      -3.820  -2.871  31.413  0.00  0.00    -0.312 N 
ATOM      2  C   UNL     1      -3.674  -4.250  31.673  0.00  0.00    +0.321 C 
ATOM      3  O   UNL     1      -4.504  -4.802  32.466  0.00  0.00    -0.251 OA
ATOM      4  N   UNL     1      -2.638  -4.998  31.073  0.00  0.00    -0.168 N 
ATOM      5  H   UNL     1      -4.548  -2.364  31.840  0.00  0.00    +0.147 HD
ATOM      6  H   UNL     1      -3.194  -2.416  30.805  0.00  0.00    +0.147 HD
ENDROOT
BRANCH   4   7
ATOM      7  C   UNL     1      -1.721  -4.360  30.195  0.00  0.00    +0.075 C 
ATOM      8  C   UNL     1      -0.423  -4.087  30.599  0.00  0.00    +0.017 C 
ATOM      9  C   UNL     1       0.463  -3.463  29.728  0.00  0.00    +0.001 C 
ATOM     10  C   UNL     1       0.030  -3.125  28.468  0.00  0.00    +0.000 C 
ATOM     11  C   UNL     1      -1.246  -3.374  28.026  0.00  0.00    +0.001 C 
ATOM     12  C   UNL     1      -2.109  -3.997  28.912  0.00  0.00    +0.017 C 
ENDBRANCH   4   7
BRANCH   4  13
ATOM     13  N   UNL     1      -2.478  -6.364  31.317  0.00  0.00    -0.198 N 
ATOM     14  C   UNL     1      -2.302  -6.860  32.631  0.00  0.00    +0.242 C 
ATOM     15  O   UNL     1      -2.289  -6.065  33.605  0.00  0.00    -0.273 OA
ATOM     16  C   UNL     1      -2.136  -8.320  32.847  0.00  0.00    +0.096 C 
ATOM     17  C   UNL     1      -2.496  -7.284  30.181  0.00  0.00    +0.139 C 
ENDBRANCH   4  13
TORSDOF 2
