REMARK  Name = =
REMARK  3 active torsions:
REMARK  status: ('A' for Active; 'I' for Inactive)
REMARK    1  A    between atoms: N_1  and  C_5
REMARK    2  A    between atoms: N_4  and  C_12
REMARK    3  A    between atoms: N_4  and  N_18
REMARK                            x       y       z     vdW  Elec       q    Type
REMARK                         _______ _______ _______ _____ _____    ______ ____
ROOT
ATOM      1  N   UNL     1      -3.851  -4.264  31.480  0.00  0.00    -0.238 N 
ATOM      2  C   UNL     1      -2.700  -4.150  30.685  0.00  0.00    +0.330 C 
ATOM      3  O   UNL     1      -2.431  -3.093  30.097  0.00  0.00    -0.250 OA
ATOM      4  N   UNL     1      -1.784  -5.240  30.508  0.00  0.00    -0.167 N 
ATOM      5  H   UNL     1      -4.011  -5.129  31.921  0.00  0.00    +0.159 HD
ENDROOT
BRANCH   1   6
ATOM      6  C   UNL     1      -4.802  -3.235  31.700  0.00  0.00    +0.206 C 
ATOM      7  C   UNL     1      -4.644  -1.912  31.388  0.00  0.00    +0.096 C 
ATOM      8  C   UNL     1      -5.625  -0.936  31.631  0.00  0.00    +0.203 C 
ATOM      9  O   UNL     1      -5.444   0.259  31.333  0.00  0.00    -0.286 OA
ATOM     10  C   UNL     1      -6.794  -1.349  32.211  0.00  0.00    +0.083 C 
ATOM     11  C   UNL     1      -6.903  -2.689  32.506  0.00  0.00    +0.184 C 
ATOM     12  O   UNL     1      -5.970  -3.559  32.265  0.00  0.00    -0.436 OA
ENDBRANCH   1   6
BRANCH   4  13
ATOM     13  C   UNL     1      -2.042  -6.487  31.152  0.00  0.00    +0.075 C 
ATOM     14  C   UNL     1      -2.024  -7.671  30.461  0.00  0.00    +0.017 C 
ATOM     15  C   UNL     1      -2.270  -8.880  31.082  0.00  0.00    +0.001 C 
ATOM     16  C   UNL     1      -2.541  -8.903  32.440  0.00  0.00    +0.000 C 
ATOM     17  C   UNL     1      -2.565  -7.720  33.165  0.00  0.00    +0.001 C 
ATOM     18  C   UNL     1      -2.312  -6.522  32.496  0.00  0.00    +0.017 C 
ENDBRANCH   4  13
BRANCH   4  19
ATOM     19  N   UNL     1      -0.651  -5.081  29.711  0.00  0.00    -0.198 N 
ATOM     20  C   UNL     1       0.673  -4.979  30.215  0.00  0.00    +0.242 C 
ATOM     21  O   UNL     1       0.894  -5.028  31.448  0.00  0.00    -0.273 OA
ATOM     22  C   UNL     1       1.850  -4.811  29.316  0.00  0.00    +0.096 C 
ATOM     23  C   UNL     1      -0.821  -5.014  28.276  0.00  0.00    +0.139 C 
ENDBRANCH   4  19
TORSDOF 3
