REMARK  Name = =
REMARK  7 active torsions:
REMARK  status: ('A' for Active; 'I' for Inactive)
REMARK    1  A    between atoms: C_1  and  N_20
REMARK    2  A    between atoms: C_6  and  C_7
REMARK    3  A    between atoms: C_8  and  O_16
REMARK    4  A    between atoms: C_11  and  C_14
REMARK    5  A    between atoms: C_12  and  O_13
REMARK    6  A    between atoms: N_17  and  C_21
REMARK    7  A    between atoms: N_20  and  N_28
REMARK                            x       y       z     vdW  Elec       q    Type
REMARK                         _______ _______ _______ _____ _____    ______ ____
ROOT
ATOM      1  C   UNL     1      -1.676  -5.563  30.222  0.00  0.00    +0.075 C 
ATOM      2  C   UNL     1      -2.821  -4.817  30.532  0.00  0.00    +0.017 C 
ATOM      3  C   UNL     1      -3.495  -4.060  29.608  0.00  0.00    +0.001 C 
ATOM      4  C   UNL     1      -3.023  -4.032  28.312  0.00  0.00    +0.000 C 
ATOM      5  C   UNL     1      -1.900  -4.758  27.989  0.00  0.00    +0.001 C 
ATOM      6  C   UNL     1      -1.222  -5.532  28.958  0.00  0.00    +0.021 C 
ENDROOT
BRANCH   6   7
ATOM      7  C   UNL     1      -0.050  -6.289  28.555  0.00  0.00    +0.069 C 
ATOM      8  C   UNL     1      -0.163  -7.570  28.098  0.00  0.00    +0.137 C 
ATOM      9  C   UNL     1       0.957  -8.290  27.742  0.00  0.00    +0.037 C 
ATOM     10  C   UNL     1       2.168  -7.694  27.860  0.00  0.00    +0.009 C 
ATOM     11  C   UNL     1       2.370  -6.380  28.323  0.00  0.00    +0.076 C 
ATOM     12  C   UNL     1       1.226  -5.698  28.666  0.00  0.00    +0.140 C 
BRANCH  12  13
ATOM     13  O   UNL     1       1.287  -4.398  29.135  0.00  0.00    -0.505 OA
ATOM     14  H   UNL     1       0.499  -3.945  29.365  0.00  0.00    +0.292 HD
ENDBRANCH  12  13
BRANCH  11  15
ATOM     15  C   UNL     1       3.718  -5.866  28.397  0.00  0.00    +0.237 C 
ATOM     16  O   UNL     1       4.082  -4.874  29.029  0.00  0.00    -0.283 OA
ENDBRANCH  11  15
BRANCH   8  17
ATOM     17  O   UNL     1      -1.437  -8.186  27.978  0.00  0.00    -0.505 OA
ATOM     18  H   UNL     1      -2.210  -7.713  28.215  0.00  0.00    +0.292 HD
ENDBRANCH   8  17
ENDBRANCH   6   7
BRANCH   1  22
ATOM     19  N   UNL     1       0.680  -6.272  33.069  0.00  0.00    -0.238 N 
ATOM     20  C   UNL     1      -0.066  -5.613  32.072  0.00  0.00    +0.330 C 
ATOM     21  O   UNL     1       0.167  -4.405  31.858  0.00  0.00    -0.250 OA
ATOM     22  N   UNL     1      -1.092  -6.276  31.280  0.00  0.00    -0.167 N 
ATOM     23  H   UNL     1       0.470  -7.225  33.203  0.00  0.00    +0.159 HD
BRANCH  19  24
ATOM     24  C   UNL     1       1.684  -5.744  33.896  0.00  0.00    +0.206 C 
ATOM     25  C   UNL     1       2.896  -5.265  33.496  0.00  0.00    +0.096 C 
ATOM     26  C   UNL     1       3.820  -4.762  34.405  0.00  0.00    +0.203 C 
ATOM     27  O   UNL     1       4.915  -4.335  34.000  0.00  0.00    -0.286 OA
ATOM     28  C   UNL     1       3.515  -4.744  35.728  0.00  0.00    +0.083 C 
ATOM     29  C   UNL     1       2.276  -5.240  36.092  0.00  0.00    +0.184 C 
ATOM     30  O   UNL     1       1.453  -5.696  35.208  0.00  0.00    -0.436 OA
ENDBRANCH  19  24
BRANCH  22  31
ATOM     31  N   UNL     1      -1.387  -7.584  31.645  0.00  0.00    -0.198 N 
ATOM     32  C   UNL     1      -2.428  -7.852  32.554  0.00  0.00    +0.242 C 
ATOM     33  O   UNL     1      -2.641  -9.079  32.848  0.00  0.00    -0.273 OA
ATOM     34  C   UNL     1      -3.275  -6.810  33.174  0.00  0.00    +0.096 C 
ATOM     35  C   UNL     1      -0.602  -8.689  31.079  0.00  0.00    +0.139 C 
ENDBRANCH  22  31
ENDBRANCH   1  22
TORSDOF 7
