REMARK  Name = =
REMARK  6 active torsions:
REMARK  status: ('A' for Active; 'I' for Inactive)
REMARK    1  A    between atoms: C_1  and  C_18
REMARK    2  A    between atoms: C_7  and  C_8
REMARK    3  A    between atoms: C_14  and  N_15
REMARK    4  A    between atoms: C_21  and  C_27
REMARK    5  A    between atoms: C_22  and  S_26
REMARK    6  A    between atoms: C_27  and  O_29
REMARK                            x       y       z     vdW  Elec       q    Type
REMARK                         _______ _______ _______ _____ _____    ______ ____
ROOT
ATOM      1  C   UNL     1      -4.641  -0.621  30.303  0.00  0.00    +0.033 C 
ATOM      2  C   UNL     1      -3.193  -0.088  30.290  0.00  0.00    +0.090 C 
ATOM      3  N   UNL     1      -2.524  -0.655  29.163  0.00  0.00    -0.218 NA
ATOM      4  C   UNL     1      -1.789  -1.855  29.365  0.00  0.00    +0.089 C 
ATOM      5  C   UNL     1      -2.443  -2.902  30.224  0.00  0.00    +0.019 C 
ATOM      6  C   UNL     1      -3.945  -2.873  29.956  0.00  0.00    +0.008 C 
ATOM      7  C   UNL     1      -4.448  -1.941  31.119  0.00  0.00    +0.045 C 
ENDROOT
BRANCH   7   8
ATOM      8  C   UNL     1      -5.709  -2.462  31.582  0.00  0.00    +0.098 C 
ATOM      9  N   UNL     1      -6.902  -2.193  31.006  0.00  0.00    -0.182 NA
ATOM     10  N   UNL     1      -8.070  -2.520  31.479  0.00  0.00    -0.203 N 
ATOM     11  C   UNL     1      -8.115  -3.199  32.652  0.00  0.00    +0.266 C 
ATOM     12  O   UNL     1      -9.273  -3.525  33.110  0.00  0.00    -0.268 OA
ATOM     13  C   UNL     1      -6.958  -3.529  33.326  0.00  0.00    +0.085 C 
ATOM     14  C   UNL     1      -5.746  -3.164  32.795  0.00  0.00    +0.162 C 
ATOM     15  H   UNL     1      -8.896  -2.281  30.999  0.00  0.00    +0.178 HD
BRANCH  14  16
ATOM     16  N   UNL     1      -4.574  -3.669  33.461  0.00  0.00    +0.059 N 
ATOM     17  O   UNL     1      -4.482  -5.079  33.551  0.00  0.00    -0.126 OA
ATOM     18  O   UNL     1      -3.697  -3.011  34.011  0.00  0.00    -0.126 OA
ENDBRANCH  14  16
ENDBRANCH   7   8
BRANCH   1  19
ATOM     19  C   UNL     1      -5.545   0.364  30.945  0.00  0.00    +0.098 C 
ATOM     20  C   UNL     1      -6.949   0.441  30.387  0.00  0.00    +0.093 C 
ATOM     21  N   UNL     1      -7.523  -0.088  31.665  0.00  0.00    -0.254 N 
ATOM     22  C   UNL     1      -8.912   0.176  31.466  0.00  0.00    +0.131 C 
ATOM     23  C   UNL     1      -9.026   1.327  30.771  0.00  0.00    +0.021 C 
ATOM     24  C   UNL     1      -7.626   1.821  30.500  0.00  0.00    +0.054 C 
ATOM     25  C   UNL     1      -6.237  -0.443  32.104  0.00  0.00    +0.231 C 
ATOM     26  O   UNL     1      -5.839  -1.136  33.054  0.00  0.00    -0.274 OA
BRANCH  23  27
ATOM     27  S   UNL     1     -10.510   2.180  30.219  0.00  0.00    -0.144 S 
ATOM     28  H   UNL     1     -11.608   1.485  30.619  0.00  0.00    +0.107 HD
ENDBRANCH  23  27
BRANCH  22  29
ATOM     29  C   UNL     1     -10.024  -0.656  31.854  0.00  0.00    +0.352 C 
ATOM     30  O   UNL     1     -10.232  -0.999  33.064  0.00  0.00    -0.244 OA
BRANCH  29  31
ATOM     31  O   UNL     1     -10.863  -1.076  30.861  0.00  0.00    -0.476 OA
ATOM     32  H   UNL     1     -10.704  -0.820  29.974  0.00  0.00    +0.295 HD
ENDBRANCH  29  31
ENDBRANCH  22  29
ENDBRANCH   1  19
TORSDOF 6
