REMARK  Name = =
REMARK  9 active torsions:
REMARK  status: ('A' for Active; 'I' for Inactive)
REMARK    1  A    between atoms: C_1  and  N_25
REMARK    2  A    between atoms: C_6  and  C_7
REMARK    3  A    between atoms: C_8  and  O_21
REMARK    4  A    between atoms: C_10  and  C_13
REMARK    5  A    between atoms: C_11  and  C_19
REMARK    6  A    between atoms: C_12  and  O_18
REMARK    7  A    between atoms: C_14  and  N_15
REMARK    8  A    between atoms: N_22  and  C_26
REMARK    9  A    between atoms: N_25  and  N_33
REMARK                            x       y       z     vdW  Elec       q    Type
REMARK                         _______ _______ _______ _____ _____    ______ ____
ROOT
ATOM      1  C   UNL     1       0.921  -6.231  28.962  0.00  0.00    +0.075 C 
ATOM      2  C   UNL     1       0.964  -6.771  27.640  0.00  0.00    +0.017 C 
ATOM      3  C   UNL     1       1.723  -7.837  27.296  0.00  0.00    +0.001 C 
ATOM      4  C   UNL     1       2.505  -8.459  28.234  0.00  0.00    +0.000 C 
ATOM      5  C   UNL     1       2.490  -7.977  29.507  0.00  0.00    +0.001 C 
ATOM      6  C   UNL     1       1.691  -6.855  29.880  0.00  0.00    +0.021 C 
ENDROOT
BRANCH   6   7
ATOM      7  C   UNL     1       1.697  -6.549  31.293  0.00  0.00    +0.069 C 
ATOM      8  C   UNL     1       0.818  -7.197  32.122  0.00  0.00    +0.137 C 
ATOM      9  C   UNL     1       0.744  -6.972  33.456  0.00  0.00    +0.037 C 
ATOM     10  C   UNL     1       1.584  -6.042  34.089  0.00  0.00    +0.010 C 
ATOM     11  C   UNL     1       2.474  -5.371  33.282  0.00  0.00    +0.076 C 
ATOM     12  C   UNL     1       2.529  -5.633  31.880  0.00  0.00    +0.140 C 
BRANCH  10  13
ATOM     13  C   UNL     1       1.410  -5.877  35.516  0.00  0.00    +0.016 C 
ATOM     14  C   UNL     1       2.269  -5.497  36.389  0.00  0.00    +0.064 C 
BRANCH  14  15
ATOM     15  N   UNL     1       2.075  -5.333  37.783  0.00  0.00    -0.276 N 
ATOM     16  C   UNL     1       0.854  -5.350  38.463  0.00  0.00    +0.304 C 
ATOM     17  O   UNL     1      -0.222  -5.520  37.847  0.00  0.00    -0.265 OA
ATOM     18  H   UNL     1       2.883  -5.193  38.328  0.00  0.00    +0.155 HD
ENDBRANCH  14  15
ENDBRANCH  10  13
BRANCH  12  19
ATOM     19  O   UNL     1       3.421  -4.964  31.138  0.00  0.00    -0.505 OA
ATOM     20  H   UNL     1       3.474  -5.120  30.216  0.00  0.00    +0.292 HD
ENDBRANCH  12  19
BRANCH  11  21
ATOM     21  C   UNL     1       3.292  -4.299  33.808  0.00  0.00    +0.237 C 
ATOM     22  O   UNL     1       4.155  -3.739  33.053  0.00  0.00    -0.283 OA
ENDBRANCH  11  21
BRANCH   8  23
ATOM     23  O   UNL     1      -0.042  -8.157  31.513  0.00  0.00    -0.505 OA
ATOM     24  H   UNL     1       0.009  -8.313  30.590  0.00  0.00    +0.292 HD
ENDBRANCH   8  23
ENDBRANCH   6   7
BRANCH   1  28
ATOM     25  N   UNL     1      -1.730  -5.535  30.768  0.00  0.00    -0.238 N 
ATOM     26  C   UNL     1      -0.871  -4.722  30.029  0.00  0.00    +0.330 C 
ATOM     27  O   UNL     1      -1.089  -3.451  30.162  0.00  0.00    -0.250 OA
ATOM     28  N   UNL     1       0.178  -5.074  29.171  0.00  0.00    -0.167 N 
ATOM     29  H   UNL     1      -1.576  -6.501  30.656  0.00  0.00    +0.159 HD
BRANCH  25  30
ATOM     30  C   UNL     1      -2.781  -5.209  31.648  0.00  0.00    +0.206 C 
ATOM     31  C   UNL     1      -3.222  -3.922  31.792  0.00  0.00    +0.096 C 
ATOM     32  C   UNL     1      -4.260  -3.589  32.662  0.00  0.00    +0.203 C 
ATOM     33  O   UNL     1      -4.654  -2.386  32.778  0.00  0.00    -0.286 OA
ATOM     34  C   UNL     1      -4.854  -4.566  33.389  0.00  0.00    +0.083 C 
ATOM     35  C   UNL     1      -4.368  -5.865  33.204  0.00  0.00    +0.184 C 
ATOM     36  O   UNL     1      -3.388  -6.107  32.370  0.00  0.00    -0.436 OA
ENDBRANCH  25  30
BRANCH  28  37
ATOM     37  N   UNL     1       0.501  -4.041  28.191  0.00  0.00    -0.198 N 
ATOM     38  C   UNL     1       1.698  -3.370  28.077  0.00  0.00    +0.242 C 
ATOM     39  O   UNL     1       2.733  -3.539  28.807  0.00  0.00    -0.273 OA
ATOM     40  C   UNL     1       1.834  -2.329  26.993  0.00  0.00    +0.096 C 
ATOM     41  C   UNL     1      -0.586  -3.725  27.253  0.00  0.00    +0.139 C 
ENDBRANCH  28  37
ENDBRANCH   1  28
TORSDOF 9
