REMARK  Name = =
REMARK  11 active torsions:
REMARK  status: ('A' for Active; 'I' for Inactive)
REMARK    1  A    between atoms: C_1  and  C_12
REMARK    2  A    between atoms: C_2  and  O_46
REMARK    3  A    between atoms: C_3  and  N_29
REMARK    4  A    between atoms: C_4  and  C_38
REMARK    5  A    between atoms: C_5  and  C_44
REMARK    6  A    between atoms: C_6  and  O_43
REMARK    7  A    between atoms: C_7  and  N_16
REMARK    8  A    between atoms: N_13  and  C_17
REMARK    9  A    between atoms: N_16  and  N_24
REMARK   10  A    between atoms: C_30  and  C_32
REMARK   11  A    between atoms: C_39  and  N_40
REMARK                            x       y       z     vdW  Elec       q    Type
REMARK                         _______ _______ _______ _____ _____    ______ ____
ROOT
ATOM      1  C   UNL     1      -0.931  -7.314  31.674  0.00  0.00    +0.070 A 
ATOM      2  C   UNL     1      -0.114  -6.431  32.336  0.00  0.00    +0.150 A 
ATOM      3  C   UNL     1       1.074  -6.014  31.786  0.00  0.00    +0.085 A 
ATOM      4  C   UNL     1       1.480  -6.488  30.528  0.00  0.00    +0.024 A 
ATOM      5  C   UNL     1       0.659  -7.385  29.866  0.00  0.00    +0.077 A 
ATOM      6  C   UNL     1      -0.541  -7.803  30.419  0.00  0.00    +0.140 A 
ENDROOT
BRANCH   1  12
ATOM      7  C   UNL     1      -3.295  -6.942  32.179  0.00  0.00    +0.075 C 
ATOM      8  C   UNL     1      -4.503  -7.343  32.820  0.00  0.00    +0.017 C 
ATOM      9  C   UNL     1      -4.534  -8.511  33.540  0.00  0.00    +0.001 C 
ATOM     10  C   UNL     1      -3.413  -9.299  33.651  0.00  0.00    +0.000 C 
ATOM     11  C   UNL     1      -2.257  -8.888  33.022  0.00  0.00    +0.001 C 
ATOM     12  C   UNL     1      -2.186  -7.700  32.276  0.00  0.00    +0.021 C 
BRANCH   7  16
ATOM     13  N   UNL     1      -4.128  -3.437  30.985  0.00  0.00    -0.238 N 
ATOM     14  C   UNL     1      -4.013  -4.563  31.847  0.00  0.00    +0.330 C 
ATOM     15  O   UNL     1      -4.511  -4.476  32.998  0.00  0.00    -0.250 OA
ATOM     16  N   UNL     1      -3.361  -5.758  31.429  0.00  0.00    -0.167 N 
ATOM     17  H   UNL     1      -3.748  -3.525  30.081  0.00  0.00    +0.159 HD
BRANCH  13  18
ATOM     18  C   UNL     1      -4.734  -2.211  31.306  0.00  0.00    +0.206 C 
ATOM     19  C   UNL     1      -5.856  -2.018  32.057  0.00  0.00    +0.096 C 
ATOM     20  C   UNL     1      -6.396  -0.757  32.329  0.00  0.00    +0.203 C 
ATOM     21  O   UNL     1      -7.430  -0.631  33.025  0.00  0.00    -0.286 OA
ATOM     22  C   UNL     1      -5.750   0.338  31.804  0.00  0.00    +0.083 C 
ATOM     23  C   UNL     1      -4.613   0.098  31.046  0.00  0.00    +0.184 C 
ATOM     24  O   UNL     1      -4.173  -1.099  30.837  0.00  0.00    -0.436 OA
ENDBRANCH  13  18
BRANCH  16  25
ATOM     25  N   UNL     1      -2.752  -5.778  30.167  0.00  0.00    -0.198 N 
ATOM     26  C   UNL     1      -1.810  -4.817  29.750  0.00  0.00    +0.242 C 
ATOM     27  O   UNL     1      -1.446  -3.876  30.448  0.00  0.00    -0.273 OA
ATOM     28  C   UNL     1      -1.216  -4.942  28.385  0.00  0.00    +0.096 C 
ATOM     29  C   UNL     1      -3.132  -6.870  29.236  0.00  0.00    +0.139 C 
ENDBRANCH  16  25
ENDBRANCH   7  16
ENDBRANCH   1  12
BRANCH   3  30
ATOM     30  N   UNL     1       1.910  -5.102  32.471  0.00  0.00    -0.277 N 
ATOM     31  C   UNL     1       2.358  -5.367  33.808  0.00  0.00    +0.267 C 
ATOM     32  O   UNL     1       1.950  -6.455  34.302  0.00  0.00    -0.268 OA
ATOM     33  H   UNL     1       2.189  -4.271  32.023  0.00  0.00    +0.155 HD
BRANCH  31  34
ATOM     34  C   UNL     1       3.218  -4.469  34.560  0.00  0.00    +0.135 C 
ATOM     35  C   UNL     1       4.185  -3.680  34.002  0.00  0.00    +0.024 C 
ATOM     36  C   UNL     1       4.987  -2.830  34.778  0.00  0.00    +0.003 C 
ATOM     37  C   UNL     1       4.786  -2.797  36.136  0.00  0.00    +0.021 C 
ATOM     38  C   UNL     1       3.806  -3.598  36.682  0.00  0.00    +0.099 C 
ATOM     39  N   UNL     1       3.055  -4.405  35.892  0.00  0.00    -0.239 NA
ENDBRANCH  31  34
ENDBRANCH   3  30
BRANCH   4  40
ATOM     40  C   UNL     1       2.739  -5.978  30.064  0.00  0.00    +0.017 C 
ATOM     41  C   UNL     1       3.122  -5.488  28.933  0.00  0.00    +0.064 C 
BRANCH  41  42
ATOM     42  N   UNL     1       4.513  -5.059  28.790  0.00  0.00    -0.276 N 
ATOM     43  C   UNL     1       4.724  -3.839  28.095  0.00  0.00    +0.304 C 
ATOM     44  O   UNL     1       3.723  -3.193  27.641  0.00  0.00    -0.265 OA
ATOM     45  H   UNL     1       5.260  -5.586  29.155  0.00  0.00    +0.155 HD
ENDBRANCH  41  42
ENDBRANCH   4  40
BRANCH   6  46
ATOM     46  O   UNL     1      -1.411  -8.659  29.862  0.00  0.00    -0.505 OA
ATOM     47  H   UNL     1      -1.228  -9.033  29.023  0.00  0.00    +0.292 HD
ENDBRANCH   6  46
BRANCH   5  48
ATOM     48  C   UNL     1       1.081  -7.999  28.626  0.00  0.00    +0.237 C 
ATOM     49  O   UNL     1       0.320  -8.787  27.968  0.00  0.00    -0.283 OA
ENDBRANCH   5  48
BRANCH   2  50
ATOM     50  O   UNL     1      -0.452  -5.919  33.601  0.00  0.00    -0.504 OA
ATOM     51  H   UNL     1      -1.253  -6.177  34.012  0.00  0.00    +0.292 HD
ENDBRANCH   2  50
TORSDOF 11
