MODEL 1
REMARK VINA RESULT:    -7.750      0.000      0.000
REMARK INTER + INTRA:         -10.103
REMARK INTER:                 -10.015
REMARK INTRA:                  -0.088
REMARK UNBOUND:                -0.088
REMARK  Name = =
REMARK  6 active torsions:
REMARK  status: ('A' for Active; 'I' for Inactive)
REMARK    1  A    between atoms: C_1  and  C_11
REMARK    2  A    between atoms: C_1  and  C_23
REMARK    3  A    between atoms: C_8  and  O_31
REMARK    4  A    between atoms: C_9  and  O_30
REMARK    5  A    between atoms: N_25  and  S_26
REMARK    6  A    between atoms: S_26  and  C_27
REMARK                            x       y       z     vdW  Elec       q    Type
REMARK                         _______ _______ _______ _____ _____    ______ ____
ROOT
ATOM      1  C   UNL     1      53.728 163.059  41.832  0.00  0.00    +0.096 C 
ATOM      2  C   UNL     1      53.580 163.492  40.412  0.00  0.00    +0.018 C 
ATOM      3  C   UNL     1      54.311 164.849  40.311  0.00  0.00    +0.030 C 
ATOM      4  C   UNL     1      53.388 165.806  40.959  0.00  0.00    +0.011 C 
ATOM      5  C   UNL     1      52.921 165.422  42.208  0.00  0.00    -0.022 C 
ATOM      6  C   UNL     1      52.028 166.242  42.923  0.00  0.00    -0.001 C 
ATOM      7  C   UNL     1      51.635 167.425  42.358  0.00  0.00    +0.039 C 
ATOM      8  C   UNL     1      52.105 167.791  41.120  0.00  0.00    +0.167 C 
ATOM      9  C   UNL     1      52.989 166.988  40.402  0.00  0.00    +0.163 C 
ATOM     10  C   UNL     1      53.385 164.152  42.794  0.00  0.00    +0.039 C 
ENDROOT
BRANCH   1  11
ATOM     11  C   UNL     1      52.888 161.839  42.111  0.00  0.00    +0.028 C 
ATOM     12  C   UNL     1      53.430 160.681  42.442  0.00  0.00    +0.041 C 
ATOM     13  C   UNL     1      52.643 159.473  42.720  0.00  0.00    +0.196 C 
ATOM     14  O   UNL     1      53.188 158.378  43.034  0.00  0.00    -0.287 OA
ATOM     15  C   UNL     1      51.195 159.506  42.640  0.00  0.00    +0.042 C 
ATOM     16  C   UNL     1      50.597 160.695  42.299  0.00  0.00    +0.042 C 
ATOM     17  C   UNL     1      49.223 160.728  42.221  0.00  0.00    +0.003 C 
ATOM     18  C   UNL     1      48.420 159.623  42.469  0.00  0.00    +0.000 C 
ATOM     19  C   UNL     1      49.057 158.447  42.810  0.00  0.00    +0.000 C 
ATOM     20  C   UNL     1      50.431 158.383  42.895  0.00  0.00    +0.003 C 
ATOM     21  C   UNL     1      51.429 161.872  42.031  0.00  0.00    +0.192 C 
ATOM     22  O   UNL     1      50.861 162.931  41.725  0.00  0.00    -0.287 OA
ENDBRANCH   1  11
BRANCH   1  23
ATOM     23  C   UNL     1      55.162 162.669  42.006  0.00  0.00    +0.235 C 
ATOM     24  O   UNL     1      55.837 163.190  42.928  0.00  0.00    -0.274 OA
ATOM     25  N   UNL     1      55.799 161.726  41.163  0.00  0.00    -0.251 N 
ATOM     26  H   UNL     1      55.289 161.304  40.434  0.00  0.00    +0.163 HD
BRANCH  25  27
ATOM     27  S   UNL     1      57.511 161.294  41.407  0.00  0.00    +0.037 S 
BRANCH  27  28
ATOM     28  C   UNL     1      57.671 159.736  42.258  0.00  0.00    +0.287 C 
ATOM     29  O   UNL     1      58.777 159.500  42.813  0.00  0.00    -0.262 OA
ATOM     30  N   UNL     1      56.625 158.780  42.329  0.00  0.00    -0.319 N 
ATOM     31  H   UNL     1      55.760 158.963  41.895  0.00  0.00    +0.146 HD
ATOM     32  H   UNL     1      56.763 157.933  42.812  0.00  0.00    +0.146 HD
ENDBRANCH  27  28
ENDBRANCH  25  27
ENDBRANCH   1  23
BRANCH   9  33
ATOM     33  O   UNL     1      53.451 167.372  39.163  0.00  0.00    -0.503 OA
ATOM     34  H   UNL     1      54.361 167.288  38.956  0.00  0.00    +0.292 HD
ENDBRANCH   9  33
BRANCH   8  35
ATOM     35  O   UNL     1      51.699 168.981  40.568  0.00  0.00    -0.503 OA
ATOM     36  H   UNL     1      51.850 169.152  39.660  0.00  0.00    +0.292 HD
ENDBRANCH   8  35
TORSDOF 6
ENDMDL
