REMARK  Name = =
REMARK  1 active torsions:
REMARK  status: ('A' for Active; 'I' for Inactive)
REMARK    1  A    between atoms: C_2  and  O_13
REMARK                            x       y       z     vdW  Elec       q    Type
REMARK                         _______ _______ _______ _____ _____    ______ ____
ROOT
ATOM      1  C   UNL     1      62.157 163.134  39.663  0.00  0.00    +0.082 C 
ATOM      2  C   UNL     1      62.859 162.031  39.782  0.00  0.00    +0.176 C 
ATOM      3  C   UNL     1      62.156 160.777  40.025  0.00  0.00    +0.229 C 
ATOM      4  O   UNL     1      62.793 159.699  40.144  0.00  0.00    -0.283 OA
ATOM      5  C   UNL     1      60.700 160.743  40.136  0.00  0.00    +0.045 C 
ATOM      6  C   UNL     1      59.981 161.904  40.010  0.00  0.00    +0.042 C 
ATOM      7  C   UNL     1      58.608 161.858  40.117  0.00  0.00    +0.003 C 
ATOM      8  C   UNL     1      57.950 160.667  40.348  0.00  0.00    +0.000 C 
ATOM      9  C   UNL     1      58.649 159.483  40.479  0.00  0.00    +0.000 C 
ATOM     10  C   UNL     1      60.020 159.552  40.369  0.00  0.00    +0.003 C 
ATOM     11  C   UNL     1      60.710 163.141  39.767  0.00  0.00    +0.199 C 
ATOM     12  O   UNL     1      60.017 164.193  39.656  0.00  0.00    -0.286 OA
ENDROOT
BRANCH   2  13
ATOM     13  O   UNL     1      64.264 162.042  39.677  0.00  0.00    -0.503 OA
ATOM     14  H   UNL     1      64.716 162.848  39.521  0.00  0.00    +0.292 HD
ENDBRANCH   2  13
TORSDOF 1
