REMARK  Name = =
REMARK  0 active torsions:
REMARK  status: ('A' for Active; 'I' for Inactive)
REMARK                            x       y       z     vdW  Elec       q    Type
REMARK                         _______ _______ _______ _____ _____    ______ ____
ROOT
ATOM      1  C   UNL     1      53.004 156.154  26.921  0.00  0.00    +0.056 C 
ATOM      2  C   UNL     1      52.493 154.894  26.717  0.00  0.00    +0.039 C 
ATOM      3  S   UNL     1      51.302 154.113  27.832  0.00  0.00    -0.112 S 
ATOM      4  C   UNL     1      51.913 154.391  29.486  0.00  0.00    +0.072 C 
ATOM      5  C   UNL     1      51.805 155.755  30.007  0.00  0.00    +0.097 C 
ATOM      6  C   UNL     1      52.043 156.893  29.148  0.00  0.00    +0.227 C 
ATOM      7  O   UNL     1      51.472 157.969  29.554  0.00  0.00    -0.275 OA
ATOM      8  N   UNL     1      52.765 157.104  27.952  0.00  0.00    -0.284 N 
ATOM      9  C   UNL     1      52.855 154.141  25.654  0.00  0.00    +0.007 C 
ATOM     10  C   UNL     1      53.758 154.645  24.745  0.00  0.00    +0.001 C 
ATOM     11  C   UNL     1      54.289 155.913  24.926  0.00  0.00    +0.001 C 
ATOM     12  C   UNL     1      53.909 156.662  26.013  0.00  0.00    +0.015 C 
ATOM     13  H   UNL     1      53.142 158.003  27.818  0.00  0.00    +0.155 HD
ENDROOT
TORSDOF 0
