REMARK  Name = =
REMARK  2 active torsions:
REMARK  status: ('A' for Active; 'I' for Inactive)
REMARK    1  A    between atoms: C_1  and  N_13
REMARK    2  A    between atoms: C_2  and  O_18
REMARK                            x       y       z     vdW  Elec       q    Type
REMARK                         _______ _______ _______ _____ _____    ______ ____
ROOT
ATOM      1  C   UNL     1      61.125 161.891  39.451  0.00  0.00    +0.130 C 
ATOM      2  C   UNL     1      61.943 160.882  39.795  0.00  0.00    +0.190 C 
ATOM      3  C   UNL     1      61.473 159.722  40.537  0.00  0.00    +0.230 C 
ATOM      4  O   UNL     1      62.252 158.785  40.852  0.00  0.00    -0.283 OA
ATOM      5  C   UNL     1      60.085 159.630  40.930  0.00  0.00    +0.045 C 
ATOM      6  C   UNL     1      59.207 160.639  40.601  0.00  0.00    +0.044 C 
ATOM      7  C   UNL     1      57.884 160.543  40.980  0.00  0.00    +0.003 C 
ATOM      8  C   UNL     1      57.383 159.469  41.683  0.00  0.00    +0.000 C 
ATOM      9  C   UNL     1      58.277 158.464  42.006  0.00  0.00    +0.000 C 
ATOM     10  C   UNL     1      59.603 158.543  41.636  0.00  0.00    +0.003 C 
ATOM     11  C   UNL     1      59.748 161.771  39.856  0.00  0.00    +0.212 C 
ATOM     12  O   UNL     1      58.951 162.695  39.554  0.00  0.00    -0.285 OA
ENDROOT
BRANCH   1  13
ATOM     13  N   UNL     1      61.643 162.996  38.726  0.00  0.00    -0.262 N 
ATOM     14  C   UNL     1      61.378 163.180  37.299  0.00  0.00    +0.190 C 
ATOM     15  N   UNL     1      62.012 164.388  36.900  0.00  0.00    -0.314 N 
ATOM     16  C   UNL     1      62.744 164.923  38.001  0.00  0.00    +0.076 C 
ATOM     17  C   UNL     1      62.462 164.068  39.198  0.00  0.00    +0.083 C 
ATOM     18  H   UNL     1      61.955 164.792  36.004  0.00  0.00    +0.148 HD
ENDBRANCH   1  13
BRANCH   2  19
ATOM     19  O   UNL     1      63.265 160.943  39.436  0.00  0.00    -0.502 OA
ATOM     20  H   UNL     1      63.587 161.682  38.958  0.00  0.00    +0.292 HD
ENDBRANCH   2  19
TORSDOF 2
