REMARK  Name = =
REMARK  4 active torsions:
REMARK  status: ('A' for Active; 'I' for Inactive)
REMARK    1  A    between atoms: C_9  and  S_13
REMARK    2  A    between atoms: S_13  and  P_14
REMARK    3  A    between atoms: P_14  and  O_16
REMARK    4  A    between atoms: P_14  and  O_17
REMARK                            x       y       z     vdW  Elec       q    Type
REMARK                         _______ _______ _______ _____ _____    ______ ____
ROOT
ATOM      1  C   UNL     1      53.035 156.451  26.605  0.00  0.00    +0.057 C 
ATOM      2  C   UNL     1      53.185 155.112  26.944  0.00  0.00    +0.045 C 
ATOM      3  S   UNL     1      52.524 154.280  28.347  0.00  0.00    -0.111 S 
ATOM      4  C   UNL     1      51.861 155.300  29.628  0.00  0.00    +0.072 C 
ATOM      5  C   UNL     1      52.472 156.655  29.772  0.00  0.00    +0.097 C 
ATOM      6  C   UNL     1      52.014 157.581  28.677  0.00  0.00    +0.227 C 
ATOM      7  O   UNL     1      51.290 158.559  29.005  0.00  0.00    -0.275 OA
ATOM      8  N   UNL     1      52.329 157.448  27.297  0.00  0.00    -0.283 N 
ATOM      9  C   UNL     1      53.924 154.283  26.130  0.00  0.00    +0.043 C 
ATOM     10  C   UNL     1      54.503 154.784  24.994  0.00  0.00    +0.007 C 
ATOM     11  C   UNL     1      54.360 156.132  24.641  0.00  0.00    +0.002 C 
ATOM     12  C   UNL     1      53.624 156.969  25.447  0.00  0.00    +0.015 C 
ATOM     13  H   UNL     1      51.995 158.180  26.730  0.00  0.00    +0.155 HD
ENDROOT
BRANCH   9  14
ATOM     14  S   UNL     1      54.121 152.581  26.552  0.00  0.00    -0.004 S 
BRANCH  14  15
ATOM     15  P   UNL     1      52.343 151.501  26.552  0.00  0.00    +0.391 P 
ATOM     16  O   UNL     1      51.773 151.299  27.932  0.00  0.00    -0.246 OA
BRANCH  15  17
ATOM     17  O   UNL     1      51.131 152.222  25.614  0.00  0.00    -0.316 OA
ATOM     18  H   UNL     1      50.928 153.102  25.969  0.00  0.00    +0.221 HD
ENDBRANCH  15  17
BRANCH  15  19
ATOM     19  O   UNL     1      52.651 149.970  25.881  0.00  0.00    -0.316 OA
ATOM     20  H   UNL     1      53.343 149.525  26.395  0.00  0.00    +0.221 HD
ENDBRANCH  15  19
ENDBRANCH  14  15
ENDBRANCH   9  14
TORSDOF 4
