REMARK  Name = =
REMARK  5 active torsions:
REMARK  status: ('A' for Active; 'I' for Inactive)
REMARK    1  A    between atoms: N_1  and  C_6
REMARK    2  A    between atoms: C_5  and  N_19
REMARK    3  A    between atoms: C_7  and  O_18
REMARK    4  A    between atoms: N_19  and  S_20
REMARK    5  A    between atoms: S_20  and  C_23
REMARK                            x       y       z     vdW  Elec       q    Type
REMARK                         _______ _______ _______ _____ _____    ______ ____
ROOT
ATOM      1  N   UNL     1      61.822 163.766  38.901  0.00  0.00    -0.275 N 
ATOM      2  C   UNL     1      61.265 165.084  39.071  0.00  0.00    +0.167 C 
ATOM      3  N   UNL     1      61.730 165.876  37.950  0.00  0.00    -0.278 NA
ATOM      4  C   UNL     1      62.412 164.986  37.053  0.00  0.00    +0.108 C 
ATOM      5  C   UNL     1      62.956 163.927  38.023  0.00  0.00    +0.167 C 
ATOM      6  H   UNL     1      62.369 166.601  38.276  0.00  0.00    +0.125 HD
ENDROOT
BRANCH   1   7
ATOM      7  C   UNL     1      61.337 162.576  39.485  0.00  0.00    +0.127 C 
ATOM      8  C   UNL     1      61.662 162.183  40.708  0.00  0.00    +0.190 C 
ATOM      9  C   UNL     1      61.158 160.953  41.307  0.00  0.00    +0.230 C 
ATOM     10  O   UNL     1      61.468 160.591  42.455  0.00  0.00    -0.283 OA
ATOM     11  C   UNL     1      60.242 160.073  40.556  0.00  0.00    +0.045 C 
ATOM     12  C   UNL     1      59.892 160.467  39.279  0.00  0.00    +0.043 C 
ATOM     13  C   UNL     1      59.029 159.648  38.557  0.00  0.00    +0.003 C 
ATOM     14  C   UNL     1      58.539 158.482  39.100  0.00  0.00    +0.000 C 
ATOM     15  C   UNL     1      58.897 158.091  40.388  0.00  0.00    +0.000 C 
ATOM     16  C   UNL     1      59.747 158.914  41.078  0.00  0.00    +0.003 C 
ATOM     17  C   UNL     1      60.421 161.702  38.725  0.00  0.00    +0.212 C 
ATOM     18  O   UNL     1      60.074 162.021  37.555  0.00  0.00    -0.285 OA
BRANCH   8  19
ATOM     19  O   UNL     1      62.520 162.960  41.475  0.00  0.00    -0.502 OA
ATOM     20  H   UNL     1      62.866 163.758  41.127  0.00  0.00    +0.292 HD
ENDBRANCH   8  19
ENDBRANCH   1   7
BRANCH   5  21
ATOM     21  N   UNL     1      64.088 164.524  38.681  0.00  0.00    -0.161 NA
ATOM     22  H   UNL     1      64.318 163.964  39.502  0.00  0.00    +0.151 HD
BRANCH  21  23
ATOM     23  S   UNL     1      65.474 164.622  37.683  0.00  0.00    +0.062 S 
ATOM     24  O   UNL     1      65.890 163.224  37.316  0.00  0.00    -0.153 OA
ATOM     25  O   UNL     1      66.594 165.197  38.519  0.00  0.00    -0.153 OA
BRANCH  23  26
ATOM     26  C   UNL     1      65.269 165.635  36.303  0.00  0.00    +0.122 C 
ATOM     27  C   UNL     1      65.170 167.021  36.478  0.00  0.00    +0.020 C 
ATOM     28  C   UNL     1      65.004 167.835  35.361  0.00  0.00    +0.001 C 
ATOM     29  C   UNL     1      64.933 167.315  34.095  0.00  0.00    +0.000 C 
ATOM     30  C   UNL     1      65.035 165.933  33.951  0.00  0.00    +0.001 C 
ATOM     31  C   UNL     1      65.199 165.114  35.035  0.00  0.00    +0.020 C 
ENDBRANCH  23  26
ENDBRANCH  21  23
ENDBRANCH   5  21
TORSDOF 5
