REMARK  Name = =
REMARK  7 active torsions:
REMARK  status: ('A' for Active; 'I' for Inactive)
REMARK    1  A    between atoms: N_8  and  C_13
REMARK    2  A    between atoms: C_9  and  S_18
REMARK    3  A    between atoms: C_14  and  C_15
REMARK    4  A    between atoms: C_15  and  O_17
REMARK    5  A    between atoms: S_18  and  P_19
REMARK    6  A    between atoms: P_19  and  O_21
REMARK    7  A    between atoms: P_19  and  O_22
REMARK                            x       y       z     vdW  Elec       q    Type
REMARK                         _______ _______ _______ _____ _____    ______ ____
ROOT
ATOM      1  C   UNL     1      53.052 156.553  27.184  0.00  0.00    +0.064 C 
ATOM      2  C   UNL     1      52.750 155.367  26.572  0.00  0.00    +0.045 C 
ATOM      3  S   UNL     1      51.699 153.996  27.007  0.00  0.00    -0.111 S 
ATOM      4  C   UNL     1      50.466 154.471  28.247  0.00  0.00    +0.072 C 
ATOM      5  C   UNL     1      51.095 155.105  29.452  0.00  0.00    +0.098 C 
ATOM      6  C   UNL     1      51.508 156.502  29.263  0.00  0.00    +0.234 C 
ATOM      7  O   UNL     1      50.883 157.391  29.895  0.00  0.00    -0.274 OA
ATOM      8  N   UNL     1      52.552 157.013  28.440  0.00  0.00    -0.235 N 
ATOM      9  C   UNL     1      53.337 155.093  25.346  0.00  0.00    +0.043 C 
ATOM     10  C   UNL     1      54.208 155.967  24.728  0.00  0.00    +0.007 C 
ATOM     11  C   UNL     1      54.497 157.154  25.363  0.00  0.00    +0.002 C 
ATOM     12  C   UNL     1      53.925 157.459  26.592  0.00  0.00    +0.016 C 
ENDROOT
BRANCH   8  13
ATOM     13  C   UNL     1      53.233 158.169  28.896  0.00  0.00    +0.079 C 
ATOM     14  C   UNL     1      52.562 159.088  29.547  0.00  0.00    +0.098 C 
BRANCH  14  15
ATOM     15  C   UNL     1      53.213 160.305  30.044  0.00  0.00    +0.340 C 
ATOM     16  O   UNL     1      54.446 160.423  29.830  0.00  0.00    -0.245 OA
BRANCH  15  17
ATOM     17  O   UNL     1      52.526 161.292  30.722  0.00  0.00    -0.477 OA
ATOM     18  H   UNL     1      51.607 161.200  30.879  0.00  0.00    +0.295 HD
ENDBRANCH  15  17
ENDBRANCH  14  15
ENDBRANCH   8  13
BRANCH   9  19
ATOM     19  S   UNL     1      52.981 153.547  24.484  0.00  0.00    -0.004 S 
BRANCH  19  20
ATOM     20  P   UNL     1      54.107 151.958  25.283  0.00  0.00    +0.391 P 
ATOM     21  O   UNL     1      55.232 152.462  26.134  0.00  0.00    -0.246 OA
BRANCH  20  22
ATOM     22  O   UNL     1      54.727 150.996  24.012  0.00  0.00    -0.316 OA
ATOM     23  H   UNL     1      55.325 151.529  23.465  0.00  0.00    +0.221 HD
ENDBRANCH  20  22
BRANCH  20  24
ATOM     24  O   UNL     1      53.061 151.021  26.239  0.00  0.00    -0.316 OA
ATOM     25  H   UNL     1      52.708 151.565  26.961  0.00  0.00    +0.221 HD
ENDBRANCH  20  24
ENDBRANCH  19  20
ENDBRANCH   9  19
TORSDOF 7
