REMARK  Name = =
REMARK  8 active torsions:
REMARK  status: ('A' for Active; 'I' for Inactive)
REMARK    1  A    between atoms: N_8  and  C_13
REMARK    2  A    between atoms: C_9  and  S_28
REMARK    3  A    between atoms: C_14  and  C_15
REMARK    4  A    between atoms: C_14  and  C_25
REMARK    5  A    between atoms: C_25  and  O_27
REMARK    6  A    between atoms: S_28  and  P_29
REMARK    7  A    between atoms: P_29  and  O_31
REMARK    8  A    between atoms: P_29  and  O_32
REMARK                            x       y       z     vdW  Elec       q    Type
REMARK                         _______ _______ _______ _____ _____    ______ ____
ROOT
ATOM      1  C   UNL     1      51.823 157.193  29.280  0.00  0.00    +0.064 C 
ATOM      2  C   UNL     1      51.401 158.304  30.045  0.00  0.00    +0.045 C 
ATOM      3  S   UNL     1      49.783 158.445  30.850  0.00  0.00    -0.111 S 
ATOM      4  C   UNL     1      48.569 158.231  29.538  0.00  0.00    +0.072 C 
ATOM      5  C   UNL     1      48.526 156.839  29.026  0.00  0.00    +0.098 C 
ATOM      6  C   UNL     1      49.618 155.927  29.347  0.00  0.00    +0.234 C 
ATOM      7  O   UNL     1      49.280 154.847  29.978  0.00  0.00    -0.274 OA
ATOM      8  N   UNL     1      51.032 155.986  29.106  0.00  0.00    -0.236 N 
ATOM      9  C   UNL     1      52.185 159.388  30.179  0.00  0.00    +0.043 C 
ATOM     10  C   UNL     1      53.429 159.366  29.529  0.00  0.00    +0.007 C 
ATOM     11  C   UNL     1      53.864 158.313  28.782  0.00  0.00    +0.002 C 
ATOM     12  C   UNL     1      53.023 157.192  28.658  0.00  0.00    +0.016 C 
ENDROOT
BRANCH   8  13
ATOM     13  C   UNL     1      51.746 154.897  28.624  0.00  0.00    +0.074 C 
ATOM     14  C   UNL     1      52.153 154.509  27.469  0.00  0.00    +0.068 C 
BRANCH  14  15
ATOM     15  C   UNL     1      52.908 153.205  27.357  0.00  0.00    +0.027 C 
ATOM     16  C   UNL     1      54.346 153.181  27.735  0.00  0.00    +0.004 C 
ATOM     17  C   UNL     1      55.118 152.702  26.547  0.00  0.00    +0.000 C 
ATOM     18  C   UNL     1      54.099 152.312  25.553  0.00  0.00    +0.001 C 
ATOM     19  C   UNL     1      52.737 152.329  26.152  0.00  0.00    +0.008 C 
ATOM     20  C   UNL     1      52.237 151.900  27.334  0.00  0.00    +0.012 C 
ATOM     21  C   UNL     1      51.703 151.221  28.385  0.00  0.00    +0.026 C 
ATOM     22  C   UNL     1      51.302 149.989  28.004  0.00  0.00    -0.031 C 
ATOM     23  C   UNL     1      51.602 149.839  26.588  0.00  0.00    -0.031 C 
ATOM     24  C   UNL     1      52.156 150.957  26.216  0.00  0.00    +0.023 C 
ENDBRANCH  14  15
BRANCH  14  25
ATOM     25  C   UNL     1      52.129 155.282  26.261  0.00  0.00    +0.335 C 
ATOM     26  O   UNL     1      52.473 156.475  26.122  0.00  0.00    -0.245 OA
BRANCH  25  27
ATOM     27  O   UNL     1      51.684 154.722  25.033  0.00  0.00    -0.477 OA
ATOM     28  H   UNL     1      51.397 153.831  25.001  0.00  0.00    +0.295 HD
ENDBRANCH  25  27
ENDBRANCH  14  25
ENDBRANCH   8  13
BRANCH   9  29
ATOM     29  S   UNL     1      51.653 160.778  31.142  0.00  0.00    -0.004 S 
BRANCH  29  30
ATOM     30  P   UNL     1      53.096 162.287  31.266  0.00  0.00    +0.391 P 
ATOM     31  O   UNL     1      54.298 161.845  32.094  0.00  0.00    -0.246 OA
BRANCH  30  32
ATOM     32  O   UNL     1      52.421 163.616  32.093  0.00  0.00    -0.316 OA
ATOM     33  H   UNL     1      52.121 163.332  32.971  0.00  0.00    +0.221 HD
ENDBRANCH  30  32
BRANCH  30  34
ATOM     34  O   UNL     1      53.596 162.839  29.757  0.00  0.00    -0.316 OA
ATOM     35  H   UNL     1      52.822 163.116  29.242  0.00  0.00    +0.221 HD
ENDBRANCH  30  34
ENDBRANCH  29  30
ENDBRANCH   9  29
TORSDOF 8
