REMARK  Name = =
REMARK  0 active torsions:
REMARK  status: ('A' for Active; 'I' for Inactive)
REMARK                            x       y       z     vdW  Elec       q    Type
REMARK                         _______ _______ _______ _____ _____    ______ ____
ROOT
ATOM      1  N   UNL     1      53.198 155.703  27.647  0.00  0.00    -0.297 NA
ATOM      2  C   UNL     1      53.210 156.541  26.484  0.00  0.00    +0.073 C 
ATOM      3  C   UNL     1      52.811 155.864  25.222  0.00  0.00    +0.043 C 
ATOM      4  C   UNL     1      53.168 154.415  25.252  0.00  0.00    -0.025 C 
ATOM      5  C   UNL     1      52.702 153.518  26.192  0.00  0.00    -0.025 C 
ATOM      6  C   UNL     1      53.121 152.207  26.091  0.00  0.00    -0.005 C 
ATOM      7  C   UNL     1      53.987 151.827  25.064  0.00  0.00    -0.000 C 
ATOM      8  C   UNL     1      54.448 152.729  24.128  0.00  0.00    -0.000 C 
ATOM      9  C   UNL     1      54.029 154.042  24.229  0.00  0.00    -0.005 C 
ATOM     10  C   UNL     1      51.787 153.717  27.347  0.00  0.00    +0.043 C 
ATOM     11  C   UNL     1      51.928 155.108  27.934  0.00  0.00    +0.073 C 
ATOM     12  H   UNL     1      53.877 154.955  27.508  0.00  0.00    +0.123 HD
ENDROOT
TORSDOF 0
