REMARK  Name = =
REMARK  1 active torsions:
REMARK  status: ('A' for Active; 'I' for Inactive)
REMARK    1  A    between atoms: C_1  and  N_18
REMARK                            x       y       z     vdW  Elec       q    Type
REMARK                         _______ _______ _______ _____ _____    ______ ____
ROOT
ATOM      1  C   UNL     1      51.947 156.757  27.796  0.00  0.00    +0.062 C 
ATOM      2  C   UNL     1      50.502 157.187  27.838  0.00  0.00    +0.017 C 
ATOM      3  C   UNL     1      50.512 158.662  28.262  0.00  0.00    +0.005 C 
ATOM      4  C   UNL     1      50.992 158.673  29.708  0.00  0.00    +0.018 C 
ATOM      5  C   UNL     1      50.971 160.046  30.287  0.00  0.00    +0.004 C 
ATOM      6  C   UNL     1      51.864 160.221  31.477  0.00  0.00    +0.005 C 
ATOM      7  C   UNL     1      51.751 161.595  32.050  0.00  0.00    +0.000 C 
ATOM      8  C   UNL     1      51.843 162.699  31.046  0.00  0.00    +0.000 C 
ATOM      9  C   UNL     1      51.318 163.892  31.814  0.00  0.00    +0.000 C 
ATOM     10  C   UNL     1      50.348 163.345  32.816  0.00  0.00    +0.000 C 
ATOM     11  C   UNL     1      50.419 161.816  32.701  0.00  0.00    +0.000 C 
ATOM     12  C   UNL     1      50.923 162.482  29.861  0.00  0.00    +0.000 C 
ATOM     13  C   UNL     1      51.114 161.115  29.251  0.00  0.00    +0.000 C 
ATOM     14  C   UNL     1      53.270 159.900  31.078  0.00  0.00    +0.025 C 
ATOM     15  C   UNL     1      53.294 158.561  30.462  0.00  0.00    -0.035 C 
ATOM     16  C   UNL     1      52.291 157.975  29.837  0.00  0.00    -0.047 C 
ATOM     17  C   UNL     1      52.406 156.608  29.233  0.00  0.00    +0.038 C 
ENDROOT
BRANCH   1  18
ATOM     18  N   UNL     1      52.109 155.630  26.977  0.00  0.00    -0.273 NA
ATOM     19  C   UNL     1      52.024 155.915  25.599  0.00  0.00    +0.077 C 
ATOM     20  C   UNL     1      53.332 155.697  24.853  0.00  0.00    +0.043 C 
ATOM     21  C   UNL     1      53.504 154.247  24.614  0.00  0.00    -0.025 C 
ATOM     22  C   UNL     1      53.117 153.188  25.409  0.00  0.00    -0.025 C 
ATOM     23  C   UNL     1      53.364 151.895  25.024  0.00  0.00    -0.005 C 
ATOM     24  C   UNL     1      54.004 151.653  23.836  0.00  0.00    -0.000 C 
ATOM     25  C   UNL     1      54.405 152.705  23.016  0.00  0.00    -0.000 C 
ATOM     26  C   UNL     1      54.147 153.999  23.419  0.00  0.00    -0.005 C 
ATOM     27  C   UNL     1      52.412 153.278  26.732  0.00  0.00    +0.043 C 
ATOM     28  C   UNL     1      52.923 154.562  27.406  0.00  0.00    +0.077 C 
ENDBRANCH   1  18
TORSDOF 1
