REMARK  Name = =
REMARK  2 active torsions:
REMARK  status: ('A' for Active; 'I' for Inactive)
REMARK    1  A    between atoms: C_1  and  N_18
REMARK    2  A    between atoms: C_1  and  C_29
REMARK                            x       y       z     vdW  Elec       q    Type
REMARK                         _______ _______ _______ _____ _____    ______ ____
ROOT
ATOM      1  C   UNL     1      52.053 158.164  29.385  0.00  0.00    +0.072 C 
ATOM      2  C   UNL     1      51.853 157.986  27.923  0.00  0.00    +0.020 C 
ATOM      3  C   UNL     1      51.330 156.680  27.443  0.00  0.00    +0.006 C 
ATOM      4  C   UNL     1      51.998 155.468  27.924  0.00  0.00    +0.018 C 
ATOM      5  C   UNL     1      52.567 154.506  26.995  0.00  0.00    +0.004 C 
ATOM      6  C   UNL     1      53.152 153.359  27.789  0.00  0.00    +0.005 C 
ATOM      7  C   UNL     1      53.487 152.243  26.882  0.00  0.00    +0.000 C 
ATOM      8  C   UNL     1      54.156 152.585  25.605  0.00  0.00    +0.000 C 
ATOM      9  C   UNL     1      53.721 151.466  24.676  0.00  0.00    +0.000 C 
ATOM     10  C   UNL     1      52.299 151.104  25.110  0.00  0.00    +0.000 C 
ATOM     11  C   UNL     1      52.197 151.500  26.557  0.00  0.00    +0.000 C 
ATOM     12  C   UNL     1      53.778 153.881  24.983  0.00  0.00    +0.000 C 
ATOM     13  C   UNL     1      53.542 154.988  25.985  0.00  0.00    +0.000 C 
ATOM     14  C   UNL     1      54.298 153.916  28.593  0.00  0.00    +0.025 C 
ATOM     15  C   UNL     1      53.768 155.005  29.460  0.00  0.00    -0.035 C 
ATOM     16  C   UNL     1      52.710 155.740  29.181  0.00  0.00    -0.047 C 
ATOM     17  C   UNL     1      52.154 156.819  30.034  0.00  0.00    +0.041 C 
ENDROOT
BRANCH   1  18
ATOM     18  N   UNL     1      51.034 158.934  30.046  0.00  0.00    -0.271 NA
ATOM     19  C   UNL     1      49.691 158.580  29.901  0.00  0.00    +0.077 C 
ATOM     20  C   UNL     1      48.761 159.797  29.731  0.00  0.00    +0.043 C 
ATOM     21  C   UNL     1      48.518 160.381  31.080  0.00  0.00    -0.025 C 
ATOM     22  C   UNL     1      49.492 160.742  31.988  0.00  0.00    -0.025 C 
ATOM     23  C   UNL     1      49.092 161.269  33.201  0.00  0.00    -0.005 C 
ATOM     24  C   UNL     1      47.739 161.423  33.482  0.00  0.00    -0.000 C 
ATOM     25  C   UNL     1      46.763 161.067  32.588  0.00  0.00    -0.000 C 
ATOM     26  C   UNL     1      47.162 160.541  31.375  0.00  0.00    -0.005 C 
ATOM     27  C   UNL     1      50.970 160.644  31.837  0.00  0.00    +0.043 C 
ATOM     28  C   UNL     1      51.315 159.233  31.417  0.00  0.00    +0.077 C 
ENDBRANCH   1  18
BRANCH   1  29
ATOM     29  C   UNL     1      53.307 158.935  29.571  0.00  0.00    +0.044 C 
ATOM     30  C   UNL     1      54.576 158.433  29.502  0.00  0.00    +0.062 C 
ATOM     31  N   UNL     1      55.701 159.172  29.684  0.00  0.00    -0.311 N 
ATOM     32  C   UNL     1      55.590 160.480  29.950  0.00  0.00    +0.065 C 
ATOM     33  C   UNL     1      54.325 161.038  30.030  0.00  0.00    +0.058 C 
ATOM     34  C   UNL     1      53.171 160.316  29.851  0.00  0.00    +0.195 C 
ATOM     35  O   UNL     1      52.009 160.776  29.914  0.00  0.00    -0.287 OA
ATOM     36  H   UNL     1      56.589 158.751  29.621  0.00  0.00    +0.152 HD
ENDBRANCH   1  29
TORSDOF 2
