REMARK  Name = =
REMARK  3 active torsions:
REMARK  status: ('A' for Active; 'I' for Inactive)
REMARK    1  A    between atoms: C_1  and  N_18
REMARK    2  A    between atoms: C_1  and  C_29
REMARK    3  A    between atoms: C_30  and  N_36
REMARK                            x       y       z     vdW  Elec       q    Type
REMARK                         _______ _______ _______ _____ _____    ______ ____
ROOT
ATOM      1  C   UNL     1      52.447 157.167  28.396  0.00  0.00    +0.073 C 
ATOM      2  C   UNL     1      52.443 157.062  29.872  0.00  0.00    +0.020 C 
ATOM      3  C   UNL     1      52.060 158.269  30.675  0.00  0.00    +0.006 C 
ATOM      4  C   UNL     1      50.612 158.574  30.299  0.00  0.00    +0.018 C 
ATOM      5  C   UNL     1      49.852 159.387  31.240  0.00  0.00    +0.004 C 
ATOM      6  C   UNL     1      48.740 160.115  30.533  0.00  0.00    +0.005 C 
ATOM      7  C   UNL     1      47.902 160.937  31.464  0.00  0.00    +0.000 C 
ATOM      8  C   UNL     1      48.638 161.585  32.562  0.00  0.00    +0.000 C 
ATOM      9  C   UNL     1      47.875 161.452  33.828  0.00  0.00    +0.000 C 
ATOM     10  C   UNL     1      46.772 160.459  33.560  0.00  0.00    +0.000 C 
ATOM     11  C   UNL     1      46.900 160.001  32.135  0.00  0.00    +0.000 C 
ATOM     12  C   UNL     1      50.091 161.476  32.628  0.00  0.00    +0.000 C 
ATOM     13  C   UNL     1      50.763 160.310  31.995  0.00  0.00    +0.000 C 
ATOM     14  C   UNL     1      49.317 160.921  29.395  0.00  0.00    +0.025 C 
ATOM     15  C   UNL     1      50.005 159.985  28.468  0.00  0.00    -0.035 C 
ATOM     16  C   UNL     1      50.611 158.883  28.889  0.00  0.00    -0.047 C 
ATOM     17  C   UNL     1      51.278 157.977  27.935  0.00  0.00    +0.041 C 
ENDROOT
BRANCH   1  18
ATOM     18  N   UNL     1      52.278 155.793  27.890  0.00  0.00    -0.271 NA
ATOM     19  C   UNL     1      51.031 155.199  28.034  0.00  0.00    +0.077 C 
ATOM     20  C   UNL     1      50.999 153.939  28.890  0.00  0.00    +0.043 C 
ATOM     21  C   UNL     1      51.592 152.786  28.150  0.00  0.00    -0.025 C 
ATOM     22  C   UNL     1      52.684 152.804  27.310  0.00  0.00    -0.025 C 
ATOM     23  C   UNL     1      53.139 151.659  26.677  0.00  0.00    -0.005 C 
ATOM     24  C   UNL     1      52.477 150.468  26.898  0.00  0.00    -0.000 C 
ATOM     25  C   UNL     1      51.383 150.428  27.734  0.00  0.00    -0.000 C 
ATOM     26  C   UNL     1      50.950 151.589  28.352  0.00  0.00    -0.005 C 
ATOM     27  C   UNL     1      53.522 153.989  26.947  0.00  0.00    +0.043 C 
ATOM     28  C   UNL     1      53.427 154.977  28.090  0.00  0.00    +0.077 C 
ENDBRANCH   1  18
BRANCH   1  29
ATOM     29  C   UNL     1      53.675 157.642  27.780  0.00  0.00    +0.057 C 
ATOM     30  C   UNL     1      53.983 157.303  26.450  0.00  0.00    +0.102 C 
ATOM     31  N   UNL     1      55.118 157.782  25.888  0.00  0.00    -0.300 N 
ATOM     32  C   UNL     1      55.981 158.572  26.544  0.00  0.00    +0.066 C 
ATOM     33  C   UNL     1      55.726 158.925  27.835  0.00  0.00    +0.058 C 
ATOM     34  C   UNL     1      54.567 158.443  28.425  0.00  0.00    +0.197 C 
ATOM     35  O   UNL     1      54.373 158.779  29.593  0.00  0.00    -0.287 OA
ATOM     36  H   UNL     1      55.319 157.539  24.955  0.00  0.00    +0.153 HD
BRANCH  30  37
ATOM     37  N   UNL     1      53.194 156.426  25.693  0.00  0.00    -0.287 N 
ATOM     38  C   UNL     1      53.672 155.404  24.861  0.00  0.00    +0.133 C 
ATOM     39  N   UNL     1      54.933 155.071  24.607  0.00  0.00    -0.229 NA
ATOM     40  C   UNL     1      55.325 154.087  23.807  0.00  0.00    +0.100 C 
ATOM     41  C   UNL     1      54.378 153.296  23.145  0.00  0.00    +0.021 C 
ATOM     42  C   UNL     1      53.048 153.583  23.360  0.00  0.00    +0.004 C 
ATOM     43  C   UNL     1      52.703 154.609  24.195  0.00  0.00    +0.034 C 
ATOM     44  H   UNL     1      52.218 156.538  25.751  0.00  0.00    +0.155 HD
ENDBRANCH  30  37
ENDBRANCH   1  29
TORSDOF 3
