MODEL 1
REMARK VINA RESULT:    -5.904      0.000      0.000
REMARK INTER + INTRA:         -10.843
REMARK INTER:                 -10.046
REMARK INTRA:                  -0.797
REMARK UNBOUND:                -0.797
REMARK  Name = =
REMARK  15 active torsions:
REMARK  status: ('A' for Active; 'I' for Inactive)
REMARK    1  A    between atoms: C_1  and  C_9
REMARK    2  A    between atoms: C_1  and  S_18
REMARK    3  A    between atoms: C_4  and  C_15
REMARK    4  A    between atoms: C_5  and  S_14
REMARK    5  A    between atoms: C_15  and  O_17
REMARK    6  A    between atoms: S_18  and  S_19
REMARK    7  A    between atoms: S_18  and  S_30
REMARK    8  A    between atoms: S_19  and  P_20
REMARK    9  A    between atoms: P_20  and  O_22
REMARK   10  A    between atoms: P_20  and  O_23
REMARK   11  A    between atoms: O_23  and  C_24
REMARK   12  A    between atoms: C_24  and  C_26
REMARK   13  A    between atoms: C_26  and  O_27
REMARK   14  A    between atoms: C_26  and  N_28
REMARK   15  A    between atoms: N_28  and  O_29
REMARK                            x       y       z     vdW  Elec       q    Type
REMARK                         _______ _______ _______ _____ _____    ______ ____
ROOT
ATOM      1  C   UNL     1      60.125 162.893  38.301  0.00  0.00    +0.192 C 
ATOM      2  C   UNL     1      59.170 162.151  39.121  0.00  0.00    +0.110 C 
ATOM      3  N   UNL     1      60.135 161.064  39.360  0.00  0.00    -0.252 N 
ATOM      4  C   UNL     1      59.639 160.379  40.481  0.00  0.00    +0.132 C 
ATOM      5  C   UNL     1      58.786 161.131  41.162  0.00  0.00    +0.021 C 
ATOM      6  C   UNL     1      58.681 162.464  40.442  0.00  0.00    +0.056 C 
ATOM      7  C   UNL     1      60.857 161.568  38.225  0.00  0.00    +0.248 C 
ATOM      8  O   UNL     1      61.728 161.069  37.500  0.00  0.00    -0.273 OA
ENDROOT
BRANCH   1   9
ATOM      9  C   UNL     1      59.481 163.058  36.933  0.00  0.00    +0.247 C 
ATOM     10  O   UNL     1      59.219 164.199  36.480  0.00  0.00    -0.273 OA
ATOM     11  N   UNL     1      59.165 161.907  36.141  0.00  0.00    -0.247 N 
ATOM     12  C   UNL     1      58.561 162.049  34.855  0.00  0.00    +0.306 C 
ATOM     13  O   UNL     1      58.295 163.166  34.391  0.00  0.00    -0.265 OA
ATOM     14  H   UNL     1      59.367 161.007  36.488  0.00  0.00    +0.158 HD
ENDBRANCH   1   9
BRANCH   5  15
ATOM     15  S   UNL     1      57.923 160.650  42.651  0.00  0.00    -0.144 S 
ATOM     16  H   UNL     1      56.980 161.583  42.950  0.00  0.00    +0.107 HD
ENDBRANCH   5  15
BRANCH   4  17
ATOM     17  C   UNL     1      60.050 158.996  40.813  0.00  0.00    +0.352 C 
ATOM     18  O   UNL     1      59.328 158.068  40.414  0.00  0.00    -0.244 OA
BRANCH  17  19
ATOM     19  O   UNL     1      61.195 158.724  41.543  0.00  0.00    -0.476 OA
ATOM     20  H   UNL     1      62.020 158.640  41.108  0.00  0.00    +0.295 HD
ENDBRANCH  17  19
ENDBRANCH   4  17
BRANCH   1  21
ATOM     21  S   UNL     1      60.799 164.226  38.828  0.00  0.00    -0.122 S 
ATOM     22  H   UNL     1      61.181 164.300  40.131  0.00  0.00    +0.105 HD
BRANCH  21  23
ATOM     23  S   UNL     1      62.058 164.254  37.904  0.00  0.00    -0.121 S 
ATOM     24  H   UNL     1      62.047 165.391  37.158  0.00  0.00    +0.113 HD
ENDBRANCH  21  23
BRANCH  21  25
ATOM     25  S   UNL     1      59.669 165.626  38.984  0.00  0.00    +0.029 S 
BRANCH  25  26
ATOM     26  P   UNL     1      60.375 167.098  38.193  0.00  0.00    +0.452 P 
ATOM     27  O   UNL     1      61.660 167.417  38.975  0.00  0.00    -0.233 OA
BRANCH  26  28
ATOM     28  O   UNL     1      59.392 168.483  38.273  0.00  0.00    -0.307 OA
ATOM     29  H   UNL     1      58.517 168.240  38.615  0.00  0.00    +0.222 HD
ENDBRANCH  26  28
BRANCH  26  30
ATOM     30  O   UNL     1      60.866 166.825  36.575  0.00  0.00    -0.381 OA
BRANCH  30  31
ATOM     31  C   UNL     1      60.560 167.730  35.599  0.00  0.00    +0.368 C 
ATOM     32  O   UNL     1      60.851 168.944  35.757  0.00  0.00    -0.245 OA
BRANCH  31  33
ATOM     33  C   UNL     1      59.899 167.357  34.355  0.00  0.00    +0.294 C 
BRANCH  33  34
ATOM     34  O   UNL     1      59.210 166.307  34.321  0.00  0.00    -0.360 OA
ATOM     35  H   UNL     1      59.583 165.656  34.935  0.00  0.00    +0.213 HD
ENDBRANCH  33  34
BRANCH  33  36
ATOM     36  N   UNL     1      59.992 168.126  33.168  0.00  0.00    -0.159 NA
ATOM     37  H   UNL     1      59.137 168.681  33.124  0.00  0.00    +0.157 HD
BRANCH  36  38
ATOM     38  O   UNL     1      61.013 168.990  32.930  0.00  0.00    -0.312 OA
ATOM     39  H   UNL     1      61.527 168.680  32.168  0.00  0.00    +0.236 HD
ENDBRANCH  36  38
ENDBRANCH  33  36
ENDBRANCH  31  33
ENDBRANCH  30  31
ENDBRANCH  26  30
ENDBRANCH  25  26
ENDBRANCH  21  25
ENDBRANCH   1  21
TORSDOF 15
ENDMDL
