MODEL 1
REMARK VINA RESULT:    -6.664      0.000      0.000
REMARK INTER + INTRA:         -10.632
REMARK INTER:                  -9.391
REMARK INTRA:                  -1.241
REMARK UNBOUND:                -1.241
REMARK  Name = =
REMARK  8 active torsions:
REMARK  status: ('A' for Active; 'I' for Inactive)
REMARK    1  A    between atoms: C_1  and  C_5
REMARK    2  A    between atoms: C_1  and  S_19
REMARK    3  A    between atoms: N_2  and  N_15
REMARK    4  A    between atoms: C_8  and  O_10
REMARK    5  A    between atoms: O_10  and  P_11
REMARK    6  A    between atoms: P_11  and  O_13
REMARK    7  A    between atoms: P_11  and  O_14
REMARK    8  A    between atoms: C_20  and  C_24
REMARK                            x       y       z     vdW  Elec       q    Type
REMARK                         _______ _______ _______ _____ _____    ______ ____
ROOT
ATOM      1  C   UNL     1      59.342 161.758  38.517  0.00  0.00    +0.113 C 
ATOM      2  N   UNL     1      59.019 160.582  38.422  0.00  0.00    -0.173 NA
ENDROOT
BRANCH   1   5
ATOM      3  F   UNL     1      61.855 163.114  38.592  0.00  0.00    -0.204 F 
ATOM      4  C   UNL     1      61.023 163.296  37.569  0.00  0.00    +0.145 C 
ATOM      5  C   UNL     1      59.812 162.645  37.481  0.00  0.00    +0.051 C 
ATOM      6  C   UNL     1      59.081 162.954  36.338  0.00  0.00    +0.007 C 
ATOM      7  C   UNL     1      59.491 163.821  35.365  0.00  0.00    +0.038 C 
ATOM      8  C   UNL     1      60.699 164.450  35.481  0.00  0.00    +0.151 C 
ATOM      9  C   UNL     1      61.455 164.191  36.571  0.00  0.00    +0.067 C 
BRANCH   8  10
ATOM     10  O   UNL     1      61.074 165.325  34.464  0.00  0.00    -0.403 OA
BRANCH  10  11
ATOM     11  P   UNL     1      60.785 166.987  34.542  0.00  0.00    +0.528 P 
ATOM     12  O   UNL     1      62.068 167.725  34.792  0.00  0.00    -0.216 OA
BRANCH  11  13
ATOM     13  O   UNL     1      59.720 167.396  35.802  0.00  0.00    -0.293 OA
ATOM     14  H   UNL     1      58.883 166.920  35.685  0.00  0.00    +0.223 HD
ENDBRANCH  11  13
BRANCH  11  15
ATOM     15  O   UNL     1      60.141 167.482  33.057  0.00  0.00    -0.293 OA
ATOM     16  H   UNL     1      60.416 168.395  32.874  0.00  0.00    +0.223 HD
ENDBRANCH  11  15
ENDBRANCH  10  11
ENDBRANCH   8  10
ENDBRANCH   1   5
BRANCH   2  17
ATOM     17  N   UNL     1      58.862 159.516  37.668  0.00  0.00    -0.190 N 
ATOM     18  C   UNL     1      58.858 158.186  38.250  0.00  0.00    +0.317 C 
ATOM     19  O   UNL     1      59.006 158.042  39.501  0.00  0.00    -0.251 OA
ATOM     20  N   UNL     1      58.693 157.012  37.487  0.00  0.00    -0.312 N 
ATOM     21  H   UNL     1      58.746 159.621  36.696  0.00  0.00    +0.179 HD
ATOM     22  H   UNL     1      58.574 157.072  36.512  0.00  0.00    +0.147 HD
ATOM     23  H   UNL     1      58.697 156.134  37.930  0.00  0.00    +0.147 HD
ENDBRANCH   2  17
BRANCH   1  24
ATOM     24  S   UNL     1      59.134 162.566  40.180  0.00  0.00    -0.132 S 
ATOM     25  C   UNL     1      57.845 161.796  41.209  0.00  0.00    +0.133 C 
ATOM     26  N   UNL     1      58.420 160.783  41.772  0.00  0.00    -0.178 NA
ATOM     27  N   UNL     1      59.730 160.591  41.459  0.00  0.00    -0.247 N 
ATOM     28  C   UNL     1      60.471 161.825  41.380  0.00  0.00    +0.154 C 
ATOM     29  H   UNL     1      59.035 163.887  39.871  0.00  0.00    +0.097 HD
ATOM     30  H   UNL     1      60.129 159.705  41.303  0.00  0.00    +0.170 HD
BRANCH  25  31
ATOM     31  C   UNL     1      56.480 162.147  41.431  0.00  0.00    +0.125 C 
ATOM     32  N   UNL     1      56.103 163.396  41.537  0.00  0.00    -0.291 NA
ATOM     33  I   UNL     1      55.026 160.633  41.569  0.00  0.00    -0.020 I 
ATOM     34  H   UNL     1      55.155 163.612  41.691  0.00  0.00    +0.187 HD
ENDBRANCH  25  31
ENDBRANCH   1  24
TORSDOF 8
ENDMDL
