REMARK  Name = =
REMARK  14 active torsions:
REMARK  status: ('A' for Active; 'I' for Inactive)
REMARK    1  A    between atoms: S_1  and  C_2
REMARK    2  A    between atoms: S_1  and  C_17
REMARK    3  A    between atoms: S_1  and  S_34
REMARK    4  A    between atoms: C_2  and  N_3
REMARK    5  A    between atoms: C_2  and  C_31
REMARK    6  A    between atoms: N_3  and  N_14
REMARK    7  A    between atoms: N_6  and  N_7
REMARK    8  A    between atoms: N_10  and  N_11
REMARK    9  A    between atoms: N_15  and  C_17
REMARK   10  A    between atoms: N_15  and  C_19
REMARK   11  A    between atoms: C_17  and  C_28
REMARK   12  A    between atoms: C_28  and  O_30
REMARK   13  A    between atoms: C_31  and  O_33
REMARK   14  A    between atoms: S_34  and  S_35
REMARK                            x       y       z     vdW  Elec       q    Type
REMARK                         _______ _______ _______ _____ _____    ______ ____
ROOT
ATOM      1  C   UNL     1     -12.763 -43.354  30.865  0.00  0.00    +0.242 C 
ENDROOT
BRANCH   1   2
ATOM      2  N   UNL     1     -11.971 -43.183  31.997  0.00  0.00    -0.191 N 
ATOM      3  C   UNL     1     -10.648 -42.731  32.042  0.00  0.00    +0.334 C 
ATOM      4  O   UNL     1     -10.043 -42.419  31.000  0.00  0.00    -0.250 OA
ATOM      5  N   UNL     1      -9.954 -42.616  33.275  0.00  0.00    -0.216 N 
ATOM      6  H   UNL     1     -10.472 -42.876  34.071  0.00  0.00    +0.174 HD
BRANCH   5   7
ATOM      7  N   UNL     1      -8.671 -42.198  33.529  0.00  0.00    -0.216 N 
ATOM      8  C   UNL     1      -7.472 -42.842  33.239  0.00  0.00    +0.332 C 
ATOM      9  O   UNL     1      -7.401 -43.938  32.690  0.00  0.00    -0.250 OA
ATOM     10  N   UNL     1      -6.205 -42.219  33.589  0.00  0.00    -0.217 N 
ATOM     11  H   UNL     1      -8.588 -41.325  33.977  0.00  0.00    +0.174 HD
ATOM     12  H   UNL     1      -6.190 -41.340  34.032  0.00  0.00    +0.174 HD
BRANCH  10  13
ATOM     13  N   UNL     1      -5.004 -42.880  33.290  0.00  0.00    -0.225 N 
ATOM     14  C   UNL     1      -3.791 -42.567  33.940  0.00  0.00    +0.316 C 
ATOM     15  O   UNL     1      -3.776 -41.664  34.819  0.00  0.00    -0.264 OA
ATOM     16  H   UNL     1      -5.008 -43.586  32.604  0.00  0.00    +0.173 HD
ENDBRANCH  10  13
ENDBRANCH   5   7
BRANCH   2  17
ATOM     17  N   UNL     1     -12.580 -43.524  33.249  0.00  0.00    -0.248 NA
ATOM     18  H   UNL     1     -13.537 -43.837  33.087  0.00  0.00    +0.141 HD
ATOM     19  H   UNL     1     -12.589 -42.705  33.857  0.00  0.00    +0.141 HD
ENDBRANCH   2  17
ENDBRANCH   1   2
BRANCH   1  20
ATOM     20  C   UNL     1     -14.188 -43.444  30.749  0.00  0.00    +0.344 C 
ATOM     21  O   UNL     1     -14.702 -44.432  30.082  0.00  0.00    -0.247 OA
BRANCH  20  22
ATOM     22  O   UNL     1     -15.069 -42.558  31.291  0.00  0.00    -0.478 OA
ATOM     23  H   UNL     1     -14.754 -41.825  31.783  0.00  0.00    +0.295 HD
ENDBRANCH  20  22
ENDBRANCH   1  20
BRANCH   1  24
ATOM     24  S   UNL     1     -11.916 -43.423  29.402  0.00  0.00    -0.059 S 
BRANCH  24  25
ATOM     25  C   UNL     1     -12.948 -43.590  27.907  0.00  0.00    +0.261 C 
BRANCH  25  26
ATOM     26  N   UNL     1     -13.343 -42.486  27.351  0.00  0.00    -0.187 N 
ATOM     27  O   UNL     1     -13.004 -41.275  27.942  0.00  0.00    -0.083 OA
BRANCH  26  29
ATOM     28  C   UNL     1     -15.448 -42.345  26.200  0.00  0.00    +0.018 C 
ATOM     29  C   UNL     1     -14.082 -42.521  26.146  0.00  0.00    +0.086 C 
ATOM     30  C   UNL     1     -13.466 -42.712  24.923  0.00  0.00    +0.019 C 
ATOM     31  C   UNL     1     -14.155 -42.736  23.737  0.00  0.00    +0.002 C 
ATOM     32  C   UNL     1     -15.521 -42.559  23.791  0.00  0.00    +0.000 C 
ATOM     33  C   UNL     1     -16.172 -42.366  25.007  0.00  0.00    +0.001 C 
ATOM     34  C   UNL     1     -17.543 -42.180  25.043  0.00  0.00    +0.000 C 
ATOM     35  C   UNL     1     -18.155 -41.982  26.233  0.00  0.00    +0.000 C 
ATOM     36  C   UNL     1     -17.485 -41.951  27.441  0.00  0.00    +0.000 C 
ATOM     37  C   UNL     1     -16.119 -42.137  27.396  0.00  0.00    +0.001 C 
ENDBRANCH  26  29
ENDBRANCH  25  26
BRANCH  25  38
ATOM     38  C   UNL     1     -13.198 -44.911  27.404  0.00  0.00    +0.348 C 
ATOM     39  O   UNL     1     -13.495 -45.183  26.235  0.00  0.00    -0.247 OA
BRANCH  38  40
ATOM     40  O   UNL     1     -13.104 -45.996  28.289  0.00  0.00    -0.478 OA
ATOM     41  H   UNL     1     -12.882 -45.850  29.188  0.00  0.00    +0.295 HD
ENDBRANCH  38  40
ENDBRANCH  25  38
ENDBRANCH  24  25
BRANCH  24  42
ATOM     42  S   UNL     1     -10.093 -44.585  29.533  0.00  0.00    -0.033 S 
BRANCH  42  43
ATOM     43  S   UNL     1     -10.151 -46.033  31.054  0.00  0.00    -0.100 S 
ATOM     44  H   UNL     1      -8.976 -46.718  31.073  0.00  0.00    +0.115 HD
ENDBRANCH  42  43
ENDBRANCH  24  42
ENDBRANCH   1  24
TORSDOF 14
