REMARK  Name = =
REMARK  3 active torsions:
REMARK  status: ('A' for Active; 'I' for Inactive)
REMARK    1  A    between atoms: C_1  and  N_7
REMARK    2  A    between atoms: C_4  and  O_13
REMARK    3  A    between atoms: N_7  and  S_10
REMARK                            x       y       z     vdW  Elec       q    Type
REMARK                         _______ _______ _______ _____ _____    ______ ____
ROOT
ATOM      1  C   UNL     1      -0.942  -1.832  26.876  0.00  0.00    +0.077 C 
ATOM      2  C   UNL     1      -1.614  -1.722  25.675  0.00  0.00    +0.020 C 
ATOM      3  C   UNL     1      -0.862  -1.523  24.522  0.00  0.00    +0.038 C 
ATOM      4  C   UNL     1       0.514  -1.436  24.548  0.00  0.00    +0.134 C 
ATOM      5  C   UNL     1       1.156  -1.552  25.772  0.00  0.00    +0.038 C 
ATOM      6  C   UNL     1       0.441  -1.748  26.934  0.00  0.00    +0.020 C 
ENDROOT
BRANCH   1   7
ATOM      7  N   UNL     1      -1.712  -2.034  28.051  0.00  0.00    -0.137 N 
ATOM      8  C   UNL     1      -2.263  -0.938  28.755  0.00  0.00    +0.327 C 
ATOM      9  O   UNL     1      -2.944  -1.101  29.794  0.00  0.00    -0.263 OA
BRANCH   7  10
ATOM     10  S   UNL     1      -1.949  -3.663  28.588  0.00  0.00    +0.042 S 
ATOM     11  O   UNL     1      -0.805  -4.497  28.117  0.00  0.00    -0.157 OA
ATOM     12  O   UNL     1      -2.032  -3.724  30.085  0.00  0.00    -0.157 OA
ATOM     13  H   UNL     1      -3.118  -4.133  28.076  0.00  0.00    +0.234 HD
ENDBRANCH   7  10
ENDBRANCH   1   7
BRANCH   4  14
ATOM     14  O   UNL     1       1.235  -1.238  23.370  0.00  0.00    -0.506 OA
ATOM     15  H   UNL     1       0.784  -1.162  22.552  0.00  0.00    +0.292 HD
ENDBRANCH   4  14
TORSDOF 3
