REMARK  Name = =
REMARK  4 active torsions:
REMARK  status: ('A' for Active; 'I' for Inactive)
REMARK    1  A    between atoms: C_1  and  N_12
REMARK    2  A    between atoms: C_4  and  O_18
REMARK    3  A    between atoms: C_5  and  N_7
REMARK    4  A    between atoms: N_12  and  S_15
REMARK                            x       y       z     vdW  Elec       q    Type
REMARK                         _______ _______ _______ _____ _____    ______ ____
ROOT
ATOM      1  C   UNL     1      -0.123  -2.318  27.799  0.00  0.00    +0.078 C 
ATOM      2  C   UNL     1      -1.049  -1.428  28.311  0.00  0.00    +0.020 C 
ATOM      3  C   UNL     1      -1.957  -1.819  29.269  0.00  0.00    +0.039 C 
ATOM      4  C   UNL     1      -1.994  -3.101  29.765  0.00  0.00    +0.148 C 
ATOM      5  C   UNL     1      -1.074  -3.993  29.260  0.00  0.00    +0.091 C 
ATOM      6  C   UNL     1      -0.163  -3.608  28.300  0.00  0.00    +0.035 C 
ENDROOT
BRANCH   5   7
ATOM      7  N   UNL     1      -1.066  -5.350  29.742  0.00  0.00    -0.261 N 
ATOM      8  C   UNL     1      -0.372  -6.352  29.192  0.00  0.00    +0.070 C 
ATOM      9  C   UNL     1      -0.578  -7.539  29.896  0.00  0.00    +0.018 C 
ATOM     10  C   UNL     1      -1.442  -7.213  30.916  0.00  0.00    +0.018 C 
ATOM     11  C   UNL     1      -1.721  -5.871  30.796  0.00  0.00    +0.070 C 
ENDBRANCH   5   7
BRANCH   1  12
ATOM     12  N   UNL     1       0.826  -1.929  26.806  0.00  0.00    -0.137 N 
ATOM     13  C   UNL     1       0.466  -1.679  25.471  0.00  0.00    +0.327 C 
ATOM     14  O   UNL     1      -0.725  -1.794  25.116  0.00  0.00    -0.263 OA
BRANCH  12  15
ATOM     15  S   UNL     1       2.471  -1.765  27.279  0.00  0.00    +0.042 S 
ATOM     16  O   UNL     1       2.590  -1.033  28.578  0.00  0.00    -0.157 OA
ATOM     17  O   UNL     1       3.247  -1.076  26.197  0.00  0.00    -0.157 OA
ATOM     18  H   UNL     1       2.994  -3.006  27.466  0.00  0.00    +0.234 HD
ENDBRANCH  12  15
ENDBRANCH   1  12
BRANCH   4  19
ATOM     19  O   UNL     1      -2.903  -3.507  30.729  0.00  0.00    -0.504 OA
ATOM     20  H   UNL     1      -3.527  -2.898  31.070  0.00  0.00    +0.292 HD
ENDBRANCH   4  19
TORSDOF 4
