REMARK  Name = =
REMARK  5 active torsions:
REMARK  status: ('A' for Active; 'I' for Inactive)
REMARK    1  A    between atoms: C_1  and  N_12
REMARK    2  A    between atoms: C_4  and  O_18
REMARK    3  A    between atoms: C_5  and  N_7
REMARK    4  A    between atoms: N_12  and  S_15
REMARK    5  A    between atoms: O_18  and  N_19
REMARK                            x       y       z     vdW  Elec       q    Type
REMARK                         _______ _______ _______ _____ _____    ______ ____
ROOT
ATOM      1  C   UNL     1      -0.169  -2.359  28.124  0.00  0.00    +0.078 C 
ATOM      2  C   UNL     1      -1.243  -1.582  28.504  0.00  0.00    +0.020 C 
ATOM      3  C   UNL     1      -2.183  -2.063  29.381  0.00  0.00    +0.042 C 
ATOM      4  C   UNL     1      -2.095  -3.327  29.913  0.00  0.00    +0.179 C 
ATOM      5  C   UNL     1      -1.030  -4.115  29.546  0.00  0.00    +0.094 C 
ATOM      6  C   UNL     1      -0.079  -3.639  28.663  0.00  0.00    +0.035 C 
ENDROOT
BRANCH   5   7
ATOM      7  N   UNL     1      -0.904  -5.427  30.074  0.00  0.00    -0.261 N 
ATOM      8  C   UNL     1      -0.132  -5.782  31.110  0.00  0.00    +0.070 C 
ATOM      9  C   UNL     1      -0.313  -7.157  31.285  0.00  0.00    +0.018 C 
ATOM     10  C   UNL     1      -1.205  -7.582  30.329  0.00  0.00    +0.018 C 
ATOM     11  C   UNL     1      -1.563  -6.494  29.583  0.00  0.00    +0.070 C 
ENDBRANCH   5   7
BRANCH   1  12
ATOM     12  N   UNL     1       0.821  -1.884  27.217  0.00  0.00    -0.137 N 
ATOM     13  C   UNL     1       2.106  -1.527  27.680  0.00  0.00    +0.327 C 
ATOM     14  O   UNL     1       2.963  -1.113  26.870  0.00  0.00    -0.263 OA
BRANCH  12  15
ATOM     15  S   UNL     1       0.421  -1.752  25.529  0.00  0.00    +0.042 S 
ATOM     16  O   UNL     1       0.971  -0.462  25.015  0.00  0.00    -0.157 OA
ATOM     17  O   UNL     1      -1.052  -1.801  25.314  0.00  0.00    -0.157 OA
ATOM     18  H   UNL     1       0.965  -2.803  24.858  0.00  0.00    +0.234 HD
ENDBRANCH  12  15
ENDBRANCH   1  12
BRANCH   4  19
ATOM     19  O   UNL     1      -3.056  -3.784  30.793  0.00  0.00    -0.400 OA
BRANCH  19  20
ATOM     20  N   UNL     1      -4.179  -3.113  31.061  0.00  0.00    -0.121 NA
ATOM     21  C   UNL     1      -4.061  -1.842  31.669  0.00  0.00    +0.113 C 
ATOM     22  C   UNL     1      -5.398  -1.119  31.461  0.00  0.00    +0.021 C 
ATOM     23  C   UNL     1      -6.383  -1.836  32.392  0.00  0.00    +0.003 C 
ATOM     24  C   UNL     1      -6.003  -3.283  32.583  0.00  0.00    +0.021 C 
ATOM     25  C   UNL     1      -5.347  -3.857  31.329  0.00  0.00    +0.113 C 
ENDBRANCH  19  20
ENDBRANCH   4  19
TORSDOF 5
