REMARK  Name = =
REMARK  0 active torsions:
REMARK  status: ('A' for Active; 'I' for Inactive)
REMARK                            x       y       z     vdW  Elec       q    Type
REMARK                         _______ _______ _______ _____ _____    ______ ____
ROOT
ATOM      1  C   UNL     1     -13.175 -42.983  26.918  0.00  0.00    +0.296 C 
ATOM      2  O   UNL     1     -13.281 -44.249  26.888  0.00  0.00    -0.265 OA
ATOM      3  N   UNL     1     -14.271 -42.142  27.261  0.00  0.00    -0.322 N 
ATOM      4  H   UNL     1     -14.156 -41.164  27.275  0.00  0.00    +0.145 HD
ATOM      5  H   UNL     1     -15.144 -42.538  27.484  0.00  0.00    +0.145 HD
ENDROOT
TORSDOF 0
