REMARK  Name = =
REMARK  3 active torsions:
REMARK  status: ('A' for Active; 'I' for Inactive)
REMARK    1  A    between atoms: N_1  and  C_34
REMARK    2  A    between atoms: C_2  and  N_5
REMARK    3  A    between atoms: C_35  and  C_38
REMARK                            x       y       z     vdW  Elec       q    Type
REMARK                         _______ _______ _______ _____ _____    ______ ____
ROOT
ATOM      1  N   UNL     1     -16.561 -42.500  26.614  0.00  0.00    -0.296 N 
ATOM      2  C   UNL     1     -15.877 -43.468  27.428  0.00  0.00    +0.124 C 
ATOM      3  C   UNL     1     -14.722 -43.252  26.382  0.00  0.00    +0.058 C 
ATOM      4  C   UNL     1     -15.316 -41.821  26.574  0.00  0.00    +0.108 C 
ENDROOT
BRANCH   2   5
ATOM      5  N   UNL     1     -15.309 -43.309  28.663  0.00  0.00    -0.258 NA
ATOM      6  C   UNL     1     -15.813 -42.615  29.760  0.00  0.00    +0.091 C 
ATOM      7  C   UNL     1     -14.824 -41.911  30.641  0.00  0.00    +0.090 C 
ATOM      8  N   UNL     1     -14.999 -42.217  32.071  0.00  0.00    -0.271 NA
ATOM      9  C   UNL     1     -13.756 -42.081  32.768  0.00  0.00    +0.073 C 
ATOM     10  C   UNL     1     -14.108 -41.650  34.198  0.00  0.00    +0.019 C 
ATOM     11  C   UNL     1     -15.416 -40.960  34.065  0.00  0.00    +0.019 C 
ATOM     12  C   UNL     1     -15.792 -41.105  32.629  0.00  0.00    +0.072 C 
ATOM     13  C   UNL     1     -12.933 -43.362  32.845  0.00  0.00    +0.085 C 
ATOM     14  N   UNL     1     -11.573 -43.025  33.066  0.00  0.00    -0.295 NA
ATOM     15  C   UNL     1     -10.940 -42.150  32.151  0.00  0.00    +0.086 C 
ATOM     16  C   UNL     1     -10.592 -42.722  30.812  0.00  0.00    +0.086 C 
ATOM     17  N   UNL     1     -10.545 -44.152  30.751  0.00  0.00    -0.294 NA
ATOM     18  C   UNL     1      -9.469 -44.634  29.891  0.00  0.00    +0.101 C 
ATOM     19  C   UNL     1     -10.099 -44.976  28.562  0.00  0.00    +0.159 C 
ATOM     20  O   UNL     1     -11.185 -44.094  28.389  0.00  0.00    -0.352 OA
ATOM     21  C   UNL     1     -12.009 -44.661  27.460  0.00  0.00    +0.144 C 
ATOM     22  C   UNL     1     -13.463 -44.816  27.909  0.00  0.00    +0.049 C 
ATOM     23  C   UNL     1     -13.922 -43.702  28.760  0.00  0.00    +0.076 C 
ATOM     24  H   UNL     1     -11.043 -43.896  33.067  0.00  0.00    +0.123 HD
ATOM     25  H   UNL     1     -11.434 -44.494  30.387  0.00  0.00    +0.123 HD
ENDBRANCH   2   5
BRANCH   1  36
ATOM     26  N   UNL     1     -19.332 -41.142  22.890  0.00  0.00    -0.245 NA
ATOM     27  C   UNL     1     -19.217 -41.771  24.063  0.00  0.00    +0.082 C 
ATOM     28  C   UNL     1     -18.029 -41.663  24.783  0.00  0.00    +0.031 C 
ATOM     29  C   UNL     1     -17.014 -40.903  24.263  0.00  0.00    +0.004 C 
ATOM     30  C   UNL     1     -17.190 -40.274  23.036  0.00  0.00    +0.018 C 
ATOM     31  C   UNL     1     -18.360 -40.393  22.344  0.00  0.00    +0.081 C 
ATOM     32  C   UNL     1     -18.574 -39.803  21.088  0.00  0.00    +0.019 C 
ATOM     33  C   UNL     1     -17.506 -39.088  20.606  0.00  0.00    +0.002 C 
ATOM     34  C   UNL     1     -16.302 -38.936  21.273  0.00  0.00    +0.000 C 
ATOM     35  C   UNL     1     -16.130 -39.543  22.525  0.00  0.00    +0.001 C 
ATOM     36  C   UNL     1     -17.870 -42.338  26.026  0.00  0.00    +0.051 C 
ATOM     37  C   UNL     1     -18.927 -43.075  26.512  0.00  0.00    +0.047 C 
ATOM     38  C   UNL     1     -20.104 -43.145  25.743  0.00  0.00    +0.003 C 
ATOM     39  C   UNL     1     -20.255 -42.516  24.550  0.00  0.00    +0.019 C 
BRANCH  37  40
ATOM     40  C   UNL     1     -18.959 -43.626  27.885  0.00  0.00    +0.261 C 
ATOM     41  O   UNL     1     -20.354 -43.857  28.127  0.00  0.00    -0.324 OA
ATOM     42  C   UNL     1     -20.836 -42.997  29.035  0.00  0.00    +0.177 C 
ATOM     43  C   UNL     1     -19.721 -42.021  29.286  0.00  0.00    +0.177 C 
ATOM     44  O   UNL     1     -18.627 -42.683  28.848  0.00  0.00    -0.324 OA
ENDBRANCH  37  40
ENDBRANCH   1  36
TORSDOF 3
