MODEL 1
REMARK VINA RESULT:    -5.187      0.000      0.000
REMARK INTER + INTRA:          -9.422
REMARK INTER:                  -8.220
REMARK INTRA:                  -1.202
REMARK UNBOUND:                -1.202
REMARK  Name = =
REMARK  12 active torsions:
REMARK  status: ('A' for Active; 'I' for Inactive)
REMARK    1  A    between atoms: S_1  and  S_2
REMARK    2  A    between atoms: S_1  and  C_13
REMARK    3  A    between atoms: S_1  and  S_24
REMARK    4  A    between atoms: S_2  and  C_4
REMARK    5  A    between atoms: S_2  and  P_9
REMARK    6  A    between atoms: P_9  and  O_11
REMARK    7  A    between atoms: P_9  and  O_12
REMARK    8  A    between atoms: C_13  and  N_15
REMARK    9  A    between atoms: N_18  and  N_22
REMARK   10  A    between atoms: N_22  and  N_23
REMARK   11  A    between atoms: S_24  and  C_25
REMARK   12  A    between atoms: C_25  and  N_27
REMARK                            x       y       z     vdW  Elec       q    Type
REMARK                         _______ _______ _______ _____ _____    ______ ____
ROOT
ATOM      1  S   UNL     1      60.526 162.232  40.535  0.00  0.00    -0.110 S 
ATOM      2  H   UNL     1      59.771 163.360  40.619  0.00  0.00    +0.109 HD
ENDROOT
BRANCH   1   3
ATOM      3  S   UNL     1      59.354 160.914  41.141  0.00  0.00    -0.094 S 
ATOM      4  H   UNL     1      59.410 160.892  42.499  0.00  0.00    +0.105 HD
BRANCH   3   6
ATOM      5  O   UNL     1      57.737 162.736  40.508  0.00  0.00    -0.441 OA
ATOM      6  C   UNL     1      57.916 161.293  40.420  0.00  0.00    +0.213 C 
ATOM      7  C   UNL     1      56.740 160.692  41.072  0.00  0.00    +0.066 C 
ATOM      8  C   UNL     1      55.975 161.874  41.615  0.00  0.00    +0.114 C 
ATOM      9  C   UNL     1      57.004 162.967  41.672  0.00  0.00    +0.318 C 
ATOM     10  O   UNL     1      57.143 163.848  42.555  0.00  0.00    -0.250 OA
ENDBRANCH   3   6
BRANCH   3  11
ATOM     11  P   UNL     1      59.688 159.346  40.553  0.00  0.00    +0.216 P 
ATOM     12  S   UNL     1      58.816 158.066  41.321  0.00  0.00    +0.002 S 
BRANCH  11  13
ATOM     13  O   UNL     1      61.351 158.954  40.821  0.00  0.00    -0.340 OA
ATOM     14  H   UNL     1      61.724 158.562  40.017  0.00  0.00    +0.218 HD
ENDBRANCH  11  13
BRANCH  11  15
ATOM     15  O   UNL     1      59.489 159.105  38.860  0.00  0.00    -0.340 OA
ATOM     16  H   UNL     1      58.615 158.719  38.690  0.00  0.00    +0.218 HD
ENDBRANCH  11  15
ENDBRANCH   3  11
ENDBRANCH   1   3
BRANCH   1  17
ATOM     17  C   UNL     1      61.090 161.839  39.029  0.00  0.00    +0.111 C 
ATOM     18  S   UNL     1      62.602 161.279  38.767  0.00  0.00    -0.028 S 
BRANCH  17  19
ATOM     19  N   UNL     1      60.269 161.966  37.844  0.00  0.00    -0.257 N 
ATOM     20  C   UNL     1      60.483 162.988  36.916  0.00  0.00    +0.330 C 
ATOM     21  O   UNL     1      61.442 163.856  37.141  0.00  0.00    -0.250 OA
ATOM     22  N   UNL     1      59.722 163.146  35.737  0.00  0.00    -0.126 N 
ATOM     23  C   UNL     1      58.703 162.317  35.251  0.00  0.00    +0.322 C 
ATOM     24  O   UNL     1      58.356 161.293  35.931  0.00  0.00    -0.251 OA
ATOM     25  N   UNL     1      58.011 162.536  34.028  0.00  0.00    -0.312 N 
ATOM     26  H   UNL     1      59.545 161.318  37.689  0.00  0.00    +0.157 HD
ATOM     27  H   UNL     1      58.240 163.311  33.465  0.00  0.00    +0.147 HD
ATOM     28  H   UNL     1      57.305 161.912  33.744  0.00  0.00    +0.147 HD
BRANCH  22  29
ATOM     29  N   UNL     1      60.014 164.264  34.880  0.00  0.00    -0.166 NA
ATOM     30  H   UNL     1      59.902 163.982  33.907  0.00  0.00    +0.164 HD
BRANCH  29  31
ATOM     31  N   UNL     1      59.154 165.311  35.155  0.00  0.00    -0.254 NA
ATOM     32  H   UNL     1      58.253 164.941  35.457  0.00  0.00    +0.138 HD
ATOM     33  H   UNL     1      59.025 165.876  34.316  0.00  0.00    +0.138 HD
ENDBRANCH  29  31
ENDBRANCH  22  29
ENDBRANCH  17  19
ENDBRANCH   1  17
BRANCH   1  34
ATOM     34  S   UNL     1      61.737 162.389  41.284  0.00  0.00    -0.042 S 
BRANCH  34  35
ATOM     35  C   UNL     1      62.692 161.639  42.372  0.00  0.00    +0.114 C 
ATOM     36  S   UNL     1      64.191 162.224  42.815  0.00  0.00    -0.028 S 
BRANCH  35  37
ATOM     37  N   UNL     1      62.341 160.424  43.034  0.00  0.00    -0.346 N 
ATOM     38  H   UNL     1      62.005 159.658  42.513  0.00  0.00    +0.143 HD
ATOM     39  H   UNL     1      62.436 160.350  44.011  0.00  0.00    +0.143 HD
ENDBRANCH  35  37
ENDBRANCH  34  35
ENDBRANCH   1  34
TORSDOF 12
ENDMDL
