REMARK  Name = =
REMARK  0 active torsions:
REMARK  status: ('A' for Active; 'I' for Inactive)
REMARK                            x       y       z     vdW  Elec       q    Type
REMARK                         _______ _______ _______ _____ _____    ______ ____
ROOT
ATOM      1  N   UNL     1      -4.026  -3.812  31.526  0.00  0.00    -0.332 N 
ATOM      2  C   UNL     1      -3.344  -4.568  30.513  0.00  0.00    +0.044 C 
ATOM      3  C   UNL     1      -3.365  -6.021  30.678  0.00  0.00    +0.014 C 
ATOM      4  C   UNL     1      -2.076  -6.701  30.468  0.00  0.00    +0.001 C 
ATOM      5  C   UNL     1      -0.910  -6.090  30.061  0.00  0.00    +0.003 C 
ATOM      6  C   UNL     1      -0.949  -4.653  29.842  0.00  0.00    +0.038 C 
ATOM      7  C   UNL     1       0.181  -3.966  29.408  0.00  0.00    +0.176 C 
ATOM      8  C   UNL     1       0.110  -2.590  29.187  0.00  0.00    +0.176 C 
ATOM      9  C   UNL     1      -1.082  -1.922  29.398  0.00  0.00    +0.036 C 
ATOM     10  C   UNL     1      -2.205  -2.557  29.822  0.00  0.00    -0.016 C 
ATOM     11  C   UNL     1      -2.129  -3.927  30.042  0.00  0.00    +0.012 C 
ATOM     12  C   UNL     1      -3.502  -1.903  30.060  0.00  0.00    +0.048 C 
ATOM     13  C   UNL     1      -4.275  -2.456  31.219  0.00  0.00    +0.092 C 
ATOM     14  O   UNL     1       1.376  -2.207  28.768  0.00  0.00    -0.435 OA
ATOM     15  C   UNL     1       2.267  -3.287  28.898  0.00  0.00    +0.429 C 
ATOM     16  O   UNL     1       1.443  -4.408  29.136  0.00  0.00    -0.435 OA
ATOM     17  C   UNL     1       0.253  -6.801  29.877  0.00  0.00    +0.000 C 
ATOM     18  C   UNL     1       0.257  -8.177  30.108  0.00  0.00    +0.000 C 
ATOM     19  C   UNL     1      -0.911  -8.789  30.517  0.00  0.00    +0.000 C 
ATOM     20  C   UNL     1      -2.080  -8.084  30.703  0.00  0.00    +0.000 C 
ATOM     21  H   UNL     1      -4.303  -4.214  32.381  0.00  0.00    +0.147 HD
ENDROOT
TORSDOF 0
