REMARK  Name = =
REMARK  0 active torsions:
REMARK  status: ('A' for Active; 'I' for Inactive)
REMARK                            x       y       z     vdW  Elec       q    Type
REMARK                         _______ _______ _______ _____ _____    ______ ____
ROOT
ATOM      1  O   UNL     1      -4.160  -5.035  33.784  0.00  0.00    -0.265 OA
ATOM      2  C   UNL     1      -4.194  -3.894  33.267  0.00  0.00    +0.303 C 
ATOM      3  N   UNL     1      -3.879  -3.661  31.917  0.00  0.00    -0.270 N 
ATOM      4  C   UNL     1      -3.513  -4.666  31.022  0.00  0.00    +0.102 C 
ATOM      5  C   UNL     1      -3.752  -6.047  31.118  0.00  0.00    +0.051 C 
ATOM      6  C   UNL     1      -2.558  -6.873  30.690  0.00  0.00    -0.020 C 
ATOM      7  C   UNL     1      -1.625  -6.434  29.785  0.00  0.00    -0.001 C 
ATOM      8  C   UNL     1      -1.727  -5.019  29.360  0.00  0.00    +0.034 C 
ATOM      9  C   UNL     1      -0.898  -4.543  28.355  0.00  0.00    +0.176 C 
ATOM     10  C   UNL     1      -1.089  -3.240  27.890  0.00  0.00    +0.176 C 
ATOM     11  C   UNL     1      -2.085  -2.460  28.428  0.00  0.00    +0.036 C 
ATOM     12  C   UNL     1      -2.902  -2.899  29.405  0.00  0.00    -0.020 C 
ATOM     13  C   UNL     1      -2.713  -4.210  29.881  0.00  0.00    -0.005 C 
ATOM     14  C   UNL     1      -4.003  -2.097  30.002  0.00  0.00    +0.048 C 
ATOM     15  C   UNL     1      -3.949  -2.235  31.499  0.00  0.00    +0.099 C 
ATOM     16  O   UNL     1      -0.128  -3.053  26.905  0.00  0.00    -0.435 OA
ATOM     17  C   UNL     1       0.896  -4.048  27.063  0.00  0.00    +0.429 C 
ATOM     18  O   UNL     1       0.156  -5.105  27.653  0.00  0.00    -0.435 OA
ATOM     19  C   UNL     1      -0.589  -7.194  29.334  0.00  0.00    -0.000 C 
ATOM     20  C   UNL     1      -0.478  -8.496  29.830  0.00  0.00    -0.000 C 
ATOM     21  C   UNL     1      -1.398  -8.964  30.742  0.00  0.00    -0.000 C 
ATOM     22  C   UNL     1      -2.436  -8.173  31.180  0.00  0.00    -0.004 C 
ENDROOT
TORSDOF 0
