REMARK  Name = =
REMARK  3 active torsions:
REMARK  status: ('A' for Active; 'I' for Inactive)
REMARK    1  A    between atoms: C_6  and  N_8
REMARK    2  A    between atoms: C_7  and  S_17
REMARK    3  A    between atoms: S_17  and  N_20
REMARK                            x       y       z     vdW  Elec       q    Type
REMARK                         _______ _______ _______ _____ _____    ______ ____
ROOT
ATOM      1  C   UNL     1      -3.884  -7.987  30.076  0.00  0.00    +0.049 C 
ATOM      2  C   UNL     1      -4.408  -8.588  31.341  0.00  0.00    +0.014 C 
ATOM      3  C   UNL     1      -3.932  -7.898  32.582  0.00  0.00    +0.071 C 
ATOM      4  C   UNL     1      -2.818  -6.980  32.363  0.00  0.00    +0.187 C 
ATOM      5  O   UNL     1      -2.656  -6.007  33.109  0.00  0.00    -0.290 OA
ATOM      6  C   UNL     1      -1.896  -7.243  31.233  0.00  0.00    +0.098 C 
ATOM      7  C   UNL     1      -2.395  -7.732  30.113  0.00  0.00    +0.119 C 
ENDROOT
BRANCH   6   8
ATOM      8  N   UNL     1      -0.518  -6.962  31.368  0.00  0.00    -0.297 N 
ATOM      9  C   UNL     1       0.210  -5.862  30.785  0.00  0.00    +0.118 C 
ATOM     10  C   UNL     1       1.374  -5.619  31.698  0.00  0.00    -0.005 C 
ATOM     11  C   UNL     1       1.498  -6.711  32.496  0.00  0.00    -0.005 C 
ATOM     12  C   UNL     1       0.444  -7.701  32.153  0.00  0.00    +0.118 C 
ATOM     13  C   UNL     1       2.504  -6.719  33.426  0.00  0.00    -0.003 C 
ATOM     14  C   UNL     1       3.370  -5.652  33.550  0.00  0.00    -0.000 C 
ATOM     15  C   UNL     1       3.216  -4.562  32.724  0.00  0.00    -0.000 C 
ATOM     16  C   UNL     1       2.217  -4.520  31.781  0.00  0.00    -0.003 C 
ENDBRANCH   6   8
BRANCH   7  17
ATOM     17  S   UNL     1      -1.421  -8.086  28.695  0.00  0.00    +0.073 S 
ATOM     18  O   UNL     1      -0.523  -6.984  28.297  0.00  0.00    -0.150 OA
ATOM     19  O   UNL     1      -2.300  -8.514  27.540  0.00  0.00    -0.150 OA
BRANCH  17  20
ATOM     20  N   UNL     1      -0.460  -9.463  29.097  0.00  0.00    -0.178 N 
ATOM     21  C   UNL     1       0.165 -10.240  28.053  0.00  0.00    +0.319 C 
ATOM     22  O   UNL     1       0.001  -9.903  26.860  0.00  0.00    -0.264 OA
ATOM     23  H   UNL     1      -0.338  -9.719  30.040  0.00  0.00    +0.177 HD
ENDBRANCH  17  20
ENDBRANCH   7  17
TORSDOF 3
