REMARK  Name = =
REMARK  2 active torsions:
REMARK  status: ('A' for Active; 'I' for Inactive)
REMARK    1  A    between atoms: C_15  and  O_23
REMARK    2  A    between atoms: O_23  and  S_24
REMARK                            x       y       z     vdW  Elec       q    Type
REMARK                         _______ _______ _______ _____ _____    ______ ____
ROOT
ATOM      1  O   UNL     1      -4.072  -4.768  34.012  0.00  0.00    -0.265 OA
ATOM      2  C   UNL     1      -4.589  -3.738  33.507  0.00  0.00    +0.305 C 
ATOM      3  N   UNL     1      -4.494  -3.385  32.131  0.00  0.00    -0.246 N 
ATOM      4  C   UNL     1      -3.806  -4.147  31.166  0.00  0.00    +0.105 C 
ATOM      5  C   UNL     1      -3.221  -5.398  31.598  0.00  0.00    +0.051 C 
ATOM      6  C   UNL     1      -2.478  -6.101  30.534  0.00  0.00    -0.020 C 
ATOM      7  C   UNL     1      -1.901  -5.442  29.475  0.00  0.00    -0.001 C 
ATOM      8  C   UNL     1      -2.205  -4.021  29.310  0.00  0.00    +0.034 C 
ATOM      9  C   UNL     1      -1.564  -3.306  28.327  0.00  0.00    +0.176 C 
ATOM     10  C   UNL     1      -1.796  -1.928  28.245  0.00  0.00    +0.176 C 
ATOM     11  C   UNL     1      -2.646  -1.311  29.132  0.00  0.00    +0.036 C 
ATOM     12  C   UNL     1      -3.294  -2.012  30.118  0.00  0.00    -0.017 C 
ATOM     13  C   UNL     1      -3.073  -3.372  30.206  0.00  0.00    -0.005 C 
ATOM     14  C   UNL     1      -4.193  -1.246  31.010  0.00  0.00    +0.079 C 
ATOM     15  C   UNL     1      -5.162  -2.163  31.728  0.00  0.00    +0.226 C 
ATOM     16  O   UNL     1      -1.036  -1.480  27.184  0.00  0.00    -0.435 OA
ATOM     17  C   UNL     1      -0.131  -2.510  26.774  0.00  0.00    +0.429 C 
ATOM     18  O   UNL     1      -0.684  -3.662  27.332  0.00  0.00    -0.435 OA
ATOM     19  C   UNL     1      -1.129  -6.129  28.535  0.00  0.00    -0.000 C 
ATOM     20  C   UNL     1      -0.943  -7.487  28.673  0.00  0.00    -0.000 C 
ATOM     21  C   UNL     1      -1.526  -8.151  29.738  0.00  0.00    -0.000 C 
ATOM     22  C   UNL     1      -2.289  -7.490  30.672  0.00  0.00    -0.004 C 
ENDROOT
BRANCH  15  23
ATOM     23  O   UNL     1      -6.212  -2.544  30.891  0.00  0.00    -0.226 OA
BRANCH  23  24
ATOM     24  S   UNL     1      -7.684  -1.961  31.391  0.00  0.00    -0.027 S 
ATOM     25  O   UNL     1      -8.455  -2.970  32.182  0.00  0.00    -0.075 OA
ATOM     26  O   UNL     1      -7.480  -0.754  32.268  0.00  0.00    -0.075 OA
ATOM     27  H   UNL     1      -8.386  -1.651  30.268  0.00  0.00    +0.215 HD
ENDBRANCH  23  24
ENDBRANCH  15  23
TORSDOF 2
