REMARK  Name = =
REMARK  5 active torsions:
REMARK  status: ('A' for Active; 'I' for Inactive)
REMARK    1  A    between atoms: C_15  and  O_23
REMARK    2  A    between atoms: O_23  and  S_24
REMARK    3  A    between atoms: S_24  and  N_27
REMARK    4  A    between atoms: C_28  and  C_30
REMARK    5  A    between atoms: C_30  and  O_32
REMARK                            x       y       z     vdW  Elec       q    Type
REMARK                         _______ _______ _______ _____ _____    ______ ____
ROOT
ATOM      1  O   UNL     1      -2.407  -0.474  28.318  0.00  0.00    -0.265 OA
ATOM      2  C   UNL     1      -2.345  -1.396  29.169  0.00  0.00    +0.309 C 
ATOM      3  N   UNL     1      -1.634  -2.588  28.860  0.00  0.00    -0.227 N 
ATOM      4  C   UNL     1      -1.582  -3.629  29.857  0.00  0.00    +0.056 C 
ATOM      5  C   UNL     1      -2.639  -3.550  30.850  0.00  0.00    +0.015 C 
ATOM      6  C   UNL     1      -3.048  -4.831  31.451  0.00  0.00    +0.001 C 
ATOM      7  C   UNL     1      -2.562  -6.049  30.998  0.00  0.00    +0.003 C 
ATOM      8  C   UNL     1      -1.570  -6.102  29.907  0.00  0.00    +0.038 C 
ATOM      9  C   UNL     1      -1.117  -7.337  29.439  0.00  0.00    +0.176 C 
ATOM     10  C   UNL     1      -0.212  -7.325  28.394  0.00  0.00    +0.176 C 
ATOM     11  C   UNL     1       0.238  -6.151  27.822  0.00  0.00    +0.036 C 
ATOM     12  C   UNL     1      -0.212  -4.952  28.288  0.00  0.00    -0.013 C 
ATOM     13  C   UNL     1      -1.139  -4.925  29.358  0.00  0.00    +0.013 C 
ATOM     14  C   UNL     1       0.216  -3.655  27.726  0.00  0.00    +0.080 C 
ATOM     15  C   UNL     1      -0.982  -2.726  27.560  0.00  0.00    +0.231 C 
ATOM     16  O   UNL     1       0.123  -8.636  28.066  0.00  0.00    -0.435 OA
ATOM     17  C   UNL     1      -0.379  -9.484  29.080  0.00  0.00    +0.429 C 
ATOM     18  O   UNL     1      -1.310  -8.657  29.721  0.00  0.00    -0.435 OA
ATOM     19  C   UNL     1      -2.983  -7.218  31.572  0.00  0.00    +0.000 C 
ATOM     20  C   UNL     1      -3.909  -7.189  32.624  0.00  0.00    +0.000 C 
ATOM     21  C   UNL     1      -4.384  -5.979  33.066  0.00  0.00    +0.000 C 
ATOM     22  C   UNL     1      -3.959  -4.807  32.486  0.00  0.00    +0.000 C 
ENDROOT
BRANCH  15  23
ATOM     23  O   UNL     1      -0.491  -1.493  27.165  0.00  0.00    -0.208 OA
BRANCH  23  24
ATOM     24  S   UNL     1       0.185  -1.563  25.627  0.00  0.00    +0.067 S 
ATOM     25  O   UNL     1       0.614  -0.192  25.241  0.00  0.00    -0.052 OA
ATOM     26  O   UNL     1      -0.877  -2.103  24.697  0.00  0.00    -0.052 OA
BRANCH  24  27
ATOM     27  N   UNL     1       1.574  -2.601  25.596  0.00  0.00    -0.176 N 
ATOM     28  C   UNL     1       2.721  -2.360  26.392  0.00  0.00    +0.340 C 
ATOM     29  O   UNL     1       2.761  -1.366  27.155  0.00  0.00    -0.261 OA
ATOM     30  H   UNL     1       1.565  -3.387  25.003  0.00  0.00    +0.177 HD
BRANCH  28  31
ATOM     31  C   UNL     1       3.880  -3.241  26.355  0.00  0.00    +0.394 C 
ATOM     32  O   UNL     1       3.914  -4.250  25.587  0.00  0.00    -0.240 OA
BRANCH  31  33
ATOM     33  O   UNL     1       4.998  -3.032  27.145  0.00  0.00    -0.474 OA
ATOM     34  H   UNL     1       5.028  -2.302  27.731  0.00  0.00    +0.296 HD
ENDBRANCH  31  33
ENDBRANCH  28  31
ENDBRANCH  24  27
ENDBRANCH  23  24
ENDBRANCH  15  23
TORSDOF 5
