REMARK  Name = =
REMARK  4 active torsions:
REMARK  status: ('A' for Active; 'I' for Inactive)
REMARK    1  A    between atoms: N_1  and  C_15
REMARK    2  A    between atoms: C_9  and  C_23
REMARK    3  A    between atoms: C_16  and  S_17
REMARK    4  A    between atoms: S_17  and  N_20
REMARK                            x       y       z     vdW  Elec       q    Type
REMARK                         _______ _______ _______ _____ _____    ______ ____
ROOT
ATOM      1  N   UNL     1      -2.903  -5.189  30.246  0.00  0.00    -0.297 N 
ATOM      2  C   UNL     1      -1.867  -5.274  29.183  0.00  0.00    +0.118 C 
ATOM      3  C   UNL     1      -1.655  -3.795  28.940  0.00  0.00    -0.002 C 
ATOM      4  C   UNL     1      -2.825  -3.115  29.256  0.00  0.00    -0.005 C 
ATOM      5  C   UNL     1      -3.802  -4.201  29.691  0.00  0.00    +0.118 C 
ATOM      6  C   UNL     1      -2.904  -1.753  29.152  0.00  0.00    -0.003 C 
ATOM      7  C   UNL     1      -1.779  -1.053  28.722  0.00  0.00    -0.000 C 
ATOM      8  C   UNL     1      -0.632  -1.720  28.413  0.00  0.00    +0.003 C 
ATOM      9  C   UNL     1      -0.551  -3.114  28.518  0.00  0.00    +0.033 C 
ENDROOT
BRANCH   1  15
ATOM     10  C   UNL     1      -2.404  -7.528  33.115  0.00  0.00    +0.049 C 
ATOM     11  C   UNL     1      -3.798  -7.456  33.683  0.00  0.00    +0.014 C 
ATOM     12  C   UNL     1      -4.409  -6.085  33.516  0.00  0.00    +0.071 C 
ATOM     13  C   UNL     1      -3.656  -5.247  32.567  0.00  0.00    +0.187 C 
ATOM     14  O   UNL     1      -3.666  -4.000  32.720  0.00  0.00    -0.290 OA
ATOM     15  C   UNL     1      -2.900  -5.868  31.449  0.00  0.00    +0.098 C 
ATOM     16  C   UNL     1      -2.296  -6.993  31.760  0.00  0.00    +0.119 C 
BRANCH  16  17
ATOM     17  S   UNL     1      -1.374  -7.834  30.549  0.00  0.00    +0.073 S 
ATOM     18  O   UNL     1      -0.946  -9.210  31.071  0.00  0.00    -0.150 OA
ATOM     19  O   UNL     1      -2.139  -8.111  29.297  0.00  0.00    -0.150 OA
BRANCH  17  20
ATOM     20  N   UNL     1       0.097  -7.020  30.156  0.00  0.00    -0.178 N 
ATOM     21  C   UNL     1       0.826  -7.547  29.044  0.00  0.00    +0.319 C 
ATOM     22  O   UNL     1       0.409  -8.559  28.387  0.00  0.00    -0.264 OA
ATOM     23  H   UNL     1       0.415  -6.240  30.666  0.00  0.00    +0.177 HD
ENDBRANCH  17  20
ENDBRANCH  16  17
ENDBRANCH   1  15
BRANCH   9  24
ATOM     24  C   UNL     1       0.707  -3.729  28.172  0.00  0.00    +0.165 C 
ATOM     25  N   UNL     1       0.915  -4.228  26.947  0.00  0.00    -0.205 NA
ATOM     26  C   UNL     1       2.071  -4.819  26.583  0.00  0.00    +0.202 C 
ATOM     27  N   UNL     1       3.046  -4.894  27.522  0.00  0.00    -0.202 NA
ATOM     28  C   UNL     1       2.883  -4.408  28.765  0.00  0.00    +0.202 C 
ATOM     29  N   UNL     1       1.708  -3.834  29.056  0.00  0.00    -0.205 NA
ENDBRANCH   9  24
TORSDOF 4
