REMARK  Name = =
REMARK  5 active torsions:
REMARK  status: ('A' for Active; 'I' for Inactive)
REMARK    1  A    between atoms: N_1  and  C_23
REMARK    2  A    between atoms: C_6  and  N_10
REMARK    3  A    between atoms: C_9  and  C_31
REMARK    4  A    between atoms: C_24  and  S_25
REMARK    5  A    between atoms: S_25  and  N_28
REMARK                            x       y       z     vdW  Elec       q    Type
REMARK                         _______ _______ _______ _____ _____    ______ ____
ROOT
ATOM      1  N   UNL     1      -0.172  -2.651  29.493  0.00  0.00    -0.296 N 
ATOM      2  C   UNL     1       0.699  -2.933  30.649  0.00  0.00    +0.118 C 
ATOM      3  C   UNL     1       1.785  -3.763  29.972  0.00  0.00    -0.001 C 
ATOM      4  C   UNL     1       1.821  -3.305  28.665  0.00  0.00    +0.009 C 
ATOM      5  C   UNL     1       0.830  -2.185  28.498  0.00  0.00    +0.119 C 
ATOM      6  C   UNL     1       2.697  -3.893  27.797  0.00  0.00    +0.051 C 
ATOM      7  C   UNL     1       3.523  -4.922  28.237  0.00  0.00    +0.015 C 
ATOM      8  C   UNL     1       3.458  -5.356  29.563  0.00  0.00    +0.004 C 
ATOM      9  C   UNL     1       2.563  -4.758  30.451  0.00  0.00    +0.033 C 
ENDROOT
BRANCH   6  10
ATOM     10  N   UNL     1       2.723  -3.440  26.434  0.00  0.00    -0.259 N 
ATOM     11  C   UNL     1       2.130  -4.222  25.436  0.00  0.00    +0.229 C 
ATOM     12  O   UNL     1       1.501  -5.223  25.853  0.00  0.00    -0.275 OA
ATOM     13  C   UNL     1       2.175  -3.980  23.957  0.00  0.00    +0.086 C 
ATOM     14  C   UNL     1       2.266  -2.467  23.741  0.00  0.00    +0.010 C 
ATOM     15  C   UNL     1       1.491  -1.740  24.831  0.00  0.00    +0.002 C 
ATOM     16  C   UNL     1       2.422  -1.105  25.846  0.00  0.00    +0.022 C 
ATOM     17  C   UNL     1       3.415  -2.155  26.305  0.00  0.00    +0.098 C 
ENDBRANCH   6  10
BRANCH   1  23
ATOM     18  C   UNL     1      -3.637  -3.988  29.045  0.00  0.00    +0.049 C 
ATOM     19  C   UNL     1      -4.321  -3.018  29.946  0.00  0.00    +0.014 C 
ATOM     20  C   UNL     1      -3.712  -1.634  29.853  0.00  0.00    +0.071 C 
ATOM     21  C   UNL     1      -2.426  -1.642  29.145  0.00  0.00    +0.187 C 
ATOM     22  O   UNL     1      -1.992  -0.735  28.396  0.00  0.00    -0.290 OA
ATOM     23  C   UNL     1      -1.535  -2.838  29.323  0.00  0.00    +0.098 C 
ATOM     24  C   UNL     1      -2.131  -4.004  29.275  0.00  0.00    +0.119 C 
BRANCH  24  25
ATOM     25  S   UNL     1      -1.320  -5.523  29.440  0.00  0.00    +0.073 S 
ATOM     26  O   UNL     1      -0.083  -5.691  28.672  0.00  0.00    -0.150 OA
ATOM     27  O   UNL     1      -2.326  -6.629  29.136  0.00  0.00    -0.150 OA
BRANCH  25  28
ATOM     28  N   UNL     1      -0.949  -5.753  31.128  0.00  0.00    -0.178 N 
ATOM     29  C   UNL     1      -1.140  -6.992  31.769  0.00  0.00    +0.319 C 
ATOM     30  O   UNL     1      -1.602  -7.958  31.076  0.00  0.00    -0.264 OA
ATOM     31  H   UNL     1      -0.596  -4.995  31.648  0.00  0.00    +0.177 HD
ENDBRANCH  25  28
ENDBRANCH  24  25
ENDBRANCH   1  23
BRANCH   9  32
ATOM     32  C   UNL     1       2.542  -5.252  31.815  0.00  0.00    +0.165 C 
ATOM     33  N   UNL     1       2.038  -6.462  32.070  0.00  0.00    -0.205 NA
ATOM     34  C   UNL     1       1.962  -7.016  33.280  0.00  0.00    +0.202 C 
ATOM     35  N   UNL     1       2.430  -6.293  34.319  0.00  0.00    -0.202 NA
ATOM     36  C   UNL     1       2.941  -5.070  34.084  0.00  0.00    +0.202 C 
ATOM     37  N   UNL     1       3.012  -4.522  32.851  0.00  0.00    -0.205 NA
ENDBRANCH   9  32
TORSDOF 5
