REMARK  Name = =
REMARK  6 active torsions:
REMARK  status: ('A' for Active; 'I' for Inactive)
REMARK    1  A    between atoms: C_15  and  C_23
REMARK    2  A    between atoms: C_15  and  O_25
REMARK    3  A    between atoms: O_25  and  S_26
REMARK    4  A    between atoms: S_26  and  N_29
REMARK    5  A    between atoms: C_30  and  C_32
REMARK    6  A    between atoms: C_32  and  O_34
REMARK                            x       y       z     vdW  Elec       q    Type
REMARK                         _______ _______ _______ _____ _____    ______ ____
ROOT
ATOM      1  O   UNL     1       0.339  -2.646  29.146  0.00  0.00    -0.264 OA
ATOM      2  C   UNL     1       0.558  -3.827  29.487  0.00  0.00    +0.309 C 
ATOM      3  N   UNL     1       0.722  -4.907  28.558  0.00  0.00    -0.227 N 
ATOM      4  C   UNL     1       0.751  -4.545  27.158  0.00  0.00    +0.056 C 
ATOM      5  C   UNL     1       1.119  -3.121  26.959  0.00  0.00    +0.015 C 
ATOM      6  C   UNL     1       1.775  -2.800  25.646  0.00  0.00    +0.001 C 
ATOM      7  C   UNL     1       2.373  -3.702  24.835  0.00  0.00    +0.003 C 
ATOM      8  C   UNL     1       2.234  -5.120  25.192  0.00  0.00    +0.038 C 
ATOM      9  C   UNL     1       2.869  -6.090  24.441  0.00  0.00    +0.176 C 
ATOM     10  C   UNL     1       2.781  -7.438  24.806  0.00  0.00    +0.176 C 
ATOM     11  C   UNL     1       2.054  -7.783  25.923  0.00  0.00    +0.036 C 
ATOM     12  C   UNL     1       1.418  -6.832  26.677  0.00  0.00    -0.013 C 
ATOM     13  C   UNL     1       1.505  -5.475  26.312  0.00  0.00    +0.013 C 
ATOM     14  C   UNL     1       0.636  -7.212  27.828  0.00  0.00    +0.080 C 
ATOM     15  C   UNL     1       0.818  -6.265  29.049  0.00  0.00    +0.208 C 
ATOM     16  O   UNL     1       3.507  -8.213  23.888  0.00  0.00    -0.435 OA
ATOM     17  C   UNL     1       3.540  -7.378  22.717  0.00  0.00    +0.429 C 
ATOM     18  O   UNL     1       3.653  -6.104  23.306  0.00  0.00    -0.435 OA
ATOM     19  C   UNL     1       3.032  -3.363  23.673  0.00  0.00    +0.000 C 
ATOM     20  C   UNL     1       3.072  -2.015  23.334  0.00  0.00    +0.000 C 
ATOM     21  C   UNL     1       2.471  -1.057  24.134  0.00  0.00    +0.000 C 
ATOM     22  C   UNL     1       1.827  -1.445  25.282  0.00  0.00    +0.000 C 
ENDROOT
BRANCH  15  23
ATOM     23  C   UNL     1       2.249  -6.461  29.490  0.00  0.00    +0.022 C 
ATOM     24  C   UNL     1       2.640  -7.643  29.917  0.00  0.00    -0.001 C 
ENDBRANCH  15  23
BRANCH  15  25
ATOM     25  O   UNL     1      -0.069  -6.707  29.919  0.00  0.00    -0.208 OA
BRANCH  25  26
ATOM     26  S   UNL     1      -0.652  -6.168  31.276  0.00  0.00    +0.067 S 
ATOM     27  O   UNL     1       0.406  -5.838  32.331  0.00  0.00    -0.052 OA
ATOM     28  O   UNL     1      -1.548  -4.929  31.193  0.00  0.00    -0.052 OA
BRANCH  26  29
ATOM     29  N   UNL     1      -1.634  -7.385  32.123  0.00  0.00    -0.176 N 
ATOM     30  C   UNL     1      -2.928  -7.076  32.594  0.00  0.00    +0.340 C 
ATOM     31  O   UNL     1      -3.388  -5.908  32.404  0.00  0.00    -0.261 OA
ATOM     32  H   UNL     1      -1.269  -8.288  32.266  0.00  0.00    +0.177 HD
BRANCH  30  33
ATOM     33  C   UNL     1      -3.746  -8.055  33.290  0.00  0.00    +0.394 C 
ATOM     34  O   UNL     1      -3.215  -9.143  33.617  0.00  0.00    -0.240 OA
BRANCH  33  35
ATOM     35  O   UNL     1      -5.077  -7.851  33.608  0.00  0.00    -0.474 OA
ATOM     36  H   UNL     1      -5.496  -7.046  33.374  0.00  0.00    +0.296 HD
ENDBRANCH  33  35
ENDBRANCH  30  33
ENDBRANCH  26  29
ENDBRANCH  25  26
ENDBRANCH  15  25
TORSDOF 6
