REMARK  Name = =
REMARK  7 active torsions:
REMARK  status: ('A' for Active; 'I' for Inactive)
REMARK    1  A    between atoms: C_5  and  C_23
REMARK    2  A    between atoms: C_15  and  C_25
REMARK    3  A    between atoms: C_15  and  O_27
REMARK    4  A    between atoms: O_27  and  S_28
REMARK    5  A    between atoms: S_28  and  N_31
REMARK    6  A    between atoms: C_32  and  C_34
REMARK    7  A    between atoms: C_34  and  O_36
REMARK                            x       y       z     vdW  Elec       q    Type
REMARK                         _______ _______ _______ _____ _____    ______ ____
ROOT
ATOM      1  O   UNL     1      -0.650  -2.398  25.930  0.00  0.00    -0.264 OA
ATOM      2  C   UNL     1       0.313  -2.249  25.154  0.00  0.00    +0.309 C 
ATOM      3  N   UNL     1       1.396  -3.148  24.977  0.00  0.00    -0.227 N 
ATOM      4  C   UNL     1       1.472  -4.357  25.721  0.00  0.00    +0.056 A 
ATOM      5  C   UNL     1       1.085  -4.389  27.086  0.00  0.00    +0.014 A 
ATOM      6  C   UNL     1       1.358  -5.651  27.810  0.00  0.00    +0.001 A 
ATOM      7  C   UNL     1       2.217  -6.588  27.307  0.00  0.00    +0.003 A 
ATOM      8  C   UNL     1       2.803  -6.459  25.953  0.00  0.00    +0.038 A 
ATOM      9  C   UNL     1       3.683  -7.397  25.475  0.00  0.00    +0.176 C 
ATOM     10  C   UNL     1       4.216  -7.210  24.194  0.00  0.00    +0.176 C 
ATOM     11  C   UNL     1       3.860  -6.122  23.462  0.00  0.00    +0.036 C 
ATOM     12  C   UNL     1       2.966  -5.181  23.965  0.00  0.00    -0.013 C 
ATOM     13  C   UNL     1       2.414  -5.313  25.210  0.00  0.00    +0.013 A 
ATOM     14  C   UNL     1       2.605  -4.029  23.083  0.00  0.00    +0.080 C 
ATOM     15  C   UNL     1       2.394  -2.811  23.977  0.00  0.00    +0.208 C 
ATOM     16  O   UNL     1       5.074  -8.262  23.908  0.00  0.00    -0.435 OA
ATOM     17  C   UNL     1       5.274  -9.031  25.104  0.00  0.00    +0.429 C 
ATOM     18  O   UNL     1       4.230  -8.574  25.952  0.00  0.00    -0.435 OA
ATOM     19  C   UNL     1       2.512  -7.739  28.036  0.00  0.00    +0.000 C 
ATOM     20  C   UNL     1       1.921  -7.911  29.265  0.00  0.00    +0.000 C 
ATOM     21  C   UNL     1       1.050  -6.975  29.783  0.00  0.00    +0.000 C 
ATOM     22  C   UNL     1       0.769  -5.848  29.059  0.00  0.00    +0.000 C 
ENDROOT
BRANCH   5  23
ATOM     23  C   UNL     1       1.620  -3.241  27.934  0.00  0.00    +0.001 C 
ATOM     24  C   UNL     1       2.757  -3.384  28.600  0.00  0.00    +0.000 C 
ENDBRANCH   5  23
BRANCH  15  25
ATOM     25  C   UNL     1       1.857  -1.752  23.048  0.00  0.00    +0.022 C 
ATOM     26  C   UNL     1       1.050  -2.014  22.060  0.00  0.00    -0.001 C 
ENDBRANCH  15  25
BRANCH  15  27
ATOM     27  O   UNL     1       3.594  -2.465  24.470  0.00  0.00    -0.208 OA
BRANCH  27  28
ATOM     28  S   UNL     1       3.852  -0.969  25.075  0.00  0.00    +0.067 S 
ATOM     29  O   UNL     1       3.651   0.113  24.024  0.00  0.00    -0.052 OA
ATOM     30  O   UNL     1       2.873  -0.663  26.160  0.00  0.00    -0.052 OA
BRANCH  28  31
ATOM     31  N   UNL     1       5.503  -0.885  25.650  0.00  0.00    -0.176 N 
ATOM     32  C   UNL     1       6.544  -0.404  24.816  0.00  0.00    +0.340 C 
ATOM     33  O   UNL     1       6.238  -0.036  23.634  0.00  0.00    -0.261 OA
ATOM     34  H   UNL     1       5.712  -1.176  26.567  0.00  0.00    +0.177 HD
BRANCH  32  35
ATOM     35  C   UNL     1       7.915  -0.329  25.282  0.00  0.00    +0.394 C 
ATOM     36  O   UNL     1       8.216  -0.885  26.361  0.00  0.00    -0.240 OA
BRANCH  35  37
ATOM     37  O   UNL     1       8.889   0.338  24.566  0.00  0.00    -0.474 OA
ATOM     38  H   UNL     1       8.671   0.757  23.757  0.00  0.00    +0.296 HD
ENDBRANCH  35  37
ENDBRANCH  32  35
ENDBRANCH  28  31
ENDBRANCH  27  28
ENDBRANCH  15  27
TORSDOF 7
