REMARK  Name = =
REMARK  6 active torsions:
REMARK  status: ('A' for Active; 'I' for Inactive)
REMARK    1  A    between atoms: N_1  and  C_23
REMARK    2  A    between atoms: C_6  and  N_10
REMARK    3  A    between atoms: C_9  and  C_31
REMARK    4  A    between atoms: C_24  and  S_25
REMARK    5  A    between atoms: S_25  and  N_28
REMARK    6  A    between atoms: C_35  and  C_37
REMARK                            x       y       z     vdW  Elec       q    Type
REMARK                         _______ _______ _______ _____ _____    ______ ____
ROOT
ATOM      1  N   UNL     1      -0.161  -6.048  28.227  0.00  0.00    -0.296 N 
ATOM      2  C   UNL     1      -0.083  -4.969  27.284  0.00  0.00    +0.118 C 
ATOM      3  C   UNL     1       1.167  -5.270  26.469  0.00  0.00    -0.001 C 
ATOM      4  C   UNL     1       1.347  -6.619  26.539  0.00  0.00    +0.009 C 
ATOM      5  C   UNL     1       0.254  -7.178  27.342  0.00  0.00    +0.119 C 
ATOM      6  C   UNL     1       2.403  -7.217  25.916  0.00  0.00    +0.051 C 
ATOM      7  C   UNL     1       3.313  -6.456  25.199  0.00  0.00    +0.015 C 
ATOM      8  C   UNL     1       3.120  -5.100  25.135  0.00  0.00    +0.004 C 
ATOM      9  C   UNL     1       2.050  -4.488  25.764  0.00  0.00    +0.031 C 
ENDROOT
BRANCH   6  10
ATOM     10  N   UNL     1       2.632  -8.637  25.950  0.00  0.00    -0.259 N 
ATOM     11  C   UNL     1       2.064  -9.333  24.866  0.00  0.00    +0.229 C 
ATOM     12  O   UNL     1       1.308  -8.733  24.072  0.00  0.00    -0.275 OA
ATOM     13  C   UNL     1       2.271 -10.774  24.541  0.00  0.00    +0.086 C 
ATOM     14  C   UNL     1       1.891 -11.652  25.703  0.00  0.00    +0.010 C 
ATOM     15  C   UNL     1       2.895 -11.523  26.804  0.00  0.00    +0.002 C 
ATOM     16  C   UNL     1       2.654 -10.313  27.681  0.00  0.00    +0.022 C 
ATOM     17  C   UNL     1       3.393  -9.131  27.065  0.00  0.00    +0.098 C 
ENDBRANCH   6  10
BRANCH   1  23
ATOM     18  C   UNL     1      -1.378  -5.946  31.742  0.00  0.00    +0.049 C 
ATOM     19  C   UNL     1      -1.874  -7.372  31.733  0.00  0.00    +0.014 C 
ATOM     20  C   UNL     1      -0.683  -8.215  31.318  0.00  0.00    +0.071 C 
ATOM     21  C   UNL     1       0.043  -7.532  30.240  0.00  0.00    +0.187 C 
ATOM     22  O   UNL     1       1.160  -8.018  29.862  0.00  0.00    -0.290 OA
ATOM     23  C   UNL     1      -0.445  -6.295  29.552  0.00  0.00    +0.098 C 
ATOM     24  C   UNL     1      -1.152  -5.506  30.304  0.00  0.00    +0.119 C 
BRANCH  24  25
ATOM     25  S   UNL     1      -1.829  -4.060  29.730  0.00  0.00    +0.073 S 
ATOM     26  O   UNL     1      -2.696  -4.075  28.553  0.00  0.00    -0.150 OA
ATOM     27  O   UNL     1      -0.744  -2.957  29.588  0.00  0.00    -0.150 OA
BRANCH  25  28
ATOM     28  N   UNL     1      -2.814  -3.404  31.004  0.00  0.00    -0.178 N 
ATOM     29  C   UNL     1      -3.563  -2.223  30.918  0.00  0.00    +0.319 C 
ATOM     30  O   UNL     1      -3.515  -1.589  29.827  0.00  0.00    -0.264 OA
ATOM     31  H   UNL     1      -2.848  -3.902  31.853  0.00  0.00    +0.177 HD
ENDBRANCH  25  28
ENDBRANCH  24  25
ENDBRANCH   1  23
BRANCH   9  32
ATOM     32  C   UNL     1       1.861  -3.038  25.650  0.00  0.00    +0.150 C 
ATOM     33  N   UNL     1       2.243  -2.242  26.656  0.00  0.00    -0.228 NA
ATOM     34  C   UNL     1       2.075  -0.926  26.594  0.00  0.00    +0.253 C 
ATOM     35  N   UNL     1       1.513  -0.399  25.499  0.00  0.00    -0.232 NA
ATOM     36  C   UNL     1       1.112  -1.186  24.452  0.00  0.00    +0.127 C 
ATOM     37  N   UNL     1       1.295  -2.502  24.548  0.00  0.00    -0.180 NA
BRANCH  36  38
ATOM     38  C   UNL     1       0.501  -0.499  23.317  0.00  0.00    +0.056 C 
ATOM     39  C   UNL     1      -0.440  -1.346  22.488  0.00  0.00    +0.007 C 
ATOM     40  C   UNL     1      -0.427  -0.514  21.186  0.00  0.00    +0.000 C 
ATOM     41  C   UNL     1      -0.996   0.843  21.624  0.00  0.00    +0.000 C 
ATOM     42  C   UNL     1      -2.521   0.706  21.721  0.00  0.00    +0.000 C 
ATOM     43  C   UNL     1      -3.076   1.258  20.445  0.00  0.00    +0.001 C 
ATOM     44  C   UNL     1      -2.954   2.756  20.429  0.00  0.00    +0.007 C 
ATOM     45  C   UNL     1      -1.548   3.127  20.833  0.00  0.00    +0.000 C 
ATOM     46  C   UNL     1      -0.593   1.961  20.720  0.00  0.00    +0.000 C 
ATOM     47  C   UNL     1      -3.913   3.424  21.386  0.00  0.00    +0.064 C 
ATOM     48  C   UNL     1      -5.052   2.554  21.749  0.00  0.00    +0.151 C 
ATOM     49  O   UNL     1      -5.569   2.658  22.835  0.00  0.00    -0.296 OA
ATOM     50  C   UNL     1      -5.551   1.564  20.781  0.00  0.00    +0.065 C 
ATOM     51  C   UNL     1      -4.450   0.766  20.120  0.00  0.00    +0.008 C 
ATOM     52  C   UNL     1      -2.815  -0.755  21.923  0.00  0.00    +0.000 C 
ATOM     53  C   UNL     1      -1.861  -1.302  22.997  0.00  0.00    +0.000 C 
ATOM     54  C   UNL     1       1.039  -0.356  20.950  0.00  0.00    +0.000 C 
ATOM     55  C   UNL     1       1.627  -0.179  22.313  0.00  0.00    +0.007 C 
ENDBRANCH  36  38
ENDBRANCH   9  32
TORSDOF 6
