REMARK  Name = =
REMARK  9 active torsions:
REMARK  status: ('A' for Active; 'I' for Inactive)
REMARK    1  A    between atoms: C_5  and  C_23
REMARK    2  A    between atoms: C_15  and  C_25
REMARK    3  A    between atoms: C_15  and  O_29
REMARK    4  A    between atoms: C_17  and  N_27
REMARK    5  A    between atoms: N_27  and  N_28
REMARK    6  A    between atoms: O_29  and  S_30
REMARK    7  A    between atoms: S_30  and  N_33
REMARK    8  A    between atoms: C_34  and  C_36
REMARK    9  A    between atoms: C_36  and  O_38
REMARK                            x       y       z     vdW  Elec       q    Type
REMARK                         _______ _______ _______ _____ _____    ______ ____
ROOT
ATOM      1  O   UNL     1       1.732  -1.573  26.463  0.00  0.00    -0.265 OA
ATOM      2  C   UNL     1       2.127  -2.483  27.267  0.00  0.00    +0.305 C 
ATOM      3  N   UNL     1       2.797  -3.587  26.762  0.00  0.00    -0.245 N 
ATOM      4  C   UNL     1       3.045  -3.770  25.390  0.00  0.00    +0.108 C 
ATOM      5  C   UNL     1       4.184  -3.225  24.710  0.00  0.00    +0.067 C 
ATOM      6  C   UNL     1       3.918  -3.309  23.215  0.00  0.00    -0.016 C 
ATOM      7  C   UNL     1       3.307  -4.442  22.699  0.00  0.00    -0.001 C 
ATOM      8  C   UNL     1       2.690  -5.419  23.606  0.00  0.00    +0.034 C 
ATOM      9  C   UNL     1       2.255  -6.635  23.154  0.00  0.00    +0.177 C 
ATOM     10  C   UNL     1       1.858  -7.579  24.089  0.00  0.00    +0.177 C 
ATOM     11  C   UNL     1       1.894  -7.317  25.437  0.00  0.00    +0.036 C 
ATOM     12  C   UNL     1       2.330  -6.085  25.917  0.00  0.00    -0.017 C 
ATOM     13  C   UNL     1       2.719  -5.155  24.986  0.00  0.00    -0.004 C 
ATOM     14  C   UNL     1       2.362  -5.872  27.384  0.00  0.00    +0.080 C 
ATOM     15  C   UNL     1       3.213  -4.656  27.693  0.00  0.00    +0.205 C 
ATOM     16  O   UNL     1       1.464  -8.723  23.408  0.00  0.00    -0.427 OA
ATOM     17  C   UNL     1       1.758  -8.599  22.031  0.00  0.00    +0.429 C 
ATOM     18  O   UNL     1       2.090  -7.224  21.945  0.00  0.00    -0.427 OA
ATOM     19  C   UNL     1       3.151  -4.620  21.354  0.00  0.00    -0.000 C 
ATOM     20  C   UNL     1       3.620  -3.630  20.495  0.00  0.00    -0.000 C 
ATOM     21  C   UNL     1       4.226  -2.496  20.962  0.00  0.00    -0.000 C 
ATOM     22  C   UNL     1       4.366  -2.354  22.338  0.00  0.00    -0.004 C 
ENDROOT
BRANCH   5  23
ATOM     23  C   UNL     1       4.588  -1.875  25.098  0.00  0.00    -0.020 C 
ATOM     24  C   UNL     1       5.773  -1.660  25.696  0.00  0.00    -0.005 C 
ENDBRANCH   5  23
BRANCH  15  25
ATOM     25  C   UNL     1       4.672  -4.915  27.370  0.00  0.00    +0.022 C 
ATOM     26  C   UNL     1       5.277  -6.061  27.549  0.00  0.00    -0.001 C 
ENDBRANCH  15  25
BRANCH  17  27
ATOM     27  N   UNL     1       0.592  -8.913  21.222  0.00  0.00    -0.176 NA
ATOM     28  H   UNL     1       0.406  -9.914  21.286  0.00  0.00    +0.148 HD
BRANCH  27  29
ATOM     29  N   UNL     1      -0.529  -8.224  21.641  0.00  0.00    -0.264 NA
ATOM     30  H   UNL     1      -0.354  -7.221  21.581  0.00  0.00    +0.137 HD
ATOM     31  H   UNL     1      -0.741  -8.475  22.607  0.00  0.00    +0.137 HD
ENDBRANCH  27  29
ENDBRANCH  17  27
BRANCH  15  32
ATOM     32  O   UNL     1       3.174  -4.358  28.997  0.00  0.00    -0.208 OA
BRANCH  32  33
ATOM     33  S   UNL     1       2.123  -5.169  29.976  0.00  0.00    +0.067 S 
ATOM     34  O   UNL     1       2.228  -4.897  31.429  0.00  0.00    -0.052 OA
ATOM     35  O   UNL     1       2.244  -6.682  29.757  0.00  0.00    -0.052 OA
BRANCH  33  36
ATOM     36  N   UNL     1       0.500  -4.802  29.427  0.00  0.00    -0.176 N 
ATOM     37  C   UNL     1      -0.616  -5.365  30.101  0.00  0.00    +0.340 C 
ATOM     38  O   UNL     1      -0.370  -6.132  31.089  0.00  0.00    -0.261 OA
ATOM     39  H   UNL     1       0.362  -4.208  28.654  0.00  0.00    +0.177 HD
BRANCH  37  40
ATOM     40  C   UNL     1      -1.986  -5.094  29.698  0.00  0.00    +0.394 C 
ATOM     41  O   UNL     1      -2.226  -4.197  28.858  0.00  0.00    -0.240 OA
BRANCH  40  42
ATOM     42  O   UNL     1      -3.009  -5.849  30.264  0.00  0.00    -0.474 OA
ATOM     43  H   UNL     1      -2.808  -6.516  30.891  0.00  0.00    +0.296 HD
ENDBRANCH  40  42
ENDBRANCH  37  40
ENDBRANCH  33  36
ENDBRANCH  32  33
ENDBRANCH  15  32
TORSDOF 9
