REMARK  Name = =
REMARK  13 active torsions:
REMARK  status: ('A' for Active; 'I' for Inactive)
REMARK    1  A    between atoms: C_1  and  N_2
REMARK    2  A    between atoms: C_1  and  C_3
REMARK    3  A    between atoms: C_1  and  C_21
REMARK    4  A    between atoms: N_2  and  N_42
REMARK    5  A    between atoms: C_3  and  N_10
REMARK    6  A    between atoms: C_13  and  O_19
REMARK    7  A    between atoms: C_20  and  O_29
REMARK    8  A    between atoms: C_22  and  O_28
REMARK    9  A    between atoms: C_23  and  O_27
REMARK   10  A    between atoms: C_24  and  O_26
REMARK   11  A    between atoms: O_29  and  C_31
REMARK   12  A    between atoms: N_42  and  C_43
REMARK   13  A    between atoms: C_43  and  N_45
REMARK                            x       y       z     vdW  Elec       q    Type
REMARK                         _______ _______ _______ _____ _____    ______ ____
ROOT
ATOM      1  C   UNL     1     -21.367 -42.343  24.233  0.00  0.00    +0.145 C 
ENDROOT
BRANCH   1   2
ATOM      2  C   UNL     1     -20.577 -41.852  25.401  0.00  0.00    +0.133 C 
ATOM      3  C   UNL     1     -20.799 -40.312  25.454  0.00  0.00    +0.027 C 
ATOM      4  C   UNL     1     -21.404 -39.809  26.705  0.00  0.00    +0.003 C 
ATOM      5  C   UNL     1     -22.591 -40.536  27.241  0.00  0.00    +0.008 C 
ATOM      6  C   UNL     1     -22.575 -42.012  26.898  0.00  0.00    +0.066 C 
ATOM      7  C   UNL     1     -21.098 -42.373  26.643  0.00  0.00    +0.169 C 
ATOM      8  O   UNL     1     -20.614 -43.016  27.506  0.00  0.00    -0.294 OA
BRANCH   2   9
ATOM      9  N   UNL     1     -19.171 -41.975  25.135  0.00  0.00    -0.281 N 
ATOM     10  C   UNL     1     -18.134 -41.897  25.980  0.00  0.00    +0.055 C 
ATOM     11  C   UNL     1     -16.944 -42.056  25.295  0.00  0.00    +0.049 C 
ATOM     12  C   UNL     1     -15.716 -41.998  25.962  0.00  0.00    +0.135 C 
ATOM     13  C   UNL     1     -15.640 -41.782  27.331  0.00  0.00    +0.037 C 
ATOM     14  C   UNL     1     -16.832 -41.625  27.999  0.00  0.00    +0.004 C 
ATOM     15  C   UNL     1     -18.035 -41.682  27.333  0.00  0.00    +0.015 C 
ATOM     16  C   UNL     1     -17.304 -42.235  23.987  0.00  0.00    +0.020 C 
ATOM     17  C   UNL     1     -18.665 -42.182  23.916  0.00  0.00    +0.066 C 
BRANCH  12  18
ATOM     18  O   UNL     1     -14.525 -42.156  25.287  0.00  0.00    -0.505 OA
ATOM     19  H   UNL     1     -14.527 -42.304  24.362  0.00  0.00    +0.292 HD
ENDBRANCH  12  18
ENDBRANCH   2   9
ENDBRANCH   1   2
BRANCH   1  21
ATOM     20  C   UNL     1     -23.060 -43.877  23.252  0.00  0.00    +0.149 C 
ATOM     21  C   UNL     1     -21.944 -43.668  24.073  0.00  0.00    +0.069 C 
ATOM     22  C   UNL     1     -21.450 -44.800  24.649  0.00  0.00    +0.171 C 
ATOM     23  C   UNL     1     -22.026 -46.069  24.428  0.00  0.00    +0.202 C 
ATOM     24  C   UNL     1     -23.119 -46.210  23.614  0.00  0.00    +0.174 C 
ATOM     25  C   UNL     1     -23.642 -45.089  23.017  0.00  0.00    +0.077 C 
BRANCH  24  26
ATOM     26  O   UNL     1     -23.717 -47.432  23.369  0.00  0.00    -0.503 OA
ATOM     27  H   UNL     1     -23.376 -48.209  23.767  0.00  0.00    +0.292 HD
ENDBRANCH  24  26
BRANCH  23  28
ATOM     28  O   UNL     1     -21.496 -47.191  25.031  0.00  0.00    -0.501 OA
ATOM     29  H   UNL     1     -20.749 -47.113  25.591  0.00  0.00    +0.292 HD
ENDBRANCH  23  28
BRANCH  22  30
ATOM     30  O   UNL     1     -20.354 -44.789  25.482  0.00  0.00    -0.503 OA
ATOM     31  H   UNL     1     -19.920 -43.981  25.674  0.00  0.00    +0.292 HD
ENDBRANCH  22  30
BRANCH  20  32
ATOM     32  O   UNL     1     -23.614 -42.796  22.634  0.00  0.00    -0.450 OA
BRANCH  32  34
ATOM     33  C   UNL     1     -25.918 -42.564  22.657  0.00  0.00    +0.083 C 
ATOM     34  C   UNL     1     -24.826 -42.735  21.959  0.00  0.00    +0.187 C 
ATOM     35  C   UNL     1     -24.888 -42.853  20.524  0.00  0.00    +0.230 C 
ATOM     36  O   UNL     1     -23.791 -43.018  19.891  0.00  0.00    -0.283 OA
ATOM     37  C   UNL     1     -26.124 -42.789  19.794  0.00  0.00    +0.045 C 
ATOM     38  C   UNL     1     -27.291 -42.606  20.538  0.00  0.00    +0.042 C 
ATOM     39  C   UNL     1     -28.486 -42.535  19.857  0.00  0.00    +0.003 C 
ATOM     40  C   UNL     1     -28.526 -42.638  18.498  0.00  0.00    +0.000 C 
ATOM     41  C   UNL     1     -27.368 -42.818  17.762  0.00  0.00    +0.000 C 
ATOM     42  C   UNL     1     -26.162 -42.894  18.402  0.00  0.00    +0.003 C 
ATOM     43  C   UNL     1     -27.208 -42.491  21.993  0.00  0.00    +0.199 C 
ATOM     44  O   UNL     1     -28.282 -42.325  22.651  0.00  0.00    -0.286 OA
ENDBRANCH  32  34
ENDBRANCH  20  32
ENDBRANCH   1  21
BRANCH   1  45
ATOM     45  N   UNL     1     -21.531 -41.564  23.280  0.00  0.00    -0.127 NA
BRANCH  45  46
ATOM     46  N   UNL     1     -21.740 -40.841  22.278  0.00  0.00    -0.244 N 
ATOM     47  H   UNL     1     -21.135 -40.993  21.516  0.00  0.00    +0.170 HD
BRANCH  46  48
ATOM     48  C   UNL     1     -22.733 -39.823  22.078  0.00  0.00    +0.143 C 
ATOM     49  S   UNL     1     -22.818 -39.060  20.639  0.00  0.00    -0.018 S 
BRANCH  48  50
ATOM     50  N   UNL     1     -23.669 -39.421  23.057  0.00  0.00    -0.340 N 
ATOM     51  H   UNL     1     -23.666 -39.846  23.945  0.00  0.00    +0.144 HD
ATOM     52  H   UNL     1     -24.324 -38.716  22.851  0.00  0.00    +0.144 HD
ENDBRANCH  48  50
ENDBRANCH  46  48
ENDBRANCH  45  46
ENDBRANCH   1  45
TORSDOF 13
