MODEL 1
REMARK VINA RESULT:    -9.966      0.000      0.000
REMARK INTER + INTRA:         -15.994
REMARK INTER:                 -14.044
REMARK INTRA:                  -1.950
REMARK UNBOUND:                -1.950
REMARK  Name = =
REMARK  8 active torsions:
REMARK  status: ('A' for Active; 'I' for Inactive)
REMARK    1  A    between atoms: N_1  and  C_30
REMARK    2  A    between atoms: C_6  and  N_10
REMARK    3  A    between atoms: C_7  and  C_22
REMARK    4  A    between atoms: C_14  and  N_15
REMARK    5  A    between atoms: C_30  and  N_31
REMARK    6  A    between atoms: N_31  and  C_34
REMARK    7  A    between atoms: C_32  and  O_44
REMARK    8  A    between atoms: C_41  and  O_43
REMARK                            x       y       z     vdW  Elec       q    Type
REMARK                         _______ _______ _______ _____ _____    ______ ____
ROOT
ATOM      1  N   UNL     1      -0.442  -3.518  27.431  0.00  0.00    -0.290 N 
ATOM      2  C   UNL     1      -0.975  -4.226  28.552  0.00  0.00    +0.046 C 
ATOM      3  C   UNL     1      -1.964  -3.405  29.063  0.00  0.00    -0.007 C 
ATOM      4  C   UNL     1      -2.610  -3.756  30.230  0.00  0.00    -0.002 C 
ATOM      5  C   UNL     1      -2.261  -4.913  30.863  0.00  0.00    +0.014 C 
ATOM      6  C   UNL     1      -1.256  -5.791  30.375  0.00  0.00    +0.051 C 
ATOM      7  C   UNL     1      -0.643  -5.410  29.222  0.00  0.00    +0.030 C 
ATOM      8  C   UNL     1      -2.176  -2.215  28.177  0.00  0.00    +0.049 C 
ATOM      9  C   UNL     1      -1.522  -2.681  26.902  0.00  0.00    +0.097 C 
ENDROOT
BRANCH   7  10
ATOM     10  C   UNL     1       0.253  -6.322  28.544  0.00  0.00    +0.044 C 
ATOM     11  C   UNL     1      -0.159  -7.219  27.670  0.00  0.00    +0.045 C 
ATOM     12  C   UNL     1       0.720  -8.128  26.975  0.00  0.00    +0.196 C 
ATOM     13  O   UNL     1       0.285  -8.976  26.153  0.00  0.00    -0.287 OA
ATOM     14  C   UNL     1       2.166  -8.094  27.209  0.00  0.00    +0.045 C 
ATOM     15  C   UNL     1       2.605  -7.216  28.059  0.00  0.00    +0.045 C 
ATOM     16  C   UNL     1       1.693  -6.288  28.769  0.00  0.00    +0.196 C 
ATOM     17  O   UNL     1       2.268  -5.501  29.548  0.00  0.00    -0.287 OA
ENDBRANCH   7  10
BRANCH   6  18
ATOM     18  N   UNL     1      -1.064  -6.972  31.108  0.00  0.00    -0.278 N 
ATOM     19  C   UNL     1      -1.913  -8.112  31.211  0.00  0.00    +0.112 C 
ATOM     20  C   UNL     1      -1.556  -8.673  32.584  0.00  0.00    +0.114 C 
ATOM     21  N   UNL     1      -0.235  -8.165  32.793  0.00  0.00    -0.180 NA
ATOM     22  C   UNL     1       0.055  -7.208  31.970  0.00  0.00    +0.229 C 
BRANCH  22  23
ATOM     23  N   UNL     1       1.305  -6.549  31.979  0.00  0.00    -0.290 N 
ATOM     24  C   UNL     1       1.937  -5.949  33.096  0.00  0.00    +0.131 C 
ATOM     25  N   UNL     1       3.154  -5.377  32.998  0.00  0.00    -0.229 NA
ATOM     26  C   UNL     1       3.765  -4.794  34.041  0.00  0.00    +0.100 C 
ATOM     27  C   UNL     1       3.180  -4.744  35.294  0.00  0.00    +0.021 C 
ATOM     28  C   UNL     1       1.946  -5.315  35.432  0.00  0.00    +0.004 C 
ATOM     29  C   UNL     1       1.338  -5.912  34.328  0.00  0.00    +0.034 C 
ATOM     30  H   UNL     1       1.785  -6.501  31.122  0.00  0.00    +0.151 HD
ENDBRANCH  22  23
ENDBRANCH   6  18
BRANCH   1  31
ATOM     31  C   UNL     1       0.897  -3.637  26.955  0.00  0.00    +0.194 C 
BRANCH  31  32
ATOM     32  N   UNL     1       1.599  -2.344  27.141  0.00  0.00    -0.222 N 
ATOM     33  C   UNL     1       1.731  -1.855  28.470  0.00  0.00    +0.403 C 
ATOM     34  O   UNL     1       1.276  -2.481  29.455  0.00  0.00    -0.226 OA
BRANCH  32  35
ATOM     35  C   UNL     1       2.057  -1.537  26.069  0.00  0.00    +0.149 C 
ATOM     36  C   UNL     1       3.340  -1.929  25.434  0.00  0.00    +0.037 C 
ATOM     37  C   UNL     1       3.036  -2.543  24.215  0.00  0.00    +0.136 C 
ATOM     38  O   UNL     1       1.635  -2.579  24.065  0.00  0.00    -0.474 OA
ATOM     39  C   UNL     1       1.132  -1.518  24.878  0.00  0.00    +0.230 C 
ATOM     40  C   UNL     1       4.046  -2.988  23.402  0.00  0.00    +0.040 C 
ATOM     41  C   UNL     1       5.385  -2.833  23.777  0.00  0.00    +0.040 C 
ATOM     42  C   UNL     1       5.696  -2.229  24.974  0.00  0.00    +0.134 C 
ATOM     43  C   UNL     1       4.654  -1.787  25.779  0.00  0.00    +0.037 C 
BRANCH  42  44
ATOM     44  O   UNL     1       6.997  -2.044  25.403  0.00  0.00    -0.506 OA
ATOM     45  H   UNL     1       7.616  -1.611  24.849  0.00  0.00    +0.292 HD
ENDBRANCH  42  44
ENDBRANCH  32  35
BRANCH  33  46
ATOM     46  O   UNL     1       2.379  -0.661  28.696  0.00  0.00    -0.466 OA
ATOM     47  H   UNL     1       3.143  -0.441  28.199  0.00  0.00    +0.297 HD
ENDBRANCH  33  46
ENDBRANCH  31  32
ENDBRANCH   1  31
TORSDOF 8
ENDMDL
