MODEL 1
REMARK VINA RESULT:    -7.103      0.000      0.000
REMARK INTER + INTRA:          -8.940
REMARK INTER:                  -8.141
REMARK INTRA:                  -0.799
REMARK UNBOUND:                -0.799
REMARK  Name = =
REMARK  3 active torsions:
REMARK  status: ('A' for Active; 'I' for Inactive)
REMARK    1  A    between atoms: N_1  and  C_14
REMARK    2  A    between atoms: C_15  and  N_24
REMARK    3  A    between atoms: N_24  and  O_25
REMARK                            x       y       z     vdW  Elec       q    Type
REMARK                         _______ _______ _______ _____ _____    ______ ____
ROOT
ATOM      1  N   UNL     1      59.628 161.403  39.680  0.00  0.00    -0.306 N 
ATOM      2  C   UNL     1      60.753 160.802  40.085  0.00  0.00    +0.063 A 
ATOM      3  C   UNL     1      60.513 160.267  41.330  0.00  0.00    +0.013 A 
ATOM      4  C   UNL     1      59.223 160.556  41.668  0.00  0.00    -0.006 A 
ATOM      5  C   UNL     1      58.686 161.278  40.601  0.00  0.00    +0.053 A 
ATOM      6  C   UNL     1      57.268 161.696  40.771  0.00  0.00    +0.113 C 
ATOM      7  N   UNL     1      56.513 160.542  41.144  0.00  0.00    -0.292 NA
ATOM      8  C   UNL     1      57.002 159.829  42.277  0.00  0.00    +0.074 C 
ATOM      9  C   UNL     1      58.314 160.311  42.808  0.00  0.00    +0.045 C 
ATOM     10  C   UNL     1      61.472 159.577  42.030  0.00  0.00    +0.001 C 
ATOM     11  C   UNL     1      62.711 159.432  41.441  0.00  0.00    +0.000 C 
ATOM     12  C   UNL     1      62.953 159.968  40.193  0.00  0.00    +0.001 C 
ATOM     13  C   UNL     1      61.994 160.655  39.498  0.00  0.00    +0.017 C 
ATOM     14  H   UNL     1      56.504 159.902  40.350  0.00  0.00    +0.124 HD
ENDROOT
BRANCH   1  15
ATOM     15  C   UNL     1      59.481 162.072  38.441  0.00  0.00    +0.100 C 
ATOM     16  C   UNL     1      58.957 161.464  37.332  0.00  0.00    +0.177 C 
ATOM     17  N   UNL     1      58.842 162.144  36.184  0.00  0.00    -0.206 NA
ATOM     18  C   UNL     1      59.231 163.427  36.084  0.00  0.00    +0.167 C 
ATOM     19  N   UNL     1      59.126 164.134  34.941  0.00  0.00    -0.205 NA
ATOM     20  C   UNL     1      59.505 165.405  34.818  0.00  0.00    +0.200 C 
ATOM     21  N   UNL     1      60.020 166.045  35.864  0.00  0.00    -0.222 NA
ATOM     22  C   UNL     1      60.153 165.402  37.035  0.00  0.00    +0.104 C 
ATOM     23  C   UNL     1      59.767 164.086  37.178  0.00  0.00    +0.057 C 
ATOM     24  C   UNL     1      59.884 163.382  38.358  0.00  0.00    +0.025 C 
BRANCH  16  25
ATOM     25  N   UNL     1      58.529 160.101  37.385  0.00  0.00    -0.249 N 
ATOM     26  H   UNL     1      57.568 159.892  37.438  0.00  0.00    +0.196 HD
BRANCH  25  27
ATOM     27  O   UNL     1      59.420 159.112  37.364  0.00  0.00    -0.288 OA
ATOM     28  H   UNL     1      59.783 159.022  36.469  0.00  0.00    +0.244 HD
ENDBRANCH  25  27
ENDBRANCH  16  25
ENDBRANCH   1  15
TORSDOF 3
ENDMDL
