MODEL 1
REMARK VINA RESULT:    -7.571      0.000      0.000
REMARK INTER + INTRA:          -7.203
REMARK INTER:                  -8.898
REMARK INTRA:                   1.696
REMARK UNBOUND:                 1.696
REMARK  Name = =
REMARK  3 active torsions:
REMARK  status: ('A' for Active; 'I' for Inactive)
REMARK    1  A    between atoms: C_1  and  C_19
REMARK    2  A    between atoms: C_1  and  N_37
REMARK    3  A    between atoms: C_19  and  C_31
REMARK                            x       y       z     vdW  Elec       q    Type
REMARK                         _______ _______ _______ _____ _____    ______ ____
ROOT
ATOM      1  C   UNL     1      60.152 162.679  39.989  0.00  0.00    +0.086 C 
ATOM      2  C   UNL     1      60.821 163.855  39.299  0.00  0.00    +0.019 C 
ATOM      3  C   UNL     1      60.811 163.509  37.865  0.00  0.00    +0.002 C 
ATOM      4  C   UNL     1      61.084 164.611  36.909  0.00  0.00    +0.000 C 
ATOM      5  C   UNL     1      60.012 165.680  37.168  0.00  0.00    +0.000 C 
ATOM      6  C   UNL     1      60.190 166.715  36.112  0.00  0.00    +0.001 C 
ATOM      7  C   UNL     1      61.515 167.384  36.252  0.00  0.00    +0.007 C 
ATOM      8  C   UNL     1      62.682 166.475  36.383  0.00  0.00    +0.000 C 
ATOM      9  C   UNL     1      62.447 165.192  37.068  0.00  0.00    +0.000 C 
ATOM     10  C   UNL     1      61.797 168.404  35.191  0.00  0.00    +0.064 C 
ATOM     11  C   UNL     1      60.909 168.227  34.015  0.00  0.00    +0.151 C 
ATOM     12  O   UNL     1      60.506 169.193  33.391  0.00  0.00    -0.296 OA
ATOM     13  C   UNL     1      60.529 166.856  33.627  0.00  0.00    +0.065 C 
ATOM     14  C   UNL     1      59.948 166.094  34.771  0.00  0.00    +0.008 C 
ATOM     15  C   UNL     1      60.260 166.198  38.541  0.00  0.00    +0.000 C 
ATOM     16  C   UNL     1      60.118 165.161  39.605  0.00  0.00    +0.002 C 
ATOM     17  C   UNL     1      59.473 162.927  37.635  0.00  0.00    +0.002 C 
ATOM     18  C   UNL     1      59.087 162.379  38.959  0.00  0.00    +0.021 C 
ENDROOT
BRANCH   1  19
ATOM     19  C   UNL     1      61.056 161.569  40.313  0.00  0.00    +0.040 C 
ATOM     20  C   UNL     1      62.143 161.778  41.288  0.00  0.00    +0.005 C 
ATOM     21  C   UNL     1      63.109 160.704  41.480  0.00  0.00    +0.000 C 
ATOM     22  C   UNL     1      63.978 160.704  40.195  0.00  0.00    +0.000 C 
ATOM     23  C   UNL     1      62.897 160.176  39.210  0.00  0.00    +0.000 C 
ATOM     24  C   UNL     1      61.911 161.249  39.025  0.00  0.00    +0.006 C 
ATOM     25  C   UNL     1      63.935 160.732  42.697  0.00  0.00    +0.000 C 
ATOM     26  C   UNL     1      64.577 162.128  42.746  0.00  0.00    +0.000 C 
ATOM     27  C   UNL     1      63.429 163.068  42.905  0.00  0.00    +0.000 C 
ATOM     28  C   UNL     1      62.536 163.135  41.652  0.00  0.00    +0.000 C 
BRANCH  19  31
ATOM     29  F   UNL     1      60.642 160.852  43.034  0.00  0.00    -0.204 F 
ATOM     30  C   UNL     1      60.104 160.035  42.057  0.00  0.00    +0.138 C 
ATOM     31  C   UNL     1      60.376 160.308  40.710  0.00  0.00    +0.034 C 
ATOM     32  C   UNL     1      59.852 159.380  39.844  0.00  0.00    +0.138 C 
ATOM     33  C   UNL     1      59.116 158.267  40.264  0.00  0.00    +0.029 C 
ATOM     34  C   UNL     1      58.881 158.053  41.593  0.00  0.00    +0.005 C 
ATOM     35  C   UNL     1      59.383 158.952  42.498  0.00  0.00    +0.029 C 
ATOM     36  F   UNL     1      59.973 159.509  38.528  0.00  0.00    -0.204 F 
ENDBRANCH  19  31
ENDBRANCH   1  19
BRANCH   1  37
ATOM     37  N   UNL     1      59.407 163.104  41.158  0.00  0.00    -0.175 N 
ATOM     38  N   UNL     1      59.734 163.727  42.250  0.00  0.00    -0.052 NA
ATOM     39  N   UNL     1      58.716 163.941  43.034  0.00  0.00    -0.025 NA
ATOM     40  N   UNL     1      57.654 163.435  42.434  0.00  0.00    -0.108 NA
ATOM     41  C   UNL     1      58.057 162.909  41.263  0.00  0.00    +0.210 C 
ENDBRANCH   1  37
TORSDOF 3
ENDMDL
