REMARK  Name = =
REMARK  9 active torsions:
REMARK  status: ('A' for Active; 'I' for Inactive)
REMARK    1  A    between atoms: C_1  and  O_12
REMARK    2  A    between atoms: C_2  and  N_7
REMARK    3  A    between atoms: C_3  and  O_11
REMARK    4  A    between atoms: C_4  and  O_10
REMARK    5  A    between atoms: C_6  and  O_25
REMARK    6  A    between atoms: N_8  and  N_9
REMARK    7  A    between atoms: O_12  and  C_15
REMARK    8  A    between atoms: O_22  and  O_23
REMARK    9  A    between atoms: O_25  and  C_26
REMARK                            x       y       z     vdW  Elec       q    Type
REMARK                         _______ _______ _______ _____ _____    ______ ____
ROOT
ATOM      1  C   UNL     1     -12.432 -44.501  29.958  0.00  0.00    +0.202 C 
ATOM      2  C   UNL     1     -11.357 -45.278  29.488  0.00  0.00    +0.178 C 
ATOM      3  C   UNL     1     -11.345 -45.839  28.241  0.00  0.00    +0.191 C 
ATOM      4  C   UNL     1     -12.406 -45.656  27.390  0.00  0.00    +0.172 C 
ATOM      5  C   UNL     1     -13.458 -44.913  27.811  0.00  0.00    +0.080 C 
ATOM      6  C   UNL     1     -13.482 -44.333  29.086  0.00  0.00    +0.184 C 
ENDROOT
BRANCH   2   7
ATOM      7  N   UNL     1     -10.218 -45.508  30.329  0.00  0.00    -0.126 NA
ATOM      8  N   UNL     1     -10.022 -46.619  30.908  0.00  0.00    -0.084 NA
BRANCH   8   9
ATOM      9  N   UNL     1      -8.925 -46.879  31.733  0.00  0.00    -0.264 N 
ATOM     10  H   UNL     1      -8.826 -47.762  32.156  0.00  0.00    +0.166 HD
ATOM     11  H   UNL     1      -8.251 -46.179  31.891  0.00  0.00    +0.166 HD
ENDBRANCH   8   9
ENDBRANCH   2   7
BRANCH   4  12
ATOM     12  O   UNL     1     -12.419 -46.219  26.106  0.00  0.00    -0.503 OA
ATOM     13  H   UNL     1     -13.154 -46.081  25.541  0.00  0.00    +0.292 HD
ENDBRANCH   4  12
BRANCH   3  14
ATOM     14  O   UNL     1     -10.277 -46.610  27.776  0.00  0.00    -0.502 OA
ATOM     15  H   UNL     1      -9.533 -46.759  28.325  0.00  0.00    +0.292 HD
ENDBRANCH   3  14
BRANCH   1  16
ATOM     16  O   UNL     1     -12.346 -44.014  31.181  0.00  0.00    -0.448 OA
BRANCH  16  19
ATOM     17 CL   UNL     1     -13.401 -42.068  33.318  0.00  0.00    -0.079 Cl
ATOM     18  C   UNL     1     -11.729 -42.432  32.891  0.00  0.00    +0.092 C 
ATOM     19  C   UNL     1     -11.436 -43.326  31.912  0.00  0.00    +0.156 C 
ATOM     20  C   UNL     1     -10.053 -43.538  31.656  0.00  0.00    +0.038 C 
ATOM     21  C   UNL     1      -9.058 -42.916  32.314  0.00  0.00    +0.003 C 
ATOM     22  C   UNL     1      -9.381 -42.018  33.296  0.00  0.00    +0.001 C 
ATOM     23  C   UNL     1     -10.700 -41.777  33.583  0.00  0.00    +0.014 C 
ENDBRANCH  16  19
ENDBRANCH   1  16
BRANCH   6  24
ATOM     24  O   UNL     1     -14.590 -43.601  29.428  0.00  0.00    -0.450 OA
BRANCH  24  25
ATOM     25  C   UNL     1     -15.526 -43.042  28.641  0.00  0.00    +0.145 C 
ATOM     26  C   UNL     1     -15.357 -42.716  27.324  0.00  0.00    +0.035 C 
ATOM     27  C   UNL     1     -16.384 -42.136  26.580  0.00  0.00    +0.003 C 
ATOM     28  C   UNL     1     -17.602 -41.886  27.196  0.00  0.00    +0.000 C 
ATOM     29  C   UNL     1     -17.781 -42.205  28.505  0.00  0.00    +0.003 C 
ATOM     30  C   UNL     1     -16.768 -42.774  29.231  0.00  0.00    +0.037 C 
ATOM     31  C   UNL     1     -16.245 -41.783  25.262  0.00  0.00    +0.000 C 
ATOM     32  C   UNL     1     -15.038 -42.007  24.632  0.00  0.00    +0.000 C 
ATOM     33  C   UNL     1     -14.017 -42.574  25.346  0.00  0.00    +0.000 C 
ATOM     34  C   UNL     1     -14.158 -42.934  26.688  0.00  0.00    +0.003 C 
ENDBRANCH  24  25
ENDBRANCH   6  24
TORSDOF 8
REMARK  Name = =
REMARK  9 active torsions:
REMARK  status: ('A' for Active; 'I' for Inactive)
REMARK    1  A    between atoms: C_1  and  O_12
REMARK    2  A    between atoms: C_2  and  N_7
REMARK    3  A    between atoms: C_3  and  O_11
REMARK    4  A    between atoms: C_4  and  O_10
REMARK    5  A    between atoms: C_6  and  O_25
REMARK    6  A    between atoms: N_8  and  N_9
REMARK    7  A    between atoms: O_12  and  C_15
REMARK    8  A    between atoms: O_22  and  O_23
REMARK    9  A    between atoms: O_25  and  C_26
REMARK                            x       y       z     vdW  Elec       q    Type
REMARK                         _______ _______ _______ _____ _____    ______ ____
ROOT
ATOM      1  P   UNL     1      -7.332 -43.203  32.122  0.00  0.00    +0.000 P 
ENDROOT
TORSDOF 0
REMARK  Name = =
REMARK  9 active torsions:
REMARK  status: ('A' for Active; 'I' for Inactive)
REMARK    1  A    between atoms: C_1  and  O_12
REMARK    2  A    between atoms: C_2  and  N_7
REMARK    3  A    between atoms: C_3  and  O_11
REMARK    4  A    between atoms: C_4  and  O_10
REMARK    5  A    between atoms: C_6  and  O_25
REMARK    6  A    between atoms: N_8  and  N_9
REMARK    7  A    between atoms: O_12  and  C_15
REMARK    8  A    between atoms: O_22  and  O_23
REMARK    9  A    between atoms: O_25  and  C_26
REMARK                            x       y       z     vdW  Elec       q    Type
REMARK                         _______ _______ _______ _____ _____    ______ ____
ROOT
ATOM      1  O   HOH     1      -7.234 -42.381  30.880  0.00  0.00    -0.253 OA
ATOM      2  H   HOH     0      -6.264 -42.381  30.880  0.00  0.00    +0.253 HD
ENDROOT
TORSDOF 0
REMARK  Name = =
REMARK  9 active torsions:
REMARK  status: ('A' for Active; 'I' for Inactive)
REMARK    1  A    between atoms: C_1  and  O_12
REMARK    2  A    between atoms: C_2  and  N_7
REMARK    3  A    between atoms: C_3  and  O_11
REMARK    4  A    between atoms: C_4  and  O_10
REMARK    5  A    between atoms: C_6  and  O_25
REMARK    6  A    between atoms: N_8  and  N_9
REMARK    7  A    between atoms: O_12  and  C_15
REMARK    8  A    between atoms: O_22  and  O_23
REMARK    9  A    between atoms: O_25  and  C_26
REMARK                            x       y       z     vdW  Elec       q    Type
REMARK                         _______ _______ _______ _____ _____    ______ ____
ROOT
ATOM      1  O   UNL     1      -6.610 -42.880  33.659  0.00  0.00    -0.253 OA
ATOM      2  H   UNL     1      -7.558 -42.718  33.536  0.00  0.00    +0.253 HD
ENDROOT
BRANCH   1   3
ATOM      3  O   UNL     1      -6.107 -44.176  32.625  0.00  0.00    -0.253 OA
ATOM      4  H   UNL     1      -5.159 -44.338  32.748  0.00  0.00    +0.253 HD
ENDBRANCH   1   3
TORSDOF 1
REMARK  Name = =
REMARK  9 active torsions:
REMARK  status: ('A' for Active; 'I' for Inactive)
REMARK    1  A    between atoms: C_1  and  O_12
REMARK    2  A    between atoms: C_2  and  N_7
REMARK    3  A    between atoms: C_3  and  O_11
REMARK    4  A    between atoms: C_4  and  O_10
REMARK    5  A    between atoms: C_6  and  O_25
REMARK    6  A    between atoms: N_8  and  N_9
REMARK    7  A    between atoms: O_12  and  C_15
REMARK    8  A    between atoms: O_22  and  O_23
REMARK    9  A    between atoms: O_25  and  C_26
REMARK                            x       y       z     vdW  Elec       q    Type
REMARK                         _______ _______ _______ _____ _____    ______ ____
ROOT
ATOM      1  O   HOH     1      -7.740 -44.104  30.835  0.00  0.00    -0.253 OA
ATOM      2  H   HOH     0      -6.770 -44.104  30.835  0.00  0.00    +0.253 HD
ENDROOT
TORSDOF 0
