REMARK  Name = =
REMARK  0 active torsions:
REMARK  status: ('A' for Active; 'I' for Inactive)
REMARK                            x       y       z     vdW  Elec       q    Type
REMARK                         _______ _______ _______ _____ _____    ______ ____
ROOT
ATOM      1  N   UNL     1      50.853 156.324  29.499  0.00  0.00    -0.295 NA
ATOM      2  C   UNL     1      52.058 156.676  28.741  0.00  0.00    +0.086 C 
ATOM      3  C   UNL     1      52.621 157.914  29.358  0.00  0.00    +0.089 C 
ATOM      4  N   UNL     1      54.064 157.926  29.275  0.00  0.00    -0.271 NA
ATOM      5  C   UNL     1      54.568 159.129  29.942  0.00  0.00    +0.073 C 
ATOM      6  C   UNL     1      56.018 158.804  30.275  0.00  0.00    +0.019 C 
ATOM      7  C   UNL     1      56.137 157.307  30.027  0.00  0.00    +0.019 C 
ATOM      8  C   UNL     1      54.663 156.893  30.100  0.00  0.00    +0.072 C 
ATOM      9  C   UNL     1      54.438 160.344  29.082  0.00  0.00    +0.085 C 
ATOM     10  N   UNL     1      53.839 161.399  29.875  0.00  0.00    -0.296 NA
ATOM     11  C   UNL     1      53.612 161.011  31.242  0.00  0.00    +0.069 C 
ATOM     12  C   UNL     1      52.421 161.824  31.741  0.00  0.00    +0.017 C 
ATOM     13  C   UNL     1      52.783 163.272  31.881  0.00  0.00    +0.003 C 
ATOM     14  C   UNL     1      51.574 164.173  31.739  0.00  0.00    +0.017 C 
ATOM     15  C   UNL     1      50.496 163.789  32.718  0.00  0.00    +0.069 C 
ATOM     16  N   UNL     1      49.940 162.491  32.450  0.00  0.00    -0.296 NA
ATOM     17  C   UNL     1      48.716 162.543  31.677  0.00  0.00    +0.086 C 
ATOM     18  C   UNL     1      47.714 161.635  32.356  0.00  0.00    +0.089 C 
ATOM     19  N   UNL     1      47.240 160.593  31.489  0.00  0.00    -0.271 NA
ATOM     20  C   UNL     1      47.879 159.317  31.740  0.00  0.00    +0.073 C 
ATOM     21  C   UNL     1      46.966 158.686  32.740  0.00  0.00    +0.019 C 
ATOM     22  C   UNL     1      45.595 159.013  32.161  0.00  0.00    +0.019 C 
ATOM     23  C   UNL     1      45.832 160.421  31.657  0.00  0.00    +0.072 C 
ATOM     24  C   UNL     1      47.973 158.584  30.442  0.00  0.00    +0.085 C 
ATOM     25  N   UNL     1      48.195 157.188  30.654  0.00  0.00    -0.295 NA
ATOM     26  C   UNL     1      48.457 156.449  29.457  0.00  0.00    +0.086 C 
ATOM     27  C   UNL     1      49.715 156.833  28.758  0.00  0.00    +0.086 C 
ATOM     28  H   UNL     1      50.886 156.750  30.425  0.00  0.00    +0.123 HD
ATOM     29  H   UNL     1      52.945 161.653  29.456  0.00  0.00    +0.123 HD
ATOM     30  H   UNL     1      49.742 162.033  33.340  0.00  0.00    +0.123 HD
ATOM     31  H   UNL     1      47.365 156.795  31.097  0.00  0.00    +0.123 HD
ENDROOT
TORSDOF 0
