REMARK  Name = =
REMARK  1 active torsions:
REMARK  status: ('A' for Active; 'I' for Inactive)
REMARK    1  A    between atoms: C_1  and  C_12
REMARK                            x       y       z     vdW  Elec       q    Type
REMARK                         _______ _______ _______ _____ _____    ______ ____
ROOT
ATOM      1  C   UNL     1      51.947 156.126  28.749  0.00  0.00    -0.019 C 
ATOM      2  C   UNL     1      52.590 156.127  27.522  0.00  0.00    +0.072 C 
ATOM      3  C   UNL     1      52.928 154.923  26.949  0.00  0.00    +0.094 C 
ATOM      4  C   UNL     1      52.624 153.736  27.604  0.00  0.00    +0.176 C 
ATOM      5  N   UNL     1      52.000 153.798  28.790  0.00  0.00    -0.225 NA
ATOM      6  C   UNL     1      51.649 154.943  29.392  0.00  0.00    +0.092 C 
ATOM      7  N   UNL     1      52.972 152.586  27.010  0.00  0.00    -0.227 NA
ATOM      8  C   UNL     1      53.594 152.543  25.824  0.00  0.00    +0.101 C 
ATOM      9  C   UNL     1      53.903 153.715  25.163  0.00  0.00    +0.172 C 
ATOM     10  N   UNL     1      53.551 154.883  25.763  0.00  0.00    -0.265 NA
ENDROOT
BRANCH   1  12
ATOM     11  C   UNL     1      52.265 158.512  29.560  0.00  0.00    +0.004 C 
ATOM     12  C   UNL     1      51.577 157.398  29.378  0.00  0.00    +0.020 C 
ATOM     13  C   UNL     1      50.341 157.886  30.016  0.00  0.00    +0.004 C 
ATOM     14  C   UNL     1      51.108 159.140  30.224  0.00  0.00    +0.001 C 
ENDBRANCH   1  12
TORSDOF 1
