REMARK  Name = =
REMARK  1 active torsions:
REMARK  status: ('A' for Active; 'I' for Inactive)
REMARK    1  A    between atoms: C_26  and  N_28
REMARK                            x       y       z     vdW  Elec       q    Type
REMARK                         _______ _______ _______ _____ _____    ______ ____
ROOT
ATOM      1  N   UNL     1      53.667 158.055  28.901  0.00  0.00    -0.294 NA
ATOM      2  C   UNL     1      54.248 158.681  30.051  0.00  0.00    +0.086 C 
ATOM      3  C   UNL     1      55.483 159.477  29.648  0.00  0.00    +0.089 C 
ATOM      4  N   UNL     1      55.091 160.827  29.314  0.00  0.00    -0.271 NA
ATOM      5  C   UNL     1      55.177 161.712  30.456  0.00  0.00    +0.073 C 
ATOM      6  C   UNL     1      56.665 161.848  30.692  0.00  0.00    +0.019 C 
ATOM      7  C   UNL     1      57.233 161.743  29.285  0.00  0.00    +0.019 C 
ATOM      8  C   UNL     1      56.054 161.386  28.398  0.00  0.00    +0.072 C 
ATOM      9  C   UNL     1      54.657 163.066  30.002  0.00  0.00    +0.085 C 
ATOM     10  N   UNL     1      54.273 163.877  31.153  0.00  0.00    -0.296 NA
ATOM     11  C   UNL     1      52.840 163.782  31.335  0.00  0.00    +0.069 C 
ATOM     12  C   UNL     1      52.480 164.633  32.531  0.00  0.00    +0.017 C 
ATOM     13  C   UNL     1      50.983 164.722  32.728  0.00  0.00    +0.003 C 
ATOM     14  C   UNL     1      50.349 163.396  32.332  0.00  0.00    +0.017 C 
ATOM     15  C   UNL     1      48.863 163.457  32.550  0.00  0.00    +0.069 C 
ATOM     16  N   UNL     1      48.111 162.946  31.407  0.00  0.00    -0.296 NA
ATOM     17  C   UNL     1      47.393 161.726  31.760  0.00  0.00    +0.086 C 
ATOM     18  C   UNL     1      47.609 160.736  30.652  0.00  0.00    +0.089 C 
ATOM     19  N   UNL     1      47.539 159.369  31.055  0.00  0.00    -0.271 NA
ATOM     20  C   UNL     1      48.807 158.773  31.364  0.00  0.00    +0.073 C 
ATOM     21  C   UNL     1      48.586 157.689  32.372  0.00  0.00    +0.019 C 
ATOM     22  C   UNL     1      47.156 157.872  32.850  0.00  0.00    +0.019 C 
ATOM     23  C   UNL     1      46.618 159.074  32.096  0.00  0.00    +0.072 C 
ATOM     24  C   UNL     1      49.365 158.233  30.045  0.00  0.00    +0.086 C 
ATOM     25  N   UNL     1      50.761 157.878  30.162  0.00  0.00    -0.284 NA
ATOM     26  C   UNL     1      51.284 157.622  28.850  0.00  0.00    +0.131 C 
ATOM     27  C   UNL     1      52.366 158.640  28.543  0.00  0.00    +0.102 C 
ATOM     28  H   UNL     1      53.537 157.063  29.098  0.00  0.00    +0.123 HD
ATOM     29  H   UNL     1      54.534 164.849  30.989  0.00  0.00    +0.123 HD
ATOM     30  H   UNL     1      47.440 163.653  31.105  0.00  0.00    +0.123 HD
ATOM     31  H   UNL     1      50.855 157.041  30.738  0.00  0.00    +0.125 HD
ENDROOT
BRANCH  26  32
ATOM     32  N   UNL     1      51.863 156.320  28.824  0.00  0.00    -0.260 NA
ATOM     33  C   UNL     1      52.784 156.065  27.761  0.00  0.00    +0.073 C 
ATOM     34  C   UNL     1      53.148 154.607  28.022  0.00  0.00    +0.019 C 
ATOM     35  C   UNL     1      51.752 154.040  28.294  0.00  0.00    +0.019 C 
ATOM     36  C   UNL     1      50.908 155.240  28.693  0.00  0.00    +0.073 C 
ENDBRANCH  26  32
TORSDOF 1
