REMARK  Name = =
REMARK  5 active torsions:
REMARK  status: ('A' for Active; 'I' for Inactive)
REMARK    1  A    between atoms: C_2  and  N_24
REMARK    2  A    between atoms: C_16  and  N_18
REMARK    3  A    between atoms: C_19  and  N_23
REMARK    4  A    between atoms: N_24  and  C_25
REMARK    5  A    between atoms: C_28  and  O_31
REMARK                            x       y       z     vdW  Elec       q    Type
REMARK                         _______ _______ _______ _____ _____    ______ ____
ROOT
ATOM      1  C   UNL     1      52.499 155.731  27.968  0.00  0.00    -0.005 C 
ATOM      2  C   UNL     1      53.100 154.612  27.499  0.00  0.00    +0.133 C 
ATOM      3  C   UNL     1      53.850 154.656  26.329  0.00  0.00    +0.111 C 
ATOM      4  C   UNL     1      53.974 155.843  25.655  0.00  0.00    +0.173 C 
ATOM      5  N   UNL     1      53.376 156.946  26.128  0.00  0.00    -0.247 NA
ATOM      6  C   UNL     1      52.632 156.905  27.286  0.00  0.00    +0.151 C 
ATOM      7  N   UNL     1      54.712 155.876  24.509  0.00  0.00    -0.227 NA
ATOM      8  C   UNL     1      55.305 154.764  24.048  0.00  0.00    +0.101 C 
ATOM      9  C   UNL     1      55.189 153.565  24.713  0.00  0.00    +0.172 C 
ATOM     10  N   UNL     1      54.457 153.560  25.841  0.00  0.00    -0.263 NA
ATOM     11  C   UNL     1      51.188 156.604  29.918  0.00  0.00    +0.022 C 
ATOM     12  C   UNL     1      51.711 155.662  29.210  0.00  0.00    -0.048 C 
ATOM     13  C   UNL     1      51.234 154.618  30.093  0.00  0.00    +0.022 C 
ATOM     14  C   UNL     1      50.635 155.692  30.891  0.00  0.00    +0.009 C 
ENDROOT
BRANCH   2  15
ATOM     15  N   UNL     1      52.977 153.376  28.184  0.00  0.00    -0.326 N 
ATOM     16  H   UNL     1      53.081 153.342  29.162  0.00  0.00    +0.147 HD
BRANCH  15  17
ATOM     17  C   UNL     1      52.703 152.185  27.454  0.00  0.00    +0.045 C 
ATOM     18  C   UNL     1      53.378 151.854  26.298  0.00  0.00    +0.017 C 
ATOM     19  C   UNL     1      53.094 150.692  25.608  0.00  0.00    +0.038 C 
ATOM     20  C   UNL     1      52.119 149.808  26.048  0.00  0.00    +0.134 C 
ATOM     21  C   UNL     1      51.444 150.138  27.203  0.00  0.00    +0.038 C 
ATOM     22  C   UNL     1      51.731 151.306  27.894  0.00  0.00    +0.017 C 
BRANCH  20  23
ATOM     23  O   UNL     1      51.845 148.645  25.344  0.00  0.00    -0.506 OA
ATOM     24  H   UNL     1      52.321 148.448  24.561  0.00  0.00    +0.292 HD
ENDBRANCH  20  23
ENDBRANCH  15  17
ENDBRANCH   2  15
TORSDOF 3
REMARK  Name = =
REMARK  5 active torsions:
REMARK  status: ('A' for Active; 'I' for Inactive)
REMARK    1  A    between atoms: C_2  and  N_24
REMARK    2  A    between atoms: C_16  and  N_18
REMARK    3  A    between atoms: C_19  and  N_23
REMARK    4  A    between atoms: N_24  and  C_25
REMARK    5  A    between atoms: C_28  and  O_31
REMARK                            x       y       z     vdW  Elec       q    Type
REMARK                         _______ _______ _______ _____ _____    ______ ____
ROOT
ATOM      1  I   UNL     1      51.159 158.709  29.711  0.00  0.00    -0.107 I 
ATOM      2  H   UNL     1      52.720 158.709  29.711  0.00  0.00    +0.107 HD
ENDROOT
TORSDOF 0
REMARK  Name = =
REMARK  5 active torsions:
REMARK  status: ('A' for Active; 'I' for Inactive)
REMARK    1  A    between atoms: C_2  and  N_24
REMARK    2  A    between atoms: C_16  and  N_18
REMARK    3  A    between atoms: C_19  and  N_23
REMARK    4  A    between atoms: N_24  and  C_25
REMARK    5  A    between atoms: C_28  and  O_31
REMARK                            x       y       z     vdW  Elec       q    Type
REMARK                         _______ _______ _______ _____ _____    ______ ____
ROOT
ATOM      1  N   UNL     1      49.157 160.194  31.497  0.00  0.00    -0.296 N 
ATOM      2  C   UNL     1      50.066 161.269  31.879  0.00  0.00    +0.128 C 
ATOM      3  C   UNL     1      50.076 161.220  33.393  0.00  0.00    +0.038 C 
ATOM      4  C   UNL     1      48.777 160.600  33.810  0.00  0.00    +0.025 C 
ATOM      5  C   UNL     1      48.103 160.232  32.515  0.00  0.00    +0.092 C 
ENDROOT
BRANCH   2   6
ATOM      6  N   UNL     1      51.374 161.042  31.332  0.00  0.00    -0.307 NA
ATOM      7  H   UNL     1      51.328 161.082  30.314  0.00  0.00    +0.120 HD
ATOM      8  H   UNL     1      51.709 160.123  31.621  0.00  0.00    +0.120 HD
ENDBRANCH   2   6
BRANCH   1   9
ATOM      9  C   UNL     1      49.271 159.316  30.392  0.00  0.00    +0.062 C 
ATOM     10  C   UNL     1      48.197 158.872  29.783  0.00  0.00    +0.017 C 
ENDBRANCH   1   9
TORSDOF 2
