REMARK  Name = =
REMARK  2 active torsions:
REMARK  status: ('A' for Active; 'I' for Inactive)
REMARK    1  A    between atoms: C_1  and  N_11
REMARK    2  A    between atoms: C_9  and  O_12
REMARK                            x       y       z     vdW  Elec       q    Type
REMARK                         _______ _______ _______ _____ _____    ______ ____
ROOT
ATOM      1  C   UNL     1      54.149 152.385  25.379  0.00  0.00    +0.062 C 
ATOM      2  C   UNL     1      53.918 153.746  25.345  0.00  0.00    +0.094 C 
ATOM      3  N   UNL     1      54.772 154.524  24.624  0.00  0.00    -0.243 NA
ATOM      4  C   UNL     1      54.583 155.851  24.565  0.00  0.00    +0.099 C 
ATOM      5  C   UNL     1      53.525 156.429  25.233  0.00  0.00    +0.021 C 
ATOM      6  C   UNL     1      52.637 155.663  25.976  0.00  0.00    +0.003 C 
ATOM      7  C   UNL     1      52.857 154.307  26.018  0.00  0.00    +0.022 C 
ATOM      8  C   UNL     1      51.996 153.494  26.748  0.00  0.00    +0.038 C 
ATOM      9  C   UNL     1      52.229 152.134  26.781  0.00  0.00    +0.135 C 
ATOM     10  C   UNL     1      53.295 151.579  26.105  0.00  0.00    +0.052 C 
ENDROOT
BRANCH   1  11
ATOM     11  N   UNL     1      55.268 151.836  24.664  0.00  0.00    -0.356 N 
ATOM     12  H   UNL     1      55.438 150.866  24.685  0.00  0.00    +0.142 HD
ATOM     13  H   UNL     1      55.865 152.429  24.153  0.00  0.00    +0.142 HD
ENDBRANCH   1  11
BRANCH   9  14
ATOM     14  O   UNL     1      51.366 151.302  27.516  0.00  0.00    -0.505 OA
ATOM     15  H   UNL     1      50.640 151.672  27.978  0.00  0.00    +0.292 HD
ENDBRANCH   9  14
TORSDOF 2
