REMARK  Name = =
REMARK  3 active torsions:
REMARK  status: ('A' for Active; 'I' for Inactive)
REMARK    1  A    between atoms: C_1  and  N_17
REMARK    2  A    between atoms: N_17  and  C_18
REMARK    3  A    between atoms: C_26  and  O_28
REMARK                            x       y       z     vdW  Elec       q    Type
REMARK                         _______ _______ _______ _____ _____    ______ ____
ROOT
ATOM      1  C   UNL     1      53.077 156.323  25.850  0.00  0.00    +0.069 C 
ATOM      2  C   UNL     1      54.278 155.993  25.012  0.00  0.00    +0.020 C 
ATOM      3  C   UNL     1      54.671 154.576  24.908  0.00  0.00    +0.009 C 
ATOM      4  C   UNL     1      56.107 154.335  25.394  0.00  0.00    +0.065 C 
ATOM      5  C   UNL     1      56.326 152.914  25.722  0.00  0.00    +0.151 C 
ATOM      6  O   UNL     1      56.660 152.583  26.847  0.00  0.00    -0.296 OA
ATOM      7  C   UNL     1      56.156 151.824  24.721  0.00  0.00    +0.065 C 
ATOM      8  C   UNL     1      55.521 150.616  25.343  0.00  0.00    +0.012 C 
ATOM      9  C   UNL     1      54.310 150.123  24.614  0.00  0.00    +0.048 C 
ATOM     10  C   UNL     1      53.072 150.951  24.894  0.00  0.00    +0.208 C 
ATOM     11  O   UNL     1      52.790 151.050  26.254  0.00  0.00    -0.448 OA
ATOM     12  C   UNL     1      52.264 152.127  26.921  0.00  0.00    +0.317 C 
ATOM     13  O   UNL     1      52.527 152.293  28.130  0.00  0.00    -0.250 OA
ATOM     14  C   UNL     1      51.400 153.076  26.225  0.00  0.00    +0.110 C 
ATOM     15  C   UNL     1      51.565 154.499  26.756  0.00  0.00    +0.013 C 
ATOM     16  C   UNL     1      51.919 155.396  25.627  0.00  0.00    +0.020 C 
ENDROOT
BRANCH   1  17
ATOM     17  N   UNL     1      53.410 156.314  27.257  0.00  0.00    -0.333 N 
ATOM     18  H   UNL     1      54.358 156.452  27.483  0.00  0.00    +0.147 HD
BRANCH  17  19
ATOM     19  C   UNL     1      52.535 156.131  28.332  0.00  0.00    +0.065 C 
ATOM     20  C   UNL     1      51.953 157.216  28.973  0.00  0.00    +0.095 C 
ATOM     21  N   UNL     1      52.249 158.450  28.564  0.00  0.00    -0.243 NA
ATOM     22  C   UNL     1      51.748 159.572  29.107  0.00  0.00    +0.099 C 
ATOM     23  C   UNL     1      50.872 159.464  30.152  0.00  0.00    +0.021 C 
ATOM     24  C   UNL     1      50.529 158.206  30.619  0.00  0.00    +0.003 C 
ATOM     25  C   UNL     1      51.076 157.091  30.021  0.00  0.00    +0.022 C 
ATOM     26  C   UNL     1      50.737 155.837  30.480  0.00  0.00    +0.038 C 
ATOM     27  C   UNL     1      51.283 154.724  29.882  0.00  0.00    +0.135 C 
ATOM     28  C   UNL     1      52.168 154.896  28.822  0.00  0.00    +0.052 C 
BRANCH  27  29
ATOM     29  O   UNL     1      50.950 153.447  30.335  0.00  0.00    -0.505 OA
ATOM     30  H   UNL     1      50.353 153.344  31.050  0.00  0.00    +0.292 HD
ENDBRANCH  27  29
ENDBRANCH  17  19
ENDBRANCH   1  17
TORSDOF 3
