REMARK  Name = =
REMARK  7 active torsions:
REMARK  status: ('A' for Active; 'I' for Inactive)
REMARK    1  A    between atoms: C_1  and  N_22
REMARK    2  A    between atoms: C_8  and  P_17
REMARK    3  A    between atoms: P_17  and  O_19
REMARK    4  A    between atoms: P_17  and  O_21
REMARK    5  A    between atoms: O_18  and  O_20
REMARK    6  A    between atoms: N_22  and  C_23
REMARK    7  A    between atoms: C_31  and  O_33
REMARK                            x       y       z     vdW  Elec       q    Type
REMARK                         _______ _______ _______ _____ _____    ______ ____
ROOT
ATOM      1  C   UNL     1      52.236 155.694  27.902  0.00  0.00    +0.069 C 
ATOM      2  C   UNL     1      53.181 156.553  28.720  0.00  0.00    +0.020 C 
ATOM      3  C   UNL     1      53.014 158.042  28.389  0.00  0.00    +0.009 C 
ATOM      4  C   UNL     1      52.509 158.835  29.558  0.00  0.00    +0.065 C 
ATOM      5  C   UNL     1      51.318 159.658  29.218  0.00  0.00    +0.151 C 
ATOM      6  O   UNL     1      50.755 159.413  28.165  0.00  0.00    -0.296 OA
ATOM      7  C   UNL     1      50.818 160.720  30.086  0.00  0.00    +0.078 C 
ATOM      8  C   UNL     1      49.422 160.656  30.536  0.00  0.00    +0.102 C 
ATOM      9  C   UNL     1      48.454 159.908  29.703  0.00  0.00    +0.024 C 
ATOM     10  C   UNL     1      48.483 158.438  29.762  0.00  0.00    +0.179 C 
ATOM     11  O   UNL     1      49.489 157.860  30.521  0.00  0.00    -0.421 OA
ATOM     12  C   UNL     1      49.586 156.498  30.651  0.00  0.00    +0.322 C 
ATOM     13  O   UNL     1      50.217 156.040  31.663  0.00  0.00    -0.250 OA
ATOM     14  C   UNL     1      49.013 155.533  29.711  0.00  0.00    +0.110 C 
ATOM     15  C   UNL     1      49.858 155.351  28.459  0.00  0.00    +0.013 C 
ATOM     16  C   UNL     1      51.281 154.971  28.801  0.00  0.00    +0.020 C 
ENDROOT
BRANCH   1  17
ATOM     17  N   UNL     1      52.943 154.795  27.007  0.00  0.00    -0.333 N 
ATOM     18  H   UNL     1      53.621 155.179  26.406  0.00  0.00    +0.147 HD
BRANCH  17  19
ATOM     19  C   UNL     1      52.716 153.410  26.949  0.00  0.00    +0.065 C 
ATOM     20  C   UNL     1      53.235 152.635  25.943  0.00  0.00    +0.095 C 
ATOM     21  N   UNL     1      53.995 153.168  24.955  0.00  0.00    -0.243 NA
ATOM     22  C   UNL     1      54.525 152.463  23.952  0.00  0.00    +0.099 C 
ATOM     23  C   UNL     1      54.320 151.108  23.866  0.00  0.00    +0.021 C 
ATOM     24  C   UNL     1      53.539 150.519  24.867  0.00  0.00    +0.003 C 
ATOM     25  C   UNL     1      53.005 151.262  25.887  0.00  0.00    +0.022 C 
ATOM     26  C   UNL     1      52.247 150.651  26.848  0.00  0.00    +0.038 C 
ATOM     27  C   UNL     1      51.715 151.417  27.873  0.00  0.00    +0.135 C 
ATOM     28  C   UNL     1      51.956 152.797  27.912  0.00  0.00    +0.052 C 
BRANCH  27  29
ATOM     29  O   UNL     1      50.954 150.765  28.826  0.00  0.00    -0.505 OA
ATOM     30  H   UNL     1      50.817 149.840  28.764  0.00  0.00    +0.292 HD
ENDBRANCH  27  29
ENDBRANCH  17  19
ENDBRANCH   1  17
BRANCH   8  31
ATOM     31  P   UNL     1      49.247 160.063  32.224  0.00  0.00    +0.180 P 
BRANCH  31  32
ATOM     32  O   UNL     1      50.530 160.189  33.238  0.00  0.00    -0.349 OA
ATOM     33  H   UNL     1      51.102 160.917  32.947  0.00  0.00    +0.217 HD
ENDBRANCH  31  32
BRANCH  31  34
ATOM     34  O   UNL     1      48.209 158.824  32.660  0.00  0.00    -0.349 OA
ATOM     35  H   UNL     1      47.468 158.788  32.035  0.00  0.00    +0.217 HD
ENDBRANCH  31  34
ENDBRANCH   8  31
TORSDOF 6
REMARK  Name = =
REMARK  7 active torsions:
REMARK  status: ('A' for Active; 'I' for Inactive)
REMARK    1  A    between atoms: C_1  and  N_22
REMARK    2  A    between atoms: C_8  and  P_17
REMARK    3  A    between atoms: P_17  and  O_19
REMARK    4  A    between atoms: P_17  and  O_21
REMARK    5  A    between atoms: O_18  and  O_20
REMARK    6  A    between atoms: N_22  and  C_23
REMARK    7  A    between atoms: C_31  and  O_33
REMARK                            x       y       z     vdW  Elec       q    Type
REMARK                         _______ _______ _______ _____ _____    ______ ____
ROOT
ATOM      1  O   UNL     1      49.040 160.564  33.604  0.00  0.00    -0.253 OA
ATOM      2  H   UNL     1      48.789 160.618  34.539  0.00  0.00    +0.253 HD
ENDROOT
BRANCH   1   3
ATOM      3  O   UNL     1      47.855 160.784  32.766  0.00  0.00    -0.253 OA
ATOM      4  H   UNL     1      48.106 160.730  31.831  0.00  0.00    +0.253 HD
ENDBRANCH   1   3
TORSDOF 1
