REMARK  Name = =
REMARK  12 active torsions:
REMARK  status: ('A' for Active; 'I' for Inactive)
REMARK    1  A    between atoms: P_1  and  O_2
REMARK    2  A    between atoms: P_1  and  C_5
REMARK    3  A    between atoms: P_1  and  O_9
REMARK    4  A    between atoms: O_8  and  O_22
REMARK    5  A    between atoms: O_9  and  P_10
REMARK    6  A    between atoms: P_10  and  O_12
REMARK    7  A    between atoms: P_10  and  O_13
REMARK    8  A    between atoms: O_13  and  N_14
REMARK    9  A    between atoms: O_22  and  C_23
REMARK   10  A    between atoms: C_23  and  O_33
REMARK   11  A    between atoms: O_33  and  C_34
REMARK   12  A    between atoms: C_34  and  O_36
REMARK                            x       y       z     vdW  Elec       q    Type
REMARK                         _______ _______ _______ _____ _____    ______ ____
ROOT
ATOM      1  P   UNL     1      53.117 152.737  27.741  0.00  0.00    +0.500 P 
ATOM      2  O   UNL     1      53.133 151.220  27.973  0.00  0.00    -0.225 OA
ENDROOT
BRANCH   1   3
ATOM      3  O   UNL     1      54.703 153.147  27.263  0.00  0.00    -0.301 OA
ATOM      4  H   UNL     1      55.313 152.996  28.002  0.00  0.00    +0.222 HD
ENDBRANCH   1   3
BRANCH   1   5
ATOM      5  O   UNL     1      52.720 153.458  29.148  0.00  0.00    -0.226 OA
BRANCH   5   6
ATOM      6  P   UNL     1      51.411 154.553  28.924  0.00  0.00    +0.275 P 
BRANCH   6   9
ATOM      7  N   UNL     1      53.118 156.813  26.468  0.00  0.00    -0.052 NA
ATOM      8  O   UNL     1      52.189 156.116  26.960  0.00  0.00    -0.328 OA
ATOM      9  C   UNL     1      52.550 155.541  28.104  0.00  0.00    +0.305 C 
ATOM     10  N   UNL     1      53.816 155.964  28.263  0.00  0.00    -0.181 NA
ATOM     11  C   UNL     1      54.214 156.781  27.235  0.00  0.00    +0.243 C 
ENDBRANCH   6   9
BRANCH   6  12
ATOM     12  O   UNL     1      50.584 153.799  27.906  0.00  0.00    -0.342 OA
ATOM     13  H   UNL     1      49.938 153.239  28.365  0.00  0.00    +0.217 HD
ENDBRANCH   6  12
ENDBRANCH   5   6
ENDBRANCH   1   5
BRANCH   1  14
ATOM     14  O   UNL     1      52.105 153.016  26.431  0.00  0.00    -0.165 OA
BRANCH  14  15
ATOM     15  N   UNL     1      52.888 153.234  25.351  0.00  0.00    -0.103 N 
ATOM     16  C   UNL     1      53.774 152.241  24.862  0.00  0.00    +0.255 C 
ATOM     17  O   UNL     1      53.612 151.054  25.225  0.00  0.00    -0.272 OA
ATOM     18  C   UNL     1      54.865 152.575  23.949  0.00  0.00    +0.088 C 
ATOM     19  C   UNL     1      55.190 154.024  23.829  0.00  0.00    +0.019 C 
ATOM     20  C   UNL     1      54.007 154.941  23.821  0.00  0.00    +0.088 C 
ATOM     21  C   UNL     1      52.883 154.466  24.641  0.00  0.00    +0.255 C 
ATOM     22  O   UNL     1      51.861 155.191  24.718  0.00  0.00    -0.272 OA
ENDBRANCH  14  15
ENDBRANCH   1  14
TORSDOF 7
REMARK  Name = =
REMARK  12 active torsions:
REMARK  status: ('A' for Active; 'I' for Inactive)
REMARK    1  A    between atoms: P_1  and  O_2
REMARK    2  A    between atoms: P_1  and  C_5
REMARK    3  A    between atoms: P_1  and  O_9
REMARK    4  A    between atoms: O_8  and  O_22
REMARK    5  A    between atoms: O_9  and  P_10
REMARK    6  A    between atoms: P_10  and  O_12
REMARK    7  A    between atoms: P_10  and  O_13
REMARK    8  A    between atoms: O_13  and  N_14
REMARK    9  A    between atoms: O_22  and  C_23
REMARK   10  A    between atoms: C_23  and  O_33
REMARK   11  A    between atoms: O_33  and  C_34
REMARK   12  A    between atoms: C_34  and  O_36
REMARK                            x       y       z     vdW  Elec       q    Type
REMARK                         _______ _______ _______ _____ _____    ______ ____
ROOT
ATOM      1  C   UNL     1      51.358 157.028  30.170  0.00  0.00    +0.328 C 
ATOM      2  C   UNL     1      50.257 157.759  30.030  0.00  0.00    +0.030 C 
ATOM      3  C   UNL     1      50.408 159.231  30.023  0.00  0.00    +0.025 C 
ATOM      4  C   UNL     1      49.140 159.991  29.980  0.00  0.00    +0.004 C 
ATOM      5  C   UNL     1      49.374 161.272  30.767  0.00  0.00    +0.000 C 
ATOM      6  C   UNL     1      50.220 160.750  31.912  0.00  0.00    +0.000 C 
ATOM      7  C   UNL     1      51.131 159.726  31.261  0.00  0.00    +0.004 C 
ATOM      8  C   UNL     1      47.922 159.250  30.415  0.00  0.00    +0.001 C 
ATOM      9  C   UNL     1      47.825 158.002  29.578  0.00  0.00    +0.005 C 
ATOM     10  C   UNL     1      48.969 157.063  29.892  0.00  0.00    +0.029 C 
ENDROOT
BRANCH   1  11
ATOM     11  O   UNL     1      51.297 155.696  30.184  0.00  0.00    -0.299 OA
BRANCH  11  12
ATOM     12  O   UNL     1      51.473 154.173  30.479  0.00  0.00    -0.198 OA
ATOM     13  H   UNL     1      50.913 153.660  29.875  0.00  0.00    +0.268 HD
ENDBRANCH  11  12
ENDBRANCH   1  11
BRANCH   1  14
ATOM     14  O   UNL     1      52.597 157.667  30.305  0.00  0.00    -0.359 OA
BRANCH  14  15
ATOM     15  C   UNL     1      53.095 158.607  29.439  0.00  0.00    +0.515 C 
ATOM     16  O   UNL     1      52.329 159.286  28.737  0.00  0.00    -0.203 OA
BRANCH  15  17
ATOM     17  O   UNL     1      54.475 158.768  29.381  0.00  0.00    -0.449 OA
ATOM     18  H   UNL     1      54.849 159.401  28.800  0.00  0.00    +0.299 HD
ENDBRANCH  15  17
ENDBRANCH  14  15
ENDBRANCH   1  14
TORSDOF 5
