REMARK  Name = =
REMARK  10 active torsions:
REMARK  status: ('A' for Active; 'I' for Inactive)
REMARK    1  A    between atoms: C_1  and  S_2
REMARK    2  A    between atoms: C_1  and  N_8
REMARK    3  A    between atoms: C_1  and  S_13
REMARK    4  A    between atoms: S_2  and  N_3
REMARK    5  A    between atoms: N_6  and  O_7
REMARK    6  A    between atoms: N_8  and  O_9
REMARK    7  A    between atoms: O_9  and  S_10
REMARK    8  A    between atoms: S_10  and  C_11
REMARK    9  A    between atoms: S_13  and  C_22
REMARK   10  A    between atoms: C_21  and  S_25
REMARK                            x       y       z     vdW  Elec       q    Type
REMARK                         _______ _______ _______ _____ _____    ______ ____
ROOT
ATOM      1  C   UNL     1      -0.449  -3.456  28.085  0.00  0.00    +0.184 C 
ENDROOT
BRANCH   1   2
ATOM      2  S   UNL     1      -0.983  -2.605  29.359  0.00  0.00    -0.103 S 
ATOM      3  H   UNL     1       0.080  -2.474  30.197  0.00  0.00    +0.114 HD
BRANCH   2   4
ATOM      4  N   UNL     1      -1.686  -0.984  29.198  0.00  0.00    -0.251 N 
ATOM      5  C   UNL     1      -2.956  -0.682  29.753  0.00  0.00    +0.331 C 
ATOM      6  O   UNL     1      -3.545  -1.632  30.360  0.00  0.00    -0.250 OA
ATOM      7  N   UNL     1      -3.554   0.595  29.647  0.00  0.00    -0.181 N 
ATOM      8  H   UNL     1      -1.188  -0.284  28.717  0.00  0.00    +0.163 HD
ATOM      9  H   UNL     1      -3.080   1.315  29.171  0.00  0.00    +0.184 HD
BRANCH   7  10
ATOM     10  O   UNL     1      -4.766   0.841  30.189  0.00  0.00    -0.294 OA
ATOM     11  H   UNL     1      -5.097   0.037  30.619  0.00  0.00    +0.241 HD
ENDBRANCH   7  10
ENDBRANCH   2   4
ENDBRANCH   1   2
BRANCH   1  12
ATOM     12  N   UNL     1      -0.541  -2.895  26.789  0.00  0.00    -0.156 NA
ATOM     13  H   UNL     1      -1.495  -3.064  26.469  0.00  0.00    +0.158 HD
BRANCH  12  14
ATOM     14  O   UNL     1      -0.287  -1.565  26.565  0.00  0.00    -0.212 OA
BRANCH  14  15
ATOM     15  S   UNL     1       1.411  -1.373  26.407  0.00  0.00    +0.133 S 
BRANCH  15  16
ATOM     16  C   UNL     1       2.007  -2.763  25.497  0.00  0.00    +0.164 C 
ATOM     17  N   UNL     1       2.380  -3.676  24.891  0.00  0.00    -0.181 NA
ENDBRANCH  15  16
ENDBRANCH  14  15
ENDBRANCH  12  14
ENDBRANCH   1  12
BRANCH   1  18
ATOM     18  S   UNL     1       0.254  -5.081  28.267  0.00  0.00    -0.084 S 
BRANCH  18  27
ATOM     19  C   UNL     1      -1.707  -7.275  31.765  0.00  0.00    +0.059 C 
ATOM     20  C   UNL     1      -2.411  -6.401  30.962  0.00  0.00    +0.064 C 
ATOM     21  C   UNL     1      -3.781  -6.387  31.491  0.00  0.00    +0.252 C 
ATOM     22  O   UNL     1      -4.689  -5.700  31.002  0.00  0.00    -0.270 OA
ATOM     23  N   UNL     1      -3.881  -7.257  32.607  0.00  0.00    -0.248 N 
ATOM     24  C   UNL     1      -2.598  -7.815  32.789  0.00  0.00    +0.252 C 
ATOM     25  O   UNL     1      -2.295  -8.638  33.688  0.00  0.00    -0.270 OA
ATOM     26  C   UNL     1      -1.800  -5.744  29.908  0.00  0.00    +0.032 C 
ATOM     27  C   UNL     1      -0.469  -5.958  29.643  0.00  0.00    +0.033 C 
ATOM     28  C   UNL     1       0.232  -6.831  30.446  0.00  0.00    +0.007 C 
ATOM     29  C   UNL     1      -0.378  -7.489  31.503  0.00  0.00    +0.005 C 
ATOM     30  H   UNL     1      -4.685  -7.436  33.147  0.00  0.00    +0.158 HD
BRANCH  26  31
ATOM     31  S   UNL     1      -2.801  -4.622  28.915  0.00  0.00    -0.141 S 
ATOM     32  H   UNL     1      -4.073  -4.602  29.397  0.00  0.00    +0.107 HD
ENDBRANCH  26  31
ENDBRANCH  18  27
ENDBRANCH   1  18
TORSDOF 10
