REMARK  Name = =
REMARK  0 active torsions:
REMARK  status: ('A' for Active; 'I' for Inactive)
REMARK                            x       y       z     vdW  Elec       q    Type
REMARK                         _______ _______ _______ _____ _____    ______ ____
ROOT
ATOM      1  N   UNL     1      -9.028  -8.371  20.974  0.00  0.00    -0.248 NA
ATOM      2  C   UNL     1     -10.150  -7.475  20.888  0.00  0.00    +0.081 C 
ATOM      3  C   UNL     1     -11.311  -8.016  20.178  0.00  0.00    +0.019 C 
ATOM      4  C   UNL     1     -12.622  -7.664  20.763  0.00  0.00    +0.002 C 
ATOM      5  C   UNL     1     -12.805  -6.838  21.856  0.00  0.00    +0.003 C 
ATOM      6  C   UNL     1     -11.597  -6.281  22.502  0.00  0.00    +0.038 C 
ATOM      7  C   UNL     1     -10.368  -6.606  21.998  0.00  0.00    +0.017 C 
ATOM      8  C   UNL     1      -9.247  -6.046  22.631  0.00  0.00    -0.011 C 
ATOM      9  C   UNL     1      -9.370  -5.218  23.698  0.00  0.00    +0.036 C 
ATOM     10  C   UNL     1     -10.624  -4.906  24.187  0.00  0.00    +0.176 C 
ATOM     11  C   UNL     1     -11.763  -5.444  23.583  0.00  0.00    +0.176 C 
ATOM     12  O   UNL     1     -12.876  -4.982  24.255  0.00  0.00    -0.435 OA
ATOM     13  C   UNL     1     -12.427  -4.371  25.457  0.00  0.00    +0.429 C 
ATOM     14  O   UNL     1     -11.052  -4.111  25.235  0.00  0.00    -0.435 OA
ATOM     15  C   UNL     1      -7.940  -6.427  22.049  0.00  0.00    +0.073 C 
ATOM     16  C   UNL     1      -7.886  -7.862  21.649  0.00  0.00    +0.077 C 
ATOM     17  C   UNL     1     -14.062  -6.547  22.338  0.00  0.00    +0.000 C 
ATOM     18  C   UNL     1     -15.150  -7.113  21.692  0.00  0.00    +0.000 C 
ATOM     19  C   UNL     1     -15.006  -7.939  20.604  0.00  0.00    +0.000 C 
ATOM     20  C   UNL     1     -13.756  -8.222  20.131  0.00  0.00    +0.000 C 
ENDROOT
TORSDOF 0
