REMARK  Name = =
REMARK  0 active torsions:
REMARK  status: ('A' for Active; 'I' for Inactive)
REMARK                            x       y       z     vdW  Elec       q    Type
REMARK                         _______ _______ _______ _____ _____    ______ ____
ROOT
ATOM      1  C   UNL     1      -4.326  -3.811  31.542  0.00  0.00    +0.008 C 
ATOM      2  C   UNL     1      -4.326  -5.290  31.873  0.00  0.00    +0.008 C 
ATOM      3  C   UNL     1      -2.902  -5.660  31.470  0.00  0.00    +0.065 C 
ATOM      4  C   UNL     1      -2.777  -4.999  30.152  0.00  0.00    +0.151 C 
ATOM      5  O   UNL     1      -2.127  -5.397  29.219  0.00  0.00    -0.296 OA
ATOM      6  C   UNL     1      -3.591  -3.770  30.196  0.00  0.00    +0.065 C 
ENDROOT
TORSDOF 0
