REMARK  Name = =
REMARK  1 active torsions:
REMARK  status: ('A' for Active; 'I' for Inactive)
REMARK    1  A    between atoms: N_1  and  N_21
REMARK                            x       y       z     vdW  Elec       q    Type
REMARK                         _______ _______ _______ _____ _____    ______ ____
ROOT
ATOM      1  N   UNL     1      -9.827  -7.221  21.506  0.00  0.00    -0.229 N 
ATOM      2  C   UNL     1     -10.862  -7.344  22.451  0.00  0.00    +0.066 C 
ATOM      3  C   UNL     1     -12.090  -8.010  22.059  0.00  0.00    +0.016 C 
ATOM      4  C   UNL     1     -13.294  -7.611  22.835  0.00  0.00    +0.001 C 
ATOM      5  C   UNL     1     -13.328  -6.544  23.712  0.00  0.00    +0.003 C 
ATOM      6  C   UNL     1     -12.102  -5.764  23.963  0.00  0.00    +0.038 C 
ATOM      7  C   UNL     1     -10.964  -6.147  23.302  0.00  0.00    +0.014 C 
ATOM      8  C   UNL     1      -9.802  -5.374  23.484  0.00  0.00    -0.016 C 
ATOM      9  C   UNL     1      -9.810  -4.266  24.305  0.00  0.00    +0.036 C 
ATOM     10  C   UNL     1     -10.981  -3.933  24.944  0.00  0.00    +0.176 C 
ATOM     11  C   UNL     1     -12.155  -4.665  24.793  0.00  0.00    +0.176 C 
ATOM     12  O   UNL     1     -13.093  -4.030  25.576  0.00  0.00    -0.435 OA
ATOM     13  C   UNL     1     -12.416  -3.309  26.581  0.00  0.00    +0.429 C 
ATOM     14  O   UNL     1     -11.272  -2.872  25.828  0.00  0.00    -0.435 OA
ATOM     15  C   UNL     1      -8.523  -5.694  22.800  0.00  0.00    +0.050 C 
ATOM     16  C   UNL     1      -8.571  -7.092  22.260  0.00  0.00    +0.117 C 
ATOM     17  C   UNL     1     -14.519  -6.260  24.352  0.00  0.00    +0.000 C 
ATOM     18  C   UNL     1     -15.679  -7.016  24.135  0.00  0.00    +0.000 C 
ATOM     19  C   UNL     1     -15.589  -8.065  23.254  0.00  0.00    +0.000 C 
ATOM     20  C   UNL     1     -14.421  -8.377  22.600  0.00  0.00    +0.000 C 
ENDROOT
BRANCH   1  21
ATOM     21  N   UNL     1      -9.748  -8.242  20.579  0.00  0.00    -0.153 N 
ATOM     22  C   UNL     1     -10.079  -7.967  19.224  0.00  0.00    +0.247 C 
ATOM     23  O   UNL     1     -10.652  -6.904  18.923  0.00  0.00    -0.273 OA
ATOM     24  C   UNL     1      -9.722  -8.985  18.167  0.00  0.00    +0.088 C 
ATOM     25  C   UNL     1     -10.153 -10.329  18.747  0.00  0.00    +0.019 C 
ATOM     26  C   UNL     1      -9.203 -10.628  19.889  0.00  0.00    +0.088 C 
ATOM     27  C   UNL     1      -9.348  -9.559  20.931  0.00  0.00    +0.247 C 
ATOM     28  O   UNL     1      -9.101  -9.872  22.123  0.00  0.00    -0.273 OA
ENDBRANCH   1  21
TORSDOF 1
