REMARK  Name = =
REMARK  2 active torsions:
REMARK  status: ('A' for Active; 'I' for Inactive)
REMARK    1  A    between atoms: N_1  and  N_21
REMARK    2  A    between atoms: C_19  and  C_29
REMARK                            x       y       z     vdW  Elec       q    Type
REMARK                         _______ _______ _______ _____ _____    ______ ____
ROOT
ATOM      1  N   UNL     1     -10.767  -4.988  23.241  0.00  0.00    -0.229 N 
ATOM      2  C   UNL     1     -10.468  -3.756  23.813  0.00  0.00    +0.066 C 
ATOM      3  C   UNL     1     -10.749  -3.696  25.256  0.00  0.00    +0.016 C 
ATOM      4  C   UNL     1     -10.760  -2.376  25.885  0.00  0.00    +0.001 C 
ATOM      5  C   UNL     1     -10.898  -1.189  25.176  0.00  0.00    +0.003 C 
ATOM      6  C   UNL     1     -10.925  -1.298  23.707  0.00  0.00    +0.038 C 
ATOM      7  C   UNL     1     -10.805  -2.530  23.071  0.00  0.00    +0.014 C 
ATOM      8  C   UNL     1     -10.924  -2.625  21.680  0.00  0.00    -0.016 C 
ATOM      9  C   UNL     1     -11.156  -1.486  20.969  0.00  0.00    +0.036 C 
ATOM     10  C   UNL     1     -11.269  -0.272  21.607  0.00  0.00    +0.176 C 
ATOM     11  C   UNL     1     -11.161  -0.124  22.977  0.00  0.00    +0.176 C 
ATOM     12  O   UNL     1     -11.324   1.218  23.288  0.00  0.00    -0.435 OA
ATOM     13  C   UNL     1     -11.845   1.850  22.143  0.00  0.00    +0.429 C 
ATOM     14  O   UNL     1     -11.500   1.002  21.074  0.00  0.00    -0.435 OA
ATOM     15  C   UNL     1     -10.818  -3.957  21.017  0.00  0.00    +0.050 C 
ATOM     16  C   UNL     1     -11.442  -4.950  21.968  0.00  0.00    +0.117 C 
ATOM     17  C   UNL     1     -10.953   0.020  25.831  0.00  0.00    +0.000 C 
ATOM     18  C   UNL     1     -10.867   0.020  27.208  0.00  0.00    +0.000 C 
ATOM     19  C   UNL     1     -10.727  -1.133  27.961  0.00  0.00    +0.000 C 
ATOM     20  C   UNL     1     -10.674  -2.326  27.288  0.00  0.00    +0.000 C 
ENDROOT
BRANCH   1  21
ATOM     21  N   UNL     1      -9.753  -5.937  23.283  0.00  0.00    -0.153 N 
ATOM     22  C   UNL     1      -9.902  -7.175  23.957  0.00  0.00    +0.247 C 
ATOM     23  O   UNL     1     -11.016  -7.588  24.321  0.00  0.00    -0.273 OA
ATOM     24  C   UNL     1      -8.696  -7.965  24.213  0.00  0.00    +0.088 C 
ATOM     25  C   UNL     1      -7.731  -8.036  23.056  0.00  0.00    +0.019 C 
ATOM     26  C   UNL     1      -7.764  -6.880  22.122  0.00  0.00    +0.088 C 
ATOM     27  C   UNL     1      -8.510  -5.700  22.642  0.00  0.00    +0.247 C 
ATOM     28  O   UNL     1      -8.107  -4.515  22.549  0.00  0.00    -0.273 OA
ENDBRANCH   1  21
BRANCH  19  29
ATOM     29  C   UNL     1     -10.637  -1.054  29.423  0.00  0.00    +0.000 C 
ATOM     30  C   UNL     1     -10.588  -2.113  30.202  0.00  0.00    +0.000 C 
ENDBRANCH  19  29
TORSDOF 2
