REMARK  Name = =
REMARK  3 active torsions:
REMARK  status: ('A' for Active; 'I' for Inactive)
REMARK    1  A    between atoms: N_1  and  N_21
REMARK    2  A    between atoms: C_9  and  C_29
REMARK    3  A    between atoms: C_19  and  C_36
REMARK                            x       y       z     vdW  Elec       q    Type
REMARK                         _______ _______ _______ _____ _____    ______ ____
ROOT
ATOM      1  N   UNL     1     -14.389  -0.488  21.321  0.00  0.00    -0.229 N 
ATOM      2  C   UNL     1     -13.553   0.175  20.401  0.00  0.00    +0.066 C 
ATOM      3  C   UNL     1     -14.047   1.555  20.187  0.00  0.00    +0.016 C 
ATOM      4  C   UNL     1     -13.030   2.599  20.245  0.00  0.00    +0.001 C 
ATOM      5  C   UNL     1     -11.673   2.385  20.499  0.00  0.00    +0.003 C 
ATOM      6  C   UNL     1     -11.228   1.036  20.732  0.00  0.00    +0.038 A 
ATOM      7  C   UNL     1     -12.144   0.010  20.701  0.00  0.00    +0.014 A 
ATOM      8  C   UNL     1     -11.676  -1.290  20.931  0.00  0.00    -0.016 A 
ATOM      9  C   UNL     1     -10.395  -1.596  21.172  0.00  0.00    +0.030 A 
ATOM     10  C   UNL     1      -9.495  -0.508  21.194  0.00  0.00    +0.176 A 
ATOM     11  C   UNL     1      -9.889   0.794  20.982  0.00  0.00    +0.176 A 
ATOM     12  O   UNL     1      -8.753   1.583  21.079  0.00  0.00    -0.435 OA
ATOM     13  C   UNL     1      -7.649   0.723  20.945  0.00  0.00    +0.429 C 
ATOM     14  O   UNL     1      -8.125  -0.535  21.419  0.00  0.00    -0.435 OA
ATOM     15  C   UNL     1     -12.751  -2.308  21.018  0.00  0.00    +0.050 C 
ATOM     16  C   UNL     1     -14.017  -1.812  21.668  0.00  0.00    +0.117 C 
ATOM     17  C   UNL     1     -10.795   3.443  20.526  0.00  0.00    +0.000 C 
ATOM     18  C   UNL     1     -11.282   4.719  20.297  0.00  0.00    +0.000 C 
ATOM     19  C   UNL     1     -12.613   4.988  20.042  0.00  0.00    +0.000 C 
ATOM     20  C   UNL     1     -13.478   3.889  20.022  0.00  0.00    +0.000 C 
ENDROOT
BRANCH   1  21
ATOM     21  N   UNL     1     -15.748  -0.415  21.011  0.00  0.00    -0.153 N 
ATOM     22  C   UNL     1     -16.626   0.242  21.912  0.00  0.00    +0.247 C 
ATOM     23  O   UNL     1     -16.122   0.990  22.803  0.00  0.00    -0.273 OA
ATOM     24  C   UNL     1     -18.118   0.063  21.822  0.00  0.00    +0.088 C 
ATOM     25  C   UNL     1     -18.563  -0.061  20.403  0.00  0.00    +0.019 C 
ATOM     26  C   UNL     1     -17.798  -1.145  19.707  0.00  0.00    +0.088 C 
ATOM     27  C   UNL     1     -16.325  -0.965  19.834  0.00  0.00    +0.247 C 
ATOM     28  O   UNL     1     -15.558  -1.295  18.900  0.00  0.00    -0.273 OA
ENDBRANCH   1  21
BRANCH   9  29
ATOM     29  C   UNL     1      -9.843  -2.955  21.213  0.00  0.00    -0.012 C 
ATOM     30  C   UNL     1      -9.809  -3.479  22.454  0.00  0.00    +0.038 C 
ATOM     31  C   UNL     1      -9.290  -4.802  22.720  0.00  0.00    +0.195 C 
ATOM     32  O   UNL     1      -9.273  -5.292  23.901  0.00  0.00    -0.287 OA
ATOM     33  C   UNL     1      -8.785  -5.573  21.626  0.00  0.00    +0.038 C 
ATOM     34  C   UNL     1      -8.800  -5.055  20.432  0.00  0.00    -0.018 C 
ATOM     35  C   UNL     1      -9.299  -3.705  20.089  0.00  0.00    +0.053 C 
ENDBRANCH   9  29
BRANCH  19  36
ATOM     36  C   UNL     1     -13.151   6.311  19.801  0.00  0.00    +0.000 C 
ATOM     37  C   UNL     1     -12.390   7.359  19.657  0.00  0.00    +0.000 C 
ENDBRANCH  19  36
TORSDOF 3
