REMARK  Name = =
REMARK  16 active torsions:
REMARK  status: ('A' for Active; 'I' for Inactive)
REMARK    1  A    between atoms: N_1  and  N_21
REMARK    2  A    between atoms: C_9  and  C_29
REMARK    3  A    between atoms: C_19  and  C_36
REMARK    4  A    between atoms: C_20  and  O_38
REMARK    5  A    between atoms: O_38  and  P_39
REMARK    6  A    between atoms: P_39  and  O_41
REMARK    7  A    between atoms: P_39  and  O_42
REMARK    8  A    between atoms: O_42  and  P_43
REMARK    9  A    between atoms: P_43  and  O_45
REMARK   10  A    between atoms: P_43  and  O_46
REMARK   11  A    between atoms: O_46  and  P_47
REMARK   12  A    between atoms: P_47  and  O_49
REMARK   13  A    between atoms: P_47  and  O_50
REMARK   14  A    between atoms: O_50  and  P_51
REMARK   15  A    between atoms: P_51  and  O_53
REMARK   16  A    between atoms: P_51  and  O_54
REMARK                            x       y       z     vdW  Elec       q    Type
REMARK                         _______ _______ _______ _____ _____    ______ ____
ROOT
ATOM      1  N   UNL     1     -10.479  -0.390  22.093  0.00  0.00    -0.193 NA
ATOM      2  C   UNL     1     -10.091  -1.606  21.464  0.00  0.00    +0.103 C 
ATOM      3  C   UNL     1     -10.813  -2.828  21.540  0.00  0.00    +0.052 C 
ATOM      4  C   UNL     1      -9.896  -3.920  22.044  0.00  0.00    +0.014 C 
ATOM      5  C   UNL     1      -8.528  -3.844  22.042  0.00  0.00    +0.002 C 
ATOM      6  C   UNL     1      -7.862  -2.597  21.594  0.00  0.00    +0.034 A 
ATOM      7  C   UNL     1      -8.659  -1.568  21.210  0.00  0.00    -0.007 A 
ATOM      8  C   UNL     1      -8.170  -0.350  20.666  0.00  0.00    -0.021 A 
ATOM      9  C   UNL     1      -6.838  -0.223  20.543  0.00  0.00    +0.029 A 
ATOM     10  C   UNL     1      -6.000  -1.292  20.943  0.00  0.00    +0.176 A 
ATOM     11  C   UNL     1      -6.497  -2.473  21.464  0.00  0.00    +0.176 A 
ATOM     12  O   UNL     1      -5.435  -3.293  21.746  0.00  0.00    -0.435 OA
ATOM     13  C   UNL     1      -4.292  -2.477  21.862  0.00  0.00    +0.429 C 
ATOM     14  O   UNL     1      -4.618  -1.456  20.932  0.00  0.00    -0.435 OA
ATOM     15  C   UNL     1      -9.239   0.522  20.178  0.00  0.00    +0.045 C 
ATOM     16  C   UNL     1     -10.303   0.738  21.235  0.00  0.00    +0.098 C 
ATOM     17  C   UNL     1      -7.736  -4.878  22.463  0.00  0.00    -0.000 C 
ATOM     18  C   UNL     1      -8.347  -6.062  22.914  0.00  0.00    +0.003 C 
ATOM     19  C   UNL     1      -9.720  -6.162  22.925  0.00  0.00    +0.034 C 
ATOM     20  C   UNL     1     -10.503  -5.122  22.504  0.00  0.00    +0.145 C 
ENDROOT
BRANCH   1  21
ATOM     21  N   UNL     1     -10.075  -0.321  23.363  0.00  0.00    -0.168 N 
ATOM     22  C   UNL     1      -9.017   0.474  23.846  0.00  0.00    +0.245 C 
ATOM     23  O   UNL     1      -8.774   1.552  23.288  0.00  0.00    -0.273 OA
ATOM     24  C   UNL     1      -8.177   0.052  25.020  0.00  0.00    +0.088 C 
ATOM     25  C   UNL     1      -9.103  -0.426  26.090  0.00  0.00    +0.019 C 
ATOM     26  C   UNL     1      -9.958  -1.565  25.576  0.00  0.00    +0.088 C 
ATOM     27  C   UNL     1     -10.751  -1.109  24.371  0.00  0.00    +0.245 C 
ATOM     28  O   UNL     1     -11.950  -1.432  24.302  0.00  0.00    -0.273 OA
ENDBRANCH   1  21
BRANCH   9  29
ATOM     29  C   UNL     1      -6.211   1.070  20.169  0.00  0.00    -0.012 C 
ATOM     30  C   UNL     1      -5.724   1.925  21.016  0.00  0.00    +0.038 C 
ATOM     31  C   UNL     1      -5.142   3.174  20.575  0.00  0.00    +0.195 C 
ATOM     32  O   UNL     1      -4.668   4.016  21.386  0.00  0.00    -0.287 OA
ATOM     33  C   UNL     1      -5.092   3.489  19.170  0.00  0.00    +0.038 C 
ATOM     34  C   UNL     1      -5.575   2.617  18.324  0.00  0.00    -0.018 C 
ATOM     35  C   UNL     1      -6.164   1.330  18.689  0.00  0.00    +0.053 C 
ENDBRANCH   9  29
BRANCH  19  36
ATOM     36  C   UNL     1     -10.249  -7.458  23.404  0.00  0.00    +0.003 C 
ATOM     37  C   UNL     1     -10.147  -8.494  22.608  0.00  0.00    +0.000 C 
ENDBRANCH  19  36
BRANCH  20  38
ATOM     38  O   UNL     1     -11.843  -5.159  22.496  0.00  0.00    -0.403 OA
BRANCH  38  39
ATOM     39  P   UNL     1     -13.088  -5.685  21.572  0.00  0.00    +0.539 P 
ATOM     40  O   UNL     1     -12.492  -6.476  20.368  0.00  0.00    -0.215 OA
BRANCH  39  41
ATOM     41  O   UNL     1     -14.048  -6.813  22.404  0.00  0.00    -0.293 OA
ATOM     42  H   UNL     1     -13.479  -7.487  22.807  0.00  0.00    +0.223 HD
ENDBRANCH  39  41
BRANCH  39  43
ATOM     43  O   UNL     1     -14.016  -4.476  20.842  0.00  0.00    -0.176 OA
BRANCH  43  44
ATOM     44  P   UNL     1     -14.584  -3.367  21.988  0.00  0.00    +0.493 P 
ATOM     45  O   UNL     1     -14.123  -1.978  21.615  0.00  0.00    -0.226 OA
BRANCH  44  46
ATOM     46  O   UNL     1     -13.967  -3.829  23.493  0.00  0.00    -0.302 OA
ATOM     47  H   UNL     1     -12.998  -3.818  23.462  0.00  0.00    +0.222 HD
ENDBRANCH  44  46
BRANCH  44  48
ATOM     48  O   UNL     1     -16.275  -3.376  22.011  0.00  0.00    -0.185 OA
BRANCH  48  49
ATOM     49  P   UNL     1     -16.912  -4.105  23.372  0.00  0.00    +0.492 P 
ATOM     50  O   UNL     1     -18.418  -4.172  23.252  0.00  0.00    -0.226 OA
BRANCH  49  51
ATOM     51  O   UNL     1     -16.229  -5.642  23.554  0.00  0.00    -0.302 OA
ATOM     52  H   UNL     1     -16.409  -6.172  22.761  0.00  0.00    +0.222 HD
ENDBRANCH  49  51
BRANCH  49  53
ATOM     53  O   UNL     1     -16.582  -3.203  24.772  0.00  0.00    -0.186 OA
BRANCH  53  54
ATOM     54  P   UNL     1     -16.321  -4.253  26.072  0.00  0.00    +0.481 P 
ATOM     55  O   UNL     1     -17.424  -5.271  26.144  0.00  0.00    -0.227 OA
BRANCH  54  56
ATOM     56  O   UNL     1     -16.339  -3.341  27.496  0.00  0.00    -0.302 OA
ATOM     57  H   UNL     1     -17.208  -2.922  27.601  0.00  0.00    +0.222 HD
ENDBRANCH  54  56
BRANCH  54  58
ATOM     58  O   UNL     1     -14.803  -4.969  25.913  0.00  0.00    -0.302 OA
ATOM     59  H   UNL     1     -14.778  -5.496  25.099  0.00  0.00    +0.222 HD
ENDBRANCH  54  58
ENDBRANCH  53  54
ENDBRANCH  49  53
ENDBRANCH  48  49
ENDBRANCH  44  48
ENDBRANCH  43  44
ENDBRANCH  39  43
ENDBRANCH  38  39
ENDBRANCH  20  38
TORSDOF 16
