REMARK  Name = =
REMARK  5 active torsions:
REMARK  status: ('A' for Active; 'I' for Inactive)
REMARK    1  A    between atoms: C_1  and  N_7
REMARK    2  A    between atoms: C_2  and  O_25
REMARK    3  A    between atoms: C_4  and  C_13
REMARK    4  A    between atoms: N_15  and  S_16
REMARK    5  A    between atoms: S_16  and  C_19
REMARK                            x       y       z     vdW  Elec       q    Type
REMARK                         _______ _______ _______ _____ _____    ______ ____
ROOT
ATOM      1  C   UNL     1     -12.789 -42.730  27.941  0.00  0.00    +0.082 C 
ATOM      2  C   UNL     1     -11.509 -43.262  28.010  0.00  0.00    +0.147 C 
ATOM      3  C   UNL     1     -10.769 -43.241  29.201  0.00  0.00    +0.042 C 
ATOM      4  C   UNL     1     -11.281 -42.688  30.352  0.00  0.00    +0.058 C 
ATOM      5  C   UNL     1     -12.550 -42.158  30.274  0.00  0.00    +0.006 C 
ATOM      6  C   UNL     1     -13.285 -42.184  29.082  0.00  0.00    +0.018 C 
ENDROOT
BRANCH   1   7
ATOM      7  N   UNL     1     -13.474 -42.867  26.716  0.00  0.00    -0.302 N 
ATOM      8  C   UNL     1     -13.960 -44.239  26.541  0.00  0.00    +0.110 C 
ATOM      9  C   UNL     1     -14.124 -44.463  25.062  0.00  0.00    +0.110 C 
ATOM     10  N   UNL     1     -15.096 -43.496  24.583  0.00  0.00    -0.214 NA
ATOM     11  C   UNL     1     -15.598 -42.650  25.614  0.00  0.00    +0.110 C 
ATOM     12  C   UNL     1     -14.485 -41.944  26.408  0.00  0.00    +0.110 C 
ENDBRANCH   1   7
BRANCH   4  13
ATOM     13  C   UNL     1     -10.529 -42.760  31.589  0.00  0.00    +0.264 C 
ATOM     14  O   UNL     1     -10.308 -43.940  32.069  0.00  0.00    -0.269 OA
ATOM     15  N   UNL     1     -10.007 -41.707  32.351  0.00  0.00    -0.181 N 
ATOM     16  H   UNL     1     -10.112 -40.781  32.033  0.00  0.00    +0.177 HD
BRANCH  15  17
ATOM     17  S   UNL     1      -9.183 -42.005  33.839  0.00  0.00    +0.076 S 
ATOM     18  O   UNL     1     -10.038 -42.890  34.729  0.00  0.00    -0.150 OA
ATOM     19  O   UNL     1      -8.978 -40.689  34.570  0.00  0.00    -0.150 OA
BRANCH  17  20
ATOM     20  C   UNL     1      -7.669 -42.787  33.591  0.00  0.00    +0.125 C 
ATOM     21  C   UNL     1      -6.523 -42.260  34.143  0.00  0.00    +0.020 C 
ATOM     22  C   UNL     1      -5.303 -42.890  33.997  0.00  0.00    +0.001 C 
ATOM     23  C   UNL     1      -5.211 -44.068  33.289  0.00  0.00    +0.000 C 
ATOM     24  C   UNL     1      -6.352 -44.633  32.712  0.00  0.00    +0.001 C 
ATOM     25  C   UNL     1      -7.538 -43.964  32.890  0.00  0.00    +0.020 C 
ENDBRANCH  17  20
ENDBRANCH  15  17
ENDBRANCH   4  13
BRANCH   2  26
ATOM     26  O   UNL     1     -10.870 -43.840  26.927  0.00  0.00    -0.504 OA
ATOM     27  H   UNL     1     -11.304 -43.889  26.098  0.00  0.00    +0.292 HD
ENDBRANCH   2  26
TORSDOF 5
