REMARK  Name = =
REMARK  9 active torsions:
REMARK  status: ('A' for Active; 'I' for Inactive)
REMARK    1  A    between atoms: N_1  and  C_7
REMARK    2  A    between atoms: C_6  and  N_26
REMARK    3  A    between atoms: C_8  and  O_25
REMARK    4  A    between atoms: C_10  and  C_13
REMARK    5  A    between atoms: N_15  and  S_16
REMARK    6  A    between atoms: S_16  and  C_19
REMARK    7  A    between atoms: C_27  and  O_29
REMARK    8  A    between atoms: O_29  and  C_30
REMARK    9  A    between atoms: C_34  and  C_36
REMARK                            x       y       z     vdW  Elec       q    Type
REMARK                         _______ _______ _______ _____ _____    ______ ____
ROOT
ATOM      1  N   UNL     1     -14.286 -42.272  29.540  0.00  0.00    -0.288 N 
ATOM      2  C   UNL     1     -14.711 -42.925  30.745  0.00  0.00    +0.111 C 
ATOM      3  C   UNL     1     -15.553 -44.128  30.628  0.00  0.00    +0.110 C 
ATOM      4  N   UNL     1     -16.321 -44.257  29.412  0.00  0.00    -0.213 NA
ATOM      5  C   UNL     1     -15.360 -44.051  28.345  0.00  0.00    +0.129 C 
ATOM      6  C   UNL     1     -15.075 -42.525  28.407  0.00  0.00    +0.169 C 
ENDROOT
BRANCH   1   7
ATOM      7  C   UNL     1     -12.888 -42.275  29.381  0.00  0.00    +0.083 C 
ATOM      8  C   UNL     1     -12.137 -42.006  30.508  0.00  0.00    +0.147 C 
ATOM      9  C   UNL     1     -10.756 -42.024  30.371  0.00  0.00    +0.042 C 
ATOM     10  C   UNL     1     -10.136 -42.297  29.155  0.00  0.00    +0.058 C 
ATOM     11  C   UNL     1     -10.917 -42.551  28.081  0.00  0.00    +0.006 C 
ATOM     12  C   UNL     1     -12.314 -42.545  28.180  0.00  0.00    +0.018 C 
BRANCH  10  13
ATOM     13  C   UNL     1      -8.666 -42.316  29.176  0.00  0.00    +0.264 C 
ATOM     14  O   UNL     1      -7.976 -41.988  28.206  0.00  0.00    -0.269 OA
ATOM     15  N   UNL     1      -8.086 -42.745  30.414  0.00  0.00    -0.181 N 
ATOM     16  H   UNL     1      -8.661 -43.004  31.170  0.00  0.00    +0.177 HD
BRANCH  15  17
ATOM     17  S   UNL     1      -6.376 -42.802  30.563  0.00  0.00    +0.076 S 
ATOM     18  O   UNL     1      -5.842 -43.716  29.505  0.00  0.00    -0.150 OA
ATOM     19  O   UNL     1      -5.774 -41.435  30.360  0.00  0.00    -0.150 OA
BRANCH  17  20
ATOM     20  C   UNL     1      -5.979 -43.442  32.135  0.00  0.00    +0.125 C 
ATOM     21  C   UNL     1      -6.049 -44.760  32.455  0.00  0.00    +0.020 C 
ATOM     22  C   UNL     1      -5.717 -45.163  33.743  0.00  0.00    +0.001 C 
ATOM     23  C   UNL     1      -5.311 -44.253  34.721  0.00  0.00    +0.000 C 
ATOM     24  C   UNL     1      -5.240 -42.918  34.398  0.00  0.00    +0.001 C 
ATOM     25  C   UNL     1      -5.577 -42.539  33.105  0.00  0.00    +0.020 C 
ENDBRANCH  17  20
ENDBRANCH  15  17
ENDBRANCH  10  13
BRANCH   8  26
ATOM     26  O   UNL     1     -12.674 -41.720  31.759  0.00  0.00    -0.504 OA
ATOM     27  H   UNL     1     -13.603 -41.702  31.877  0.00  0.00    +0.292 HD
ENDBRANCH   8  26
ENDBRANCH   1   7
BRANCH   6  28
ATOM     28  N   UNL     1     -16.340 -41.828  28.541  0.00  0.00    -0.254 N 
ATOM     29  C   UNL     1     -17.338 -41.787  27.536  0.00  0.00    +0.407 C 
ATOM     30  O   UNL     1     -17.144 -42.394  26.458  0.00  0.00    -0.226 OA
ATOM     31  H   UNL     1     -16.517 -41.353  29.385  0.00  0.00    +0.154 HD
BRANCH  29  32
ATOM     32  O   UNL     1     -18.532 -41.106  27.691  0.00  0.00    -0.410 OA
BRANCH  32  33
ATOM     33  C   UNL     1     -19.637 -41.528  26.972  0.00  0.00    +0.150 C 
ATOM     34  C   UNL     1     -20.230 -42.699  27.485  0.00  0.00    +0.038 C 
ATOM     35  C   UNL     1     -21.339 -43.225  26.867  0.00  0.00    +0.003 C 
ATOM     36  C   UNL     1     -21.851 -42.597  25.753  0.00  0.00    -0.003 C 
ATOM     37  C   UNL     1     -21.284 -41.446  25.231  0.00  0.00    -0.000 C 
ATOM     38  C   UNL     1     -20.175 -40.940  25.869  0.00  0.00    +0.035 C 
BRANCH  37  39
ATOM     39  C   UNL     1     -21.898 -40.860  24.061  0.00  0.00    +0.155 C 
ATOM     40  S   UNL     1     -20.651 -40.431  22.758  0.00  0.00    -0.044 S 
ATOM     41  C   UNL     1     -21.521 -39.015  22.116  0.00  0.00    +0.279 C 
ATOM     42  O   UNL     1     -21.254 -38.268  21.116  0.00  0.00    -0.263 OA
ATOM     43  N   UNL     1     -22.654 -38.860  22.992  0.00  0.00    -0.246 N 
ATOM     44  C   UNL     1     -22.505 -39.529  24.218  0.00  0.00    +0.243 C 
ATOM     45  O   UNL     1     -22.852 -39.053  25.354  0.00  0.00    -0.273 OA
ATOM     46  H   UNL     1     -23.454 -38.337  22.755  0.00  0.00    +0.158 HD
ENDBRANCH  37  39
ENDBRANCH  32  33
ENDBRANCH  29  32
ENDBRANCH   6  28
TORSDOF 9
