MODEL 1
REMARK VINA RESULT:    -5.405      0.000      0.000
REMARK INTER + INTRA:         -10.131
REMARK INTER:                  -7.774
REMARK INTRA:                  -2.356
REMARK UNBOUND:                -2.356
REMARK  Name = =
REMARK  8 active torsions:
REMARK  status: ('A' for Active; 'I' for Inactive)
REMARK    1  A    between atoms: C_1  and  C_7
REMARK    2  A    between atoms: C_1  and  C_23
REMARK    3  A    between atoms: C_7  and  O_13
REMARK    4  A    between atoms: O_13  and  C_14
REMARK    5  A    between atoms: C_14  and  C_16
REMARK    6  A    between atoms: C_17  and  O_22
REMARK    7  A    between atoms: C_23  and  C_26
REMARK    8  A    between atoms: C_30  and  C_31
REMARK                            x       y       z     vdW  Elec       q    Type
REMARK                         _______ _______ _______ _____ _____    ______ ____
ROOT
ATOM      1  C   UNL     1      59.775 162.679  39.803  0.00  0.00    +0.107 C 
ATOM      2  C   UNL     1      58.802 163.778  39.795  0.00  0.00    -0.000 C 
ATOM      3  C   UNL     1      58.818 164.868  40.499  0.00  0.00    +0.058 C 
ATOM      4  N   UNL     1      59.856 165.162  41.443  0.00  0.00    -0.311 N 
ATOM      5  C   UNL     1      60.859 164.170  41.542  0.00  0.00    +0.058 C 
ATOM      6  C   UNL     1      60.827 163.093  40.833  0.00  0.00    -0.000 C 
ATOM      7  H   UNL     1      59.869 165.988  41.978  0.00  0.00    +0.152 HD
ENDROOT
BRANCH   1   8
ATOM      8  C   UNL     1      59.289 161.392  40.436  0.00  0.00    +0.259 C 
ATOM      9  O   UNL     1      58.208 160.959  39.680  0.00  0.00    -0.321 OA
ATOM     10  C   UNL     1      58.424 160.080  38.684  0.00  0.00    +0.151 C 
ATOM     11  C   UNL     1      59.001 158.792  39.212  0.00  0.00    +0.058 C 
ATOM     12  C   UNL     1      60.108 159.126  40.135  0.00  0.00    -0.022 C 
ATOM     13  C   UNL     1      60.222 160.335  40.691  0.00  0.00    +0.039 C 
BRANCH   8  14
ATOM     14  O   UNL     1      58.669 161.726  41.704  0.00  0.00    -0.423 OA
BRANCH  14  15
ATOM     15  C   UNL     1      57.682 160.960  42.289  0.00  0.00    +0.346 C 
ATOM     16  O   UNL     1      58.089 160.046  43.035  0.00  0.00    -0.245 OA
BRANCH  15  17
ATOM     17  C   UNL     1      56.263 161.202  42.048  0.00  0.00    +0.109 C 
ATOM     18  C   UNL     1      55.341 160.215  42.077  0.00  0.00    +0.140 C 
ATOM     19  C   UNL     1      53.983 160.514  41.840  0.00  0.00    +0.037 C 
ATOM     20  C   UNL     1      53.607 161.800  41.581  0.00  0.00    +0.003 C 
ATOM     21  C   UNL     1      54.542 162.792  41.553  0.00  0.00    +0.000 C 
ATOM     22  C   UNL     1      55.881 162.521  41.783  0.00  0.00    +0.009 C 
BRANCH  18  23
ATOM     23  O   UNL     1      55.609 158.914  42.322  0.00  0.00    -0.505 OA
ATOM     24  H   UNL     1      55.482 158.275  41.650  0.00  0.00    +0.292 HD
ENDBRANCH  18  23
ENDBRANCH  15  17
ENDBRANCH  14  15
ENDBRANCH   8  14
ENDBRANCH   1   8
BRANCH   1  25
ATOM     25  C   UNL     1      60.539 162.623  38.564  0.00  0.00    +0.054 C 
ATOM     26  C   UNL     1      59.685 163.136  37.381  0.00  0.00    +0.007 C 
BRANCH  25  28
ATOM     27  N   UNL     1      61.802 164.501  37.945  0.00  0.00    -0.248 NA
ATOM     28  C   UNL     1      61.852 163.203  38.384  0.00  0.00    +0.059 C 
ATOM     29  C   UNL     1      63.094 162.707  38.548  0.00  0.00    +0.015 C 
ATOM     30  C   UNL     1      64.238 163.479  38.285  0.00  0.00    +0.003 C 
ATOM     31  C   UNL     1      64.129 164.768  37.850  0.00  0.00    +0.021 C 
ATOM     32  C   UNL     1      62.836 165.280  37.680  0.00  0.00    +0.098 C 
BRANCH  32  33
ATOM     33  C   UNL     1      62.759 166.672  37.194  0.00  0.00    +0.095 C 
ATOM     34  N   UNL     1      63.505 167.543  37.777  0.00  0.00    -0.259 NA
ATOM     35  C   UNL     1      63.667 168.964  37.554  0.00  0.00    +0.210 C 
ATOM     36  C   UNL     1      62.355 169.676  37.412  0.00  0.00    +0.251 C 
ATOM     37  O   UNL     1      62.225 170.717  38.079  0.00  0.00    -0.273 OA
ATOM     38  N   UNL     1      61.222 169.325  36.611  0.00  0.00    -0.282 N 
ATOM     39  C   UNL     1      61.147 168.129  35.834  0.00  0.00    +0.052 C 
ATOM     40  C   UNL     1      61.867 166.956  36.080  0.00  0.00    +0.032 C 
ATOM     41  C   UNL     1      61.741 165.907  35.225  0.00  0.00    +0.003 C 
ATOM     42  C   UNL     1      60.907 166.006  34.137  0.00  0.00    +0.000 C 
ATOM     43  C   UNL     1      60.174 167.168  33.872  0.00  0.00    +0.001 C 
ATOM     44  C   UNL     1      60.313 168.226  34.745  0.00  0.00    +0.015 C 
ATOM     45  H   UNL     1      60.454 169.940  36.595  0.00  0.00    +0.155 HD
ENDBRANCH  32  33
ENDBRANCH  25  28
ENDBRANCH   1  25
TORSDOF 8
ENDMDL
