MODEL 1
REMARK VINA RESULT:    -8.350      0.000      0.000
REMARK INTER + INTRA:         -10.346
REMARK INTER:                  -9.815
REMARK INTRA:                  -0.531
REMARK UNBOUND:                -0.531
REMARK  Name = =
REMARK  4 active torsions:
REMARK  status: ('A' for Active; 'I' for Inactive)
REMARK    1  A    between atoms: N_1  and  C_2
REMARK    2  A    between atoms: C_10  and  O_12
REMARK    3  A    between atoms: N_13  and  C_18
REMARK    4  A    between atoms: C_23  and  S_27
REMARK                            x       y       z     vdW  Elec       q    Type
REMARK                         _______ _______ _______ _____ _____    ______ ____
ROOT
ATOM      1  N   UNL     1      51.134 163.060  41.866  0.00  0.00    -0.208 N 
ATOM      2  C   UNL     1      51.403 160.631  42.329  0.00  0.00    +0.331 C 
ATOM      3  O   UNL     1      52.635 160.703  42.235  0.00  0.00    -0.443 OA
ATOM      4  N   UNL     1      50.615 161.800  42.147  0.00  0.00    -0.171 NA
ATOM      5  C   UNL     1      52.507 163.210  41.618  0.00  0.00    +0.184 C 
ATOM      6  C   UNL     1      53.351 162.146  41.848  0.00  0.00    +0.180 C 
ATOM      7  C   UNL     1      54.706 162.224  41.637  0.00  0.00    +0.060 C 
ATOM      8  C   UNL     1      55.237 163.411  41.178  0.00  0.00    +0.030 C 
ATOM      9  C   UNL     1      54.362 164.460  40.958  0.00  0.00    +0.101 C 
ATOM     10  N   UNL     1      53.047 164.364  41.169  0.00  0.00    -0.225 NA
ATOM     11  H   UNL     1      49.979 161.587  41.378  0.00  0.00    +0.151 HD
ENDROOT
BRANCH   1  12
ATOM     12  C   UNL     1      50.318 164.222  41.808  0.00  0.00    +0.089 C 
ATOM     13  C   UNL     1      49.128 164.177  41.115  0.00  0.00    +0.096 C 
ATOM     14  N   UNL     1      48.718 163.046  40.488  0.00  0.00    -0.243 NA
ATOM     15  C   UNL     1      47.567 163.024  39.829  0.00  0.00    +0.099 C 
ATOM     16  C   UNL     1      46.782 164.163  39.778  0.00  0.00    +0.021 C 
ATOM     17  C   UNL     1      47.162 165.332  40.400  0.00  0.00    +0.003 C 
ATOM     18  C   UNL     1      48.362 165.314  41.074  0.00  0.00    +0.022 C 
ATOM     19  C   UNL     1      48.728 166.512  41.701  0.00  0.00    +0.038 C 
ATOM     20  C   UNL     1      49.922 166.538  42.389  0.00  0.00    +0.135 C 
ATOM     21  C   UNL     1      50.687 165.392  42.426  0.00  0.00    +0.054 C 
BRANCH  20  22
ATOM     22  O   UNL     1      50.311 167.715  43.020  0.00  0.00    -0.505 OA
ATOM     23  H   UNL     1      50.330 167.761  43.956  0.00  0.00    +0.292 HD
ENDBRANCH  20  22
ENDBRANCH   1  12
BRANCH   2  24
ATOM     24  N   UNL     1      50.820 159.373  42.617  0.00  0.00    -0.232 N 
ATOM     25  C   UNL     1      51.238 158.021  42.919  0.00  0.00    +0.108 C 
ATOM     26  C   UNL     1      49.898 157.581  42.373  0.00  0.00    +0.107 C 
ATOM     27  C   UNL     1      49.471 158.943  42.734  0.00  0.00    +0.231 C 
ATOM     28  O   UNL     1      48.411 159.559  43.033  0.00  0.00    -0.275 OA
ENDBRANCH   2  24
BRANCH   7  29
ATOM     29  S   UNL     1      55.773 160.824  41.944  0.00  0.00    -0.138 S 
ATOM     30  H   UNL     1      55.744 159.988  40.872  0.00  0.00    +0.107 HD
ENDBRANCH   7  29
TORSDOF 4
ENDMDL
