REMARK  Name = =
REMARK  4 active torsions:
REMARK  status: ('A' for Active; 'I' for Inactive)
REMARK    1  A    between atoms: N_1  and  C_2
REMARK    2  A    between atoms: C_10  and  O_12
REMARK    3  A    between atoms: N_13  and  C_18
REMARK    4  A    between atoms: C_23  and  S_27
REMARK                            x       y       z     vdW  Elec       q    Type
REMARK                         _______ _______ _______ _____ _____    ______ ____
ROOT
ATOM      1  N   UNL     1      51.624 155.229  28.146  0.00  0.00    -0.208 N 
ATOM      2  C   UNL     1      51.937 152.786  27.797  0.00  0.00    +0.331 C 
ATOM      3  O   UNL     1      52.758 152.975  26.891  0.00  0.00    -0.443 OA
ATOM      4  N   UNL     1      51.344 153.901  28.451  0.00  0.00    -0.171 NA
ATOM      5  C   UNL     1      52.446 155.536  27.051  0.00  0.00    +0.184 C 
ATOM      6  C   UNL     1      53.121 154.519  26.412  0.00  0.00    +0.180 C 
ATOM      7  C   UNL     1      53.949 154.746  25.340  0.00  0.00    +0.060 C 
ATOM      8  C   UNL     1      54.108 156.039  24.890  0.00  0.00    +0.030 C 
ATOM      9  C   UNL     1      53.417 157.037  25.553  0.00  0.00    +0.101 C 
ATOM     10  N   UNL     1      52.615 156.796  26.594  0.00  0.00    -0.225 NA
ATOM     11  H   UNL     1      50.338 153.795  28.319  0.00  0.00    +0.151 HD
ENDROOT
BRANCH   1  12
ATOM     12  C   UNL     1      51.097 156.310  28.903  0.00  0.00    +0.089 C 
ATOM     13  C   UNL     1      51.925 157.355  29.254  0.00  0.00    +0.096 C 
ATOM     14  N   UNL     1      53.231 157.373  28.890  0.00  0.00    -0.243 NA
ATOM     15  C   UNL     1      54.010 158.390  29.236  0.00  0.00    +0.099 C 
ATOM     16  C   UNL     1      53.485 159.437  29.975  0.00  0.00    +0.021 C 
ATOM     17  C   UNL     1      52.164 159.456  30.366  0.00  0.00    +0.003 C 
ATOM     18  C   UNL     1      51.390 158.383  29.986  0.00  0.00    +0.022 C 
ATOM     19  C   UNL     1      50.050 158.425  30.391  0.00  0.00    +0.038 C 
ATOM     20  C   UNL     1      49.237 157.371  30.031  0.00  0.00    +0.135 C 
ATOM     21  C   UNL     1      49.781 156.340  29.296  0.00  0.00    +0.054 C 
BRANCH  20  22
ATOM     22  O   UNL     1      47.902 157.385  30.421  0.00  0.00    -0.505 OA
ATOM     23  H   UNL     1      47.567 158.104  30.921  0.00  0.00    +0.292 HD
ENDBRANCH  20  22
ENDBRANCH   1  12
BRANCH   2  24
ATOM     24  N   UNL     1      51.616 151.454  28.152  0.00  0.00    -0.232 N 
ATOM     25  C   UNL     1      51.961 150.106  27.754  0.00  0.00    +0.108 C 
ATOM     26  C   UNL     1      50.616 149.694  28.309  0.00  0.00    +0.107 C 
ATOM     27  C   UNL     1      50.755 150.902  29.139  0.00  0.00    +0.231 C 
ATOM     28  O   UNL     1      50.341 151.349  30.244  0.00  0.00    -0.275 OA
ENDBRANCH   2  24
BRANCH   7  29
ATOM     29  S   UNL     1      54.809 153.403  24.534  0.00  0.00    -0.138 S 
ATOM     30  H   UNL     1      54.498 152.231  25.150  0.00  0.00    +0.107 HD
ENDBRANCH   7  29
TORSDOF 4
