REMARK  Name = =
REMARK  8 active torsions:
REMARK  status: ('A' for Active; 'I' for Inactive)
REMARK    1  A    between atoms: C_1  and  C_7
REMARK    2  A    between atoms: C_1  and  C_23
REMARK    3  A    between atoms: C_7  and  O_13
REMARK    4  A    between atoms: O_13  and  C_14
REMARK    5  A    between atoms: C_14  and  C_16
REMARK    6  A    between atoms: C_17  and  O_22
REMARK    7  A    between atoms: C_23  and  C_26
REMARK    8  A    between atoms: C_30  and  C_31
REMARK                            x       y       z     vdW  Elec       q    Type
REMARK                         _______ _______ _______ _____ _____    ______ ____
ROOT
ATOM      1  C   UNL     1      50.037 159.138  30.043  0.00  0.00    +0.107 C 
ATOM      2  C   UNL     1      48.888 158.325  30.460  0.00  0.00    -0.000 C 
ATOM      3  C   UNL     1      47.697 158.297  29.944  0.00  0.00    +0.058 C 
ATOM      4  N   UNL     1      47.320 159.111  28.827  0.00  0.00    -0.311 N 
ATOM      5  C   UNL     1      48.350 159.945  28.333  0.00  0.00    +0.058 C 
ATOM      6  C   UNL     1      49.528 159.959  28.857  0.00  0.00    -0.000 C 
ATOM      7  H   UNL     1      46.417 159.091  28.435  0.00  0.00    +0.152 HD
ENDROOT
BRANCH   1   8
ATOM      8  C   UNL     1      50.411 160.259  30.990  0.00  0.00    +0.259 C 
ATOM      9  O   UNL     1      49.515 161.293  30.757  0.00  0.00    -0.321 OA
ATOM     10  C   UNL     1      48.407 161.375  31.517  0.00  0.00    +0.151 C 
ATOM     11  C   UNL     1      48.758 161.556  32.971  0.00  0.00    +0.058 C 
ATOM     12  C   UNL     1      49.804 160.569  33.321  0.00  0.00    -0.022 C 
ATOM     13  C   UNL     1      50.558 159.981  32.388  0.00  0.00    +0.039 C 
BRANCH   8  14
ATOM     14  O   UNL     1      51.667 160.825  30.535  0.00  0.00    -0.423 OA
BRANCH  14  15
ATOM     15  C   UNL     1      52.526 161.520  31.361  0.00  0.00    +0.346 C 
ATOM     16  O   UNL     1      52.107 161.720  32.519  0.00  0.00    -0.245 OA
BRANCH  15  17
ATOM     17  C   UNL     1      53.832 161.989  30.908  0.00  0.00    +0.109 C 
ATOM     18  C   UNL     1      54.933 161.943  31.690  0.00  0.00    +0.140 C 
ATOM     19  C   UNL     1      56.169 162.408  31.193  0.00  0.00    +0.037 C 
ATOM     20  C   UNL     1      56.245 162.904  29.924  0.00  0.00    +0.003 C 
ATOM     21  C   UNL     1      55.131 162.948  29.139  0.00  0.00    +0.000 C 
ATOM     22  C   UNL     1      53.907 162.496  29.607  0.00  0.00    +0.009 C 
BRANCH  18  23
ATOM     23  O   UNL     1      54.963 161.473  32.956  0.00  0.00    -0.505 OA
ATOM     24  H   UNL     1      54.180 161.147  33.353  0.00  0.00    +0.292 HD
ENDBRANCH  18  23
ENDBRANCH  15  17
ENDBRANCH  14  15
ENDBRANCH   8  14
ENDBRANCH   1   8
BRANCH   1  25
ATOM     25  C   UNL     1      51.088 158.324  29.447  0.00  0.00    +0.054 C 
ATOM     26  C   UNL     1      52.479 158.906  29.787  0.00  0.00    +0.007 C 
BRANCH  25  28
ATOM     27  N   UNL     1      51.650 156.263  28.476  0.00  0.00    -0.248 NA
ATOM     28  C   UNL     1      51.208 156.892  29.612  0.00  0.00    +0.059 C 
ATOM     29  C   UNL     1      50.955 156.073  30.652  0.00  0.00    +0.015 C 
ATOM     30  C   UNL     1      51.137 154.683  30.558  0.00  0.00    +0.003 C 
ATOM     31  C   UNL     1      51.580 154.110  29.401  0.00  0.00    +0.021 C 
ATOM     32  C   UNL     1      51.842 154.965  28.322  0.00  0.00    +0.098 C 
BRANCH  32  33
ATOM     33  C   UNL     1      52.304 154.307  27.084  0.00  0.00    +0.095 C 
ATOM     34  N   UNL     1      51.879 153.115  26.855  0.00  0.00    -0.259 NA
ATOM     35  C   UNL     1      52.135 152.203  25.760  0.00  0.00    +0.210 C 
ATOM     36  C   UNL     1      53.591 152.122  25.409  0.00  0.00    +0.251 C 
ATOM     37  O   UNL     1      54.056 150.976  25.275  0.00  0.00    -0.273 OA
ATOM     38  N   UNL     1      54.528 153.183  25.205  0.00  0.00    -0.282 N 
ATOM     39  C   UNL     1      54.208 154.563  25.386  0.00  0.00    +0.052 C 
ATOM     40  C   UNL     1      53.185 155.057  26.202  0.00  0.00    +0.032 C 
ATOM     41  C   UNL     1      52.953 156.396  26.239  0.00  0.00    +0.003 C 
ATOM     42  C   UNL     1      53.725 157.247  25.485  0.00  0.00    +0.000 C 
ATOM     43  C   UNL     1      54.756 156.776  24.664  0.00  0.00    +0.001 C 
ATOM     44  C   UNL     1      54.979 155.416  24.632  0.00  0.00    +0.015 C 
ATOM     45  H   UNL     1      55.442 152.950  24.925  0.00  0.00    +0.155 HD
ENDBRANCH  32  33
ENDBRANCH  25  28
ENDBRANCH   1  25
TORSDOF 8
