REMARK  Name = =
REMARK  0 active torsions:
REMARK  status: ('A' for Active; 'I' for Inactive)
REMARK                            x       y       z     vdW  Elec       q    Type
REMARK                         _______ _______ _______ _____ _____    ______ ____
ROOT
ATOM      1  C   UNL     1      55.727 165.504  40.156  0.00  0.00    +0.086 C 
ATOM      2  C   UNL     1      55.107 164.156  39.842  0.00  0.00    +0.161 C 
ATOM      3  C   UNL     1      54.692 163.413  41.074  0.00  0.00    +0.173 C 
ATOM      4  O   UNL     1      53.448 163.840  41.466  0.00  0.00    -0.351 OA
ATOM      5  C   UNL     1      52.431 162.941  41.264  0.00  0.00    +0.142 C 
ATOM      6  C   UNL     1      51.709 163.129  39.948  0.00  0.00    +0.032 C 
ATOM      7  C   UNL     1      50.294 163.545  40.163  0.00  0.00    +0.003 C 
ATOM      8  C   UNL     1      49.899 164.790  39.413  0.00  0.00    +0.000 C 
ATOM      9  C   UNL     1      50.883 165.910  39.565  0.00  0.00    +0.000 C 
ATOM     10  C   UNL     1      51.335 166.500  38.270  0.00  0.00    +0.000 C 
ATOM     11  C   UNL     1      52.832 166.640  38.218  0.00  0.00    +0.000 C 
ATOM     12  C   UNL     1      53.346 167.446  39.377  0.00  0.00    +0.000 C 
ATOM     13  C   UNL     1      54.814 167.678  39.288  0.00  0.00    +0.001 C 
ATOM     14  C   UNL     1      55.621 166.456  38.977  0.00  0.00    +0.018 C 
ATOM     15  O   UNL     1      56.132 163.507  39.155  0.00  0.00    -0.336 OA
ATOM     16  C   UNL     1      57.225 163.732  39.974  0.00  0.00    +0.216 C 
ATOM     17  N   UNL     1      57.129 165.121  40.352  0.00  0.00    -0.271 NA
ATOM     18  H   UNL     1      57.395 165.240  41.330  0.00  0.00    +0.126 HD
ENDROOT
TORSDOF 0
