REMARK  Name = =
REMARK  2 active torsions:
REMARK  status: ('A' for Active; 'I' for Inactive)
REMARK    1  A    between atoms: C_1  and  S_3
REMARK    2  A    between atoms: C_1  and  O_4
REMARK                            x       y       z     vdW  Elec       q    Type
REMARK                         _______ _______ _______ _____ _____    ______ ____
ROOT
ATOM      1  C   UNL     1       2.649  -4.232  42.269  0.00  0.00    +0.195 C 
ATOM      2  S   UNL     1       2.106  -3.684  40.830  0.00  0.00    -0.005 S 
ENDROOT
BRANCH   1   3
ATOM      3  S   UNL     1       3.380  -5.858  42.433  0.00  0.00    -0.098 S 
ATOM      4  H   UNL     1       3.745  -6.063  43.727  0.00  0.00    +0.111 HD
ENDBRANCH   1   3
BRANCH   1   5
ATOM      5  O   UNL     1       2.561  -3.462  43.404  0.00  0.00    -0.496 OA
ATOM      6  H   UNL     1       2.878  -3.794  44.221  0.00  0.00    +0.293 HD
ENDBRANCH   1   5
TORSDOF 2
