REMARK  Name = =
REMARK  3 active torsions:
REMARK  status: ('A' for Active; 'I' for Inactive)
REMARK    1  A    between atoms: S_1  and  N_2
REMARK    2  A    between atoms: S_1  and  C_7
REMARK    3  A    between atoms: C_7  and  O_9
REMARK                            x       y       z     vdW  Elec       q    Type
REMARK                         _______ _______ _______ _____ _____    ______ ____
ROOT
ATOM      1  S   UNL     1       2.099  -3.660  39.328  0.00  0.00    +0.008 S 
ENDROOT
BRANCH   1   2
ATOM      2  N   UNL     1       2.983  -5.030  38.650  0.00  0.00    -0.192 NA
ATOM      3  C   UNL     1       3.422  -4.594  37.310  0.00  0.00    +0.118 C 
ATOM      4  C   UNL     1       2.031  -4.370  36.707  0.00  0.00    +0.162 C 
ATOM      5  O   UNL     1       1.184  -5.245  37.385  0.00  0.00    -0.335 OA
ATOM      6  C   UNL     1       2.008  -6.038  38.197  0.00  0.00    +0.230 C 
ENDBRANCH   1   2
BRANCH   1   7
ATOM      7  C   UNL     1       2.267  -3.598  41.109  0.00  0.00    +0.213 C 
ATOM      8  S   UNL     1       2.919  -4.869  41.901  0.00  0.00    -0.003 S 
BRANCH   7   9
ATOM      9  O   UNL     1       1.839  -2.468  41.791  0.00  0.00    -0.495 OA
ATOM     10  H   UNL     1       1.467  -1.749  41.319  0.00  0.00    +0.293 HD
ENDBRANCH   7   9
ENDBRANCH   1   7
TORSDOF 3
