REMARK  Name = =
REMARK  4 active torsions:
REMARK  status: ('A' for Active; 'I' for Inactive)
REMARK    1  A    between atoms: N_1  and  S_11
REMARK    2  A    between atoms: C_5  and  C_6
REMARK    3  A    between atoms: S_11  and  C_12
REMARK    4  A    between atoms: C_12  and  O_14
REMARK                            x       y       z     vdW  Elec       q    Type
REMARK                         _______ _______ _______ _____ _____    ______ ____
ROOT
ATOM      1  N   UNL     1       3.581  -3.969  35.795  0.00  0.00    -0.191 NA
ATOM      2  C   UNL     1       4.991  -3.939  36.065  0.00  0.00    +0.119 C 
ATOM      3  C   UNL     1       5.390  -2.758  35.167  0.00  0.00    +0.162 C 
ATOM      4  O   UNL     1       4.501  -2.746  34.126  0.00  0.00    -0.334 OA
ATOM      5  C   UNL     1       3.377  -3.499  34.463  0.00  0.00    +0.230 C 
ENDROOT
BRANCH   5   6
ATOM      6  C   UNL     1       3.219  -4.676  33.595  0.00  0.00    +0.132 C 
ATOM      7  N   UNL     1       2.448  -4.464  32.355  0.00  0.00    -0.191 NA
ATOM      8  S   UNL     1       2.415  -5.896  31.571  0.00  0.00    +0.116 S 
ATOM      9  N   UNL     1       3.385  -6.867  32.776  0.00  0.00    -0.189 NA
ATOM     10  C   UNL     1       3.642  -5.882  33.723  0.00  0.00    +0.128 C 
ENDBRANCH   5   6
BRANCH   1  11
ATOM     11  S   UNL     1       2.753  -5.389  36.256  0.00  0.00    +0.008 S 
BRANCH  11  12
ATOM     12  C   UNL     1       1.739  -5.021  37.685  0.00  0.00    +0.213 C 
ATOM     13  S   UNL     1       2.393  -4.628  39.135  0.00  0.00    -0.003 S 
BRANCH  12  14
ATOM     14  O   UNL     1       0.341  -5.059  37.609  0.00  0.00    -0.495 OA
ATOM     15  H   UNL     1      -0.078  -5.279  36.800  0.00  0.00    +0.293 HD
ENDBRANCH  12  14
ENDBRANCH  11  12
ENDBRANCH   1  11
TORSDOF 4
