REMARK  Name = =
REMARK  11 active torsions:
REMARK  status: ('A' for Active; 'I' for Inactive)
REMARK    1  A    between atoms: O_1  and  C_2
REMARK    2  A    between atoms: O_1  and  P_18
REMARK    3  A    between atoms: N_10  and  C_11
REMARK    4  A    between atoms: P_18  and  O_20
REMARK    5  A    between atoms: P_18  and  O_25
REMARK    6  A    between atoms: O_20  and  P_21
REMARK    7  A    between atoms: P_21  and  O_23
REMARK    8  A    between atoms: P_21  and  O_24
REMARK    9  A    between atoms: O_25  and  P_26
REMARK   10  A    between atoms: P_26  and  O_28
REMARK   11  A    between atoms: P_26  and  O_29
REMARK                            x       y       z     vdW  Elec       q    Type
REMARK                         _______ _______ _______ _____ _____    ______ ____
ROOT
ATOM      1  O   UNL     1       5.564  -5.595  26.193  0.00  0.00    -0.388 OA
ENDROOT
BRANCH   1   2
ATOM      2  C   UNL     1       5.351  -6.866  26.681  0.00  0.00    +0.207 C 
ATOM      3  C   UNL     1       6.405  -7.645  27.199  0.00  0.00    +0.051 C 
ATOM      4  C   UNL     1       7.755  -7.430  27.356  0.00  0.00    +0.004 C 
ATOM      5  C   UNL     1       8.575  -8.387  27.905  0.00  0.00    +0.000 C 
ATOM      6  C   UNL     1       8.006  -9.594  28.303  0.00  0.00    +0.000 C 
ATOM      7  C   UNL     1       6.653  -9.781  28.135  0.00  0.00    +0.001 C 
ATOM      8  C   UNL     1       5.820  -8.825  27.584  0.00  0.00    +0.019 C 
ATOM      9  C   UNL     1       4.493  -8.738  27.305  0.00  0.00    +0.068 C 
ATOM     10  N   UNL     1       4.210  -7.522  26.746  0.00  0.00    -0.257 N 
BRANCH  10  11
ATOM     11  C   UNL     1       2.894  -7.156  26.374  0.00  0.00    +0.109 C 
ATOM     12  C   UNL     1       1.778  -8.007  26.851  0.00  0.00    +0.052 C 
ATOM     13  C   UNL     1       0.663  -6.965  27.068  0.00  0.00    +0.117 C 
ATOM     14  O   UNL     1       1.152  -5.776  26.480  0.00  0.00    -0.357 OA
ATOM     15  C   UNL     1       2.478  -5.804  26.983  0.00  0.00    +0.134 C 
ATOM     16  C   UNL     1       2.210  -5.941  28.472  0.00  0.00    +0.034 C 
ATOM     17  C   UNL     1       0.801  -6.552  28.543  0.00  0.00    +0.032 C 
ENDBRANCH  10  11
ENDBRANCH   1   2
BRANCH   1  18
ATOM     18  P   UNL     1       5.985  -5.311  24.562  0.00  0.00    +0.551 P 
ATOM     19  O   UNL     1       7.450  -4.922  24.414  0.00  0.00    -0.214 OA
BRANCH  18  20
ATOM     20  O   UNL     1       5.682  -6.646  23.572  0.00  0.00    -0.176 OA
BRANCH  20  21
ATOM     21  P   UNL     1       6.110  -6.254  21.963  0.00  0.00    +0.482 P 
ATOM     22  O   UNL     1       7.549  -6.674  21.722  0.00  0.00    -0.227 OA
BRANCH  21  23
ATOM     23  O   UNL     1       5.946  -4.571  21.832  0.00  0.00    -0.302 OA
ATOM     24  H   UNL     1       6.541  -4.138  22.464  0.00  0.00    +0.222 HD
ENDBRANCH  21  23
BRANCH  21  25
ATOM     25  O   UNL     1       5.069  -6.995  20.859  0.00  0.00    -0.302 OA
ATOM     26  H   UNL     1       5.157  -7.959  20.928  0.00  0.00    +0.222 HD
ENDBRANCH  21  25
ENDBRANCH  20  21
ENDBRANCH  18  20
BRANCH  18  27
ATOM     27  O   UNL     1       5.004  -4.045  23.950  0.00  0.00    -0.176 OA
BRANCH  27  28
ATOM     28  P   UNL     1       4.943  -2.731  24.976  0.00  0.00    +0.482 P 
ATOM     29  O   UNL     1       3.519  -2.619  25.518  0.00  0.00    -0.227 OA
BRANCH  28  30
ATOM     30  O   UNL     1       5.245  -1.336  24.038  0.00  0.00    -0.302 OA
ATOM     31  H   UNL     1       4.602  -1.288  23.314  0.00  0.00    +0.222 HD
ENDBRANCH  28  30
BRANCH  28  32
ATOM     32  O   UNL     1       6.057  -2.829  26.244  0.00  0.00    -0.302 OA
ATOM     33  H   UNL     1       5.878  -3.624  26.771  0.00  0.00    +0.222 HD
ENDBRANCH  28  32
ENDBRANCH  27  28
ENDBRANCH  18  27
ENDBRANCH   1  18
TORSDOF 11
