REMARK  Name = =
REMARK  6 active torsions:
REMARK  status: ('A' for Active; 'I' for Inactive)
REMARK    1  A    between atoms: S_1  and  N_2
REMARK    2  A    between atoms: S_1  and  C_12
REMARK    3  A    between atoms: S_1  and  C_15
REMARK    4  A    between atoms: C_6  and  C_7
REMARK    5  A    between atoms: C_12  and  O_14
REMARK    6  A    between atoms: C_15  and  O_17
REMARK                            x       y       z     vdW  Elec       q    Type
REMARK                         _______ _______ _______ _____ _____    ______ ____
ROOT
ATOM      1  S   UNL     1       1.920  -6.486  34.886  0.00  0.00    -0.030 S 
ATOM      2  H   UNL     1       2.812  -7.512  34.895  0.00  0.00    +0.116 HD
ENDROOT
BRANCH   1   3
ATOM      3  N   UNL     1       2.716  -5.453  34.326  0.00  0.00    -0.202 NA
ATOM      4  C   UNL     1       3.293  -4.371  35.085  0.00  0.00    +0.117 C 
ATOM      5  C   UNL     1       4.311  -3.812  34.133  0.00  0.00    +0.162 C 
ATOM      6  O   UNL     1       3.908  -4.243  32.877  0.00  0.00    -0.334 OA
ATOM      7  C   UNL     1       3.362  -5.492  33.055  0.00  0.00    +0.229 C 
BRANCH   7   8
ATOM      8  C   UNL     1       2.301  -5.757  31.952  0.00  0.00    +0.132 C 
ATOM      9  N   UNL     1       2.261  -6.992  31.349  0.00  0.00    -0.191 NA
ATOM     10  S   UNL     1       0.872  -6.764  30.177  0.00  0.00    +0.116 S 
ATOM     11  N   UNL     1       0.535  -5.197  30.586  0.00  0.00    -0.189 NA
ATOM     12  C   UNL     1       1.430  -4.845  31.570  0.00  0.00    +0.128 C 
ENDBRANCH   7   8
ENDBRANCH   1   3
BRANCH   1  13
ATOM     13  C   UNL     1       1.154  -5.836  36.519  0.00  0.00    +0.200 C 
ATOM     14  S   UNL     1       2.209  -5.475  37.666  0.00  0.00    -0.004 S 
BRANCH  13  15
ATOM     15  O   UNL     1      -0.191  -5.747  36.537  0.00  0.00    -0.496 OA
ATOM     16  H   UNL     1      -0.687  -5.997  35.782  0.00  0.00    +0.293 HD
ENDBRANCH  13  15
ENDBRANCH   1  13
BRANCH   1  17
ATOM     17  C   UNL     1       0.453  -6.993  34.073  0.00  0.00    +0.369 C 
ATOM     18  O   UNL     1       0.415  -8.173  33.639  0.00  0.00    -0.238 OA
BRANCH  17  19
ATOM     19  O   UNL     1      -0.629  -6.177  33.895  0.00  0.00    -0.437 OA
ATOM     20  C   UNL     1      -1.762  -6.643  33.189  0.00  0.00    +0.256 C 
ENDBRANCH  17  19
ENDBRANCH   1  17
TORSDOF 6
