REMARK  Name = =
REMARK  10 active torsions:
REMARK  status: ('A' for Active; 'I' for Inactive)
REMARK    1  A    between atoms: S_1  and  N_2
REMARK    2  A    between atoms: S_1  and  N_12
REMARK    3  A    between atoms: S_1  and  C_24
REMARK    4  A    between atoms: S_1  and  C_27
REMARK    5  A    between atoms: C_6  and  C_7
REMARK    6  A    between atoms: N_12  and  C_15
REMARK    7  A    between atoms: C_17  and  O_23
REMARK    8  A    between atoms: C_18  and  C_20
REMARK    9  A    between atoms: C_24  and  O_26
REMARK   10  A    between atoms: C_27  and  O_29
REMARK                            x       y       z     vdW  Elec       q    Type
REMARK                         _______ _______ _______ _____ _____    ______ ____
ROOT
ATOM      1  S   UNL     1       1.239  -6.099  28.515  0.00  0.00    +0.055 S 
ENDROOT
BRANCH   1   2
ATOM      2  N   UNL     1      -0.132  -5.646  28.809  0.00  0.00    -0.186 NA
ATOM      3  C   UNL     1      -1.255  -6.224  28.111  0.00  0.00    +0.119 C 
ATOM      4  C   UNL     1      -2.338  -6.182  29.161  0.00  0.00    +0.162 C 
ATOM      5  O   UNL     1      -1.908  -5.399  30.205  0.00  0.00    -0.334 OA
ATOM      6  C   UNL     1      -0.649  -4.916  29.902  0.00  0.00    +0.230 C 
BRANCH   6   7
ATOM      7  C   UNL     1      -0.832  -3.462  29.427  0.00  0.00    +0.132 C 
ATOM      8  N   UNL     1       0.323  -2.743  29.031  0.00  0.00    -0.191 NA
ATOM      9  S   UNL     1      -0.331  -1.125  28.564  0.00  0.00    +0.116 S 
ATOM     10  N   UNL     1      -1.937  -1.483  28.896  0.00  0.00    -0.189 NA
ATOM     11  C   UNL     1      -1.949  -2.815  29.352  0.00  0.00    +0.128 C 
ENDBRANCH   6   7
ENDBRANCH   1   2
BRANCH   1  12
ATOM     12  N   UNL     1       2.375  -5.467  29.603  0.00  0.00    -0.278 N 
ATOM     13  H   UNL     1       3.189  -5.065  29.223  0.00  0.00    +0.161 HD
BRANCH  12  16
ATOM     14 CL   UNL     1       0.640  -7.578  30.611  0.00  0.00    -0.081 Cl
ATOM     15  C   UNL     1       1.468  -6.402  31.618  0.00  0.00    +0.072 C 
ATOM     16  C   UNL     1       2.252  -5.469  30.987  0.00  0.00    +0.068 C 
ATOM     17  C   UNL     1       2.901  -4.549  31.771  0.00  0.00    +0.053 C 
ATOM     18  C   UNL     1       2.754  -4.582  33.155  0.00  0.00    +0.139 C 
ATOM     19  C   UNL     1       1.964  -5.524  33.776  0.00  0.00    +0.088 C 
ATOM     20  C   UNL     1       1.316  -6.442  32.991  0.00  0.00    +0.020 C 
BRANCH  19  21
ATOM     21  C   UNL     1       1.821  -5.540  35.250  0.00  0.00    +0.246 C 
ATOM     22  O   UNL     1       0.679  -5.720  35.708  0.00  0.00    -0.270 OA
ATOM     23  N   UNL     1       2.984  -5.350  36.039  0.00  0.00    -0.325 N 
ATOM     24  H   UNL     1       3.857  -5.213  35.604  0.00  0.00    +0.145 HD
ATOM     25  H   UNL     1       2.919  -5.355  37.021  0.00  0.00    +0.145 HD
ENDBRANCH  19  21
BRANCH  18  26
ATOM     26  O   UNL     1       3.420  -3.641  33.926  0.00  0.00    -0.505 OA
ATOM     27  H   UNL     1       3.960  -2.995  33.514  0.00  0.00    +0.292 HD
ENDBRANCH  18  26
ENDBRANCH  12  16
ENDBRANCH   1  12
BRANCH   1  28
ATOM     28  C   UNL     1       1.734  -5.243  26.910  0.00  0.00    +0.219 C 
ATOM     29  S   UNL     1       2.061  -3.692  26.975  0.00  0.00    -0.003 S 
BRANCH  28  30
ATOM     30  O   UNL     1       1.789  -5.986  25.783  0.00  0.00    -0.495 OA
ATOM     31  H   UNL     1       1.583  -6.900  25.814  0.00  0.00    +0.293 HD
ENDBRANCH  28  30
ENDBRANCH   1  28
BRANCH   1  32
ATOM     32  C   UNL     1       1.580  -7.687  28.150  0.00  0.00    +0.388 C 
ATOM     33  O   UNL     1       1.766  -8.559  29.066  0.00  0.00    -0.236 OA
BRANCH  32  34
ATOM     34  O   UNL     1       1.688  -8.191  26.850  0.00  0.00    -0.436 OA
ATOM     35  C   UNL     1       2.206  -9.482  26.586  0.00  0.00    +0.257 C 
ENDBRANCH  32  34
ENDBRANCH   1  32
TORSDOF 10
