REMARK  Name = =
REMARK  11 active torsions:
REMARK  status: ('A' for Active; 'I' for Inactive)
REMARK    1  A    between atoms: S_1  and  N_2
REMARK    2  A    between atoms: S_1  and  N_27
REMARK    3  A    between atoms: S_1  and  C_39
REMARK    4  A    between atoms: S_1  and  C_42
REMARK    5  A    between atoms: C_4  and  C_7
REMARK    6  A    between atoms: C_6  and  C_22
REMARK    7  A    between atoms: N_27  and  C_30
REMARK    8  A    between atoms: C_32  and  O_38
REMARK    9  A    between atoms: C_33  and  C_35
REMARK   10  A    between atoms: C_39  and  O_41
REMARK   11  A    between atoms: C_42  and  O_44
REMARK                            x       y       z     vdW  Elec       q    Type
REMARK                         _______ _______ _______ _____ _____    ______ ____
ROOT
ATOM      1  S   UNL     1       1.914  -9.568  26.184  0.00  0.00    +0.055 S 
ENDROOT
BRANCH   1   2
ATOM      2  N   UNL     1       2.476  -8.356  25.640  0.00  0.00    -0.186 NA
ATOM      3  C   UNL     1       1.889  -7.029  25.621  0.00  0.00    +0.117 C 
ATOM      4  C   UNL     1       2.345  -6.446  24.305  0.00  0.00    +0.142 C 
ATOM      5  O   UNL     1       3.283  -7.353  23.821  0.00  0.00    -0.336 OA
ATOM      6  C   UNL     1       3.592  -8.250  24.776  0.00  0.00    +0.230 C 
BRANCH   4   7
ATOM      7  C   UNL     1       2.963  -5.131  24.326  0.00  0.00    +0.073 C 
ATOM      8  C   UNL     1       3.320  -4.708  25.718  0.00  0.00    -0.020 C 
ATOM      9  C   UNL     1       3.560  -3.353  26.005  0.00  0.00    -0.025 C 
ATOM     10  C   UNL     1       3.888  -3.020  27.274  0.00  0.00    -0.005 C 
ATOM     11  C   UNL     1       3.983  -3.990  28.264  0.00  0.00    -0.000 C 
ATOM     12  C   UNL     1       3.743  -5.311  27.958  0.00  0.00    -0.000 C 
ATOM     13  C   UNL     1       3.405  -5.678  26.664  0.00  0.00    -0.004 C 
ATOM     14  C   UNL     1       3.502  -2.194  25.041  0.00  0.00    +0.031 C 
ATOM     15  C   UNL     1       4.685  -2.352  24.148  0.00  0.00    +0.031 C 
ATOM     16  C   UNL     1       4.857  -3.667  23.515  0.00  0.00    -0.025 C 
ATOM     17  C   UNL     1       4.190  -4.872  23.552  0.00  0.00    -0.020 C 
ATOM     18  C   UNL     1       4.667  -5.927  22.832  0.00  0.00    -0.004 C 
ATOM     19  C   UNL     1       5.820  -5.857  22.038  0.00  0.00    -0.000 C 
ATOM     20  C   UNL     1       6.488  -4.660  21.996  0.00  0.00    -0.000 C 
ATOM     21  C   UNL     1       5.999  -3.599  22.727  0.00  0.00    -0.005 C 
ENDBRANCH   4   7
BRANCH   6  22
ATOM     22  C   UNL     1       4.869  -7.860  25.542  0.00  0.00    +0.132 C 
ATOM     23  N   UNL     1       4.820  -8.011  26.881  0.00  0.00    -0.191 NA
ATOM     24  S   UNL     1       6.358  -7.503  27.459  0.00  0.00    +0.116 S 
ATOM     25  N   UNL     1       7.036  -7.098  25.908  0.00  0.00    -0.189 NA
ATOM     26  C   UNL     1       5.955  -7.402  24.979  0.00  0.00    +0.128 C 
ENDBRANCH   6  22
ENDBRANCH   1   2
BRANCH   1  27
ATOM     27  N   UNL     1       1.227  -9.360  27.754  0.00  0.00    -0.278 N 
ATOM     28  H   UNL     1       1.203 -10.139  28.355  0.00  0.00    +0.161 HD
BRANCH  27  31
ATOM     29 CL   UNL     1      -1.512  -8.573  26.660  0.00  0.00    -0.081 Cl
ATOM     30  C   UNL     1      -0.522  -7.701  27.804  0.00  0.00    +0.072 C 
ATOM     31  C   UNL     1       0.703  -8.151  28.223  0.00  0.00    +0.068 C 
ATOM     32  C   UNL     1       1.455  -7.415  29.139  0.00  0.00    +0.053 C 
ATOM     33  C   UNL     1       0.960  -6.222  29.625  0.00  0.00    +0.139 C 
ATOM     34  C   UNL     1      -0.263  -5.756  29.217  0.00  0.00    +0.088 C 
ATOM     35  C   UNL     1      -0.983  -6.502  28.314  0.00  0.00    +0.020 C 
BRANCH  34  36
ATOM     36  C   UNL     1      -0.807  -4.491  29.734  0.00  0.00    +0.246 C 
ATOM     37  O   UNL     1      -1.946  -4.123  29.385  0.00  0.00    -0.270 OA
ATOM     38  N   UNL     1      -0.033  -3.711  30.617  0.00  0.00    -0.325 N 
ATOM     39  H   UNL     1       0.865  -4.014  30.884  0.00  0.00    +0.145 HD
ATOM     40  H   UNL     1      -0.390  -2.863  30.967  0.00  0.00    +0.145 HD
ENDBRANCH  34  36
BRANCH  33  41
ATOM     41  O   UNL     1       1.685  -5.458  30.540  0.00  0.00    -0.505 OA
ATOM     42  H   UNL     1       2.524  -5.753  30.836  0.00  0.00    +0.292 HD
ENDBRANCH  33  41
ENDBRANCH  27  31
ENDBRANCH   1  27
BRANCH   1  43
ATOM     43  C   UNL     1       0.593 -10.362  25.244  0.00  0.00    +0.219 C 
ATOM     44  S   UNL     1       0.293  -9.990  23.712  0.00  0.00    -0.003 S 
BRANCH  43  45
ATOM     45  O   UNL     1      -0.195 -11.323  25.858  0.00  0.00    -0.495 OA
ATOM     46  H   UNL     1      -0.038 -11.556  26.752  0.00  0.00    +0.293 HD
ENDBRANCH  43  45
ENDBRANCH   1  43
BRANCH   1  47
ATOM     47  C   UNL     1       3.108 -10.842  26.329  0.00  0.00    +0.388 C 
ATOM     48  O   UNL     1       2.759 -12.013  26.022  0.00  0.00    -0.236 OA
BRANCH  47  49
ATOM     49  O   UNL     1       4.396 -10.679  26.748  0.00  0.00    -0.436 OA
ATOM     50  C   UNL     1       5.414 -11.653  26.608  0.00  0.00    +0.257 C 
ENDBRANCH  47  49
ENDBRANCH   1  47
TORSDOF 11
