MODEL 1
REMARK VINA RESULT:    -8.004      0.000      0.000
REMARK INTER + INTRA:         -15.646
REMARK INTER:                 -12.917
REMARK INTRA:                  -2.728
REMARK UNBOUND:                -2.728
REMARK  Name = =
REMARK  12 active torsions:
REMARK  status: ('A' for Active; 'I' for Inactive)
REMARK    1  A    between atoms: C_1  and  S_18
REMARK    2  A    between atoms: C_4  and  C_7
REMARK    3  A    between atoms: C_5  and  S_34
REMARK    4  A    between atoms: C_8  and  C_13
REMARK    5  A    between atoms: S_18  and  P_19
REMARK    6  A    between atoms: P_19  and  O_21
REMARK    7  A    between atoms: P_19  and  O_26
REMARK    8  A    between atoms: O_21  and  P_22
REMARK    9  A    between atoms: P_22  and  O_24
REMARK   10  A    between atoms: P_22  and  O_25
REMARK   11  A    between atoms: O_26  and  C_27
REMARK   12  A    between atoms: S_34  and  N_37
REMARK                            x       y       z     vdW  Elec       q    Type
REMARK                         _______ _______ _______ _____ _____    ______ ____
ROOT
ATOM      1  C   UNL     1       1.888  -6.123  26.936  0.00  0.00    +0.024 C 
ATOM      2  C   UNL     1       2.438  -7.107  27.707  0.00  0.00    +0.006 C 
ATOM      3  C   UNL     1       1.962  -7.386  28.961  0.00  0.00    +0.002 C 
ATOM      4  C   UNL     1       0.889  -6.665  29.491  0.00  0.00    +0.018 C 
ATOM      5  C   UNL     1       0.323  -5.672  28.735  0.00  0.00    +0.122 C 
ATOM      6  C   UNL     1       0.833  -5.416  27.467  0.00  0.00    +0.026 C 
ENDROOT
BRANCH   4   7
ATOM      7  C   UNL     1       0.455  -7.068  30.816  0.00  0.00    +0.001 C 
ATOM      8  C   UNL     1       1.196  -6.634  31.894  0.00  0.00    +0.027 C 
ATOM      9  C   UNL     1       0.828  -7.024  33.155  0.00  0.00    -0.000 C 
ATOM     10  C   UNL     1      -0.254  -7.837  33.410  0.00  0.00    -0.000 C 
ATOM     11  C   UNL     1      -0.971  -8.253  32.312  0.00  0.00    -0.000 C 
ATOM     12  C   UNL     1      -0.623  -7.875  31.024  0.00  0.00    -0.000 C 
BRANCH   8  13
ATOM     13  C   UNL     1       2.368  -5.762  31.726  0.00  0.00    +0.273 C 
ATOM     14  N   UNL     1       2.002  -4.420  32.132  0.00  0.00    -0.124 NA
ATOM     15  N   UNL     1       2.770  -4.107  33.092  0.00  0.00    -0.025 NA
ATOM     16  N   UNL     1       3.658  -5.133  33.397  0.00  0.00    -0.025 NA
ATOM     17  N   UNL     1       3.448  -6.096  32.624  0.00  0.00    -0.124 NA
ENDBRANCH   8  13
ENDBRANCH   4   7
BRANCH   5  18
ATOM     18  S   UNL     1      -0.995  -4.724  29.321  0.00  0.00    +0.057 S 
ATOM     19  O   UNL     1      -2.162  -5.464  29.839  0.00  0.00    -0.153 OA
ATOM     20  O   UNL     1      -1.508  -3.914  28.111  0.00  0.00    -0.153 OA
BRANCH  18  21
ATOM     21  N   UNL     1      -0.456  -3.508  30.441  0.00  0.00    -0.203 NA
ATOM     22  H   UNL     1      -0.788  -2.593  30.136  0.00  0.00    +0.144 HD
ATOM     23  H   UNL     1       0.563  -3.506  30.477  0.00  0.00    +0.144 HD
ENDBRANCH  18  21
ENDBRANCH   5  18
BRANCH   1  24
ATOM     24  S   UNL     1       2.528  -5.771  25.320  0.00  0.00    -0.081 S 
ATOM     25  H   UNL     1       1.549  -5.274  24.518  0.00  0.00    +0.108 HD
BRANCH  24  26
ATOM     26  P   UNL     1       3.914  -4.450  25.593  0.00  0.00    +0.393 P 
ATOM     27  O   UNL     1       4.368  -4.713  26.991  0.00  0.00    -0.246 OA
BRANCH  26  28
ATOM     28  O   UNL     1       5.230  -4.775  24.578  0.00  0.00    -0.201 OA
BRANCH  28  29
ATOM     29  P   UNL     1       6.250  -3.436  24.594  0.00  0.00    +0.480 P 
ATOM     30  O   UNL     1       7.694  -3.810  24.344  0.00  0.00    -0.227 OA
BRANCH  29  31
ATOM     31  O   UNL     1       5.722  -2.343  23.395  0.00  0.00    -0.302 OA
ATOM     32  H   UNL     1       4.757  -2.264  23.433  0.00  0.00    +0.222 HD
ENDBRANCH  29  31
BRANCH  29  33
ATOM     33  O   UNL     1       6.219  -2.641  26.083  0.00  0.00    -0.302 OA
ATOM     34  H   UNL     1       5.410  -2.884  26.562  0.00  0.00    +0.222 HD
ENDBRANCH  29  33
ENDBRANCH  28  29
ENDBRANCH  26  28
BRANCH  26  35
ATOM     35  O   UNL     1       3.354  -2.907  25.430  0.00  0.00    -0.285 OA
BRANCH  35  36
ATOM     36  C   UNL     1       2.357  -2.510  26.292  0.00  0.00    +0.147 C 
ATOM     37  C   UNL     1       2.815  -1.386  27.178  0.00  0.00    +0.043 C 
ATOM     38  C   UNL     1       1.844  -1.324  28.347  0.00  0.00    +0.072 C 
ATOM     39  C   UNL     1       0.485  -1.207  27.739  0.00  0.00    +0.173 C 
ATOM     40  O   UNL     1      -0.471  -0.953  28.541  0.00  0.00    -0.291 OA
ATOM     41  C   UNL     1       0.257  -1.371  26.306  0.00  0.00    +0.035 C 
ATOM     42  C   UNL     1       1.151  -2.005  25.560  0.00  0.00    +0.006 C 
ENDBRANCH  35  36
ENDBRANCH  26  35
ENDBRANCH  24  26
ENDBRANCH   1  24
TORSDOF 12
ENDMDL
