MODEL 1
REMARK VINA RESULT:   -10.296      0.000      0.000
REMARK INTER + INTRA:         -14.145
REMARK INTER:                 -13.305
REMARK INTRA:                  -0.840
REMARK UNBOUND:                -0.840
REMARK  Name = =
REMARK  5 active torsions:
REMARK  status: ('A' for Active; 'I' for Inactive)
REMARK    1  A    between atoms: C_1  and  C_31
REMARK    2  A    between atoms: N_14  and  C_15
REMARK    3  A    between atoms: C_20  and  C_21
REMARK    4  A    between atoms: N_23  and  C_24
REMARK    5  A    between atoms: N_30  and  N_35
REMARK                            x       y       z     vdW  Elec       q    Type
REMARK                         _______ _______ _______ _____ _____    ______ ____
ROOT
ATOM      1  C   UNL     1      -2.627  -2.460  29.609  0.00  0.00    -0.003 C 
ATOM      2  C   UNL     1      -1.499  -3.232  29.822  0.00  0.00    +0.012 C 
ATOM      3  C   UNL     1      -0.251  -2.957  29.243  0.00  0.00    +0.057 C 
ATOM      4  C   UNL     1      -0.217  -1.862  28.442  0.00  0.00    +0.043 C 
ATOM      5  C   UNL     1      -1.318  -1.058  28.196  0.00  0.00    +0.007 C 
ATOM      6  C   UNL     1      -2.520  -1.368  28.787  0.00  0.00    -0.002 C 
ATOM      7  S   UNL     1       1.302  -1.393  27.661  0.00  0.00    -0.084 S 
ATOM      8  C   UNL     1       2.458  -2.676  28.018  0.00  0.00    +0.043 C 
ATOM      9  C   UNL     1       2.128  -3.695  28.876  0.00  0.00    +0.058 C 
ATOM     10  C   UNL     1       3.119  -4.651  29.098  0.00  0.00    +0.015 C 
ATOM     11  C   UNL     1       4.349  -4.548  28.476  0.00  0.00    +0.001 C 
ATOM     12  C   UNL     1       4.652  -3.540  27.637  0.00  0.00    +0.001 C 
ATOM     13  C   UNL     1       3.676  -2.595  27.414  0.00  0.00    +0.008 C 
ATOM     14  N   UNL     1       0.844  -3.881  29.502  0.00  0.00    -0.287 N 
ENDROOT
BRANCH  14  15
ATOM     15  C   UNL     1       0.716  -4.961  30.439  0.00  0.00    +0.093 C 
ATOM     16  C   UNL     1       1.783  -5.203  31.460  0.00  0.00    +0.029 C 
ATOM     17  C   UNL     1       1.688  -6.683  31.733  0.00  0.00    +0.067 C 
ATOM     18  C   UNL     1       0.329  -7.044  31.273  0.00  0.00    +0.161 C 
ATOM     19  O   UNL     1      -0.334  -7.912  31.816  0.00  0.00    -0.296 OA
ATOM     20  C   UNL     1      -0.002  -6.185  30.110  0.00  0.00    +0.152 C 
BRANCH  20  21
ATOM     21  C   UNL     1       0.180  -6.882  28.834  0.00  0.00    +0.234 C 
ATOM     22  O   UNL     1       0.013  -6.214  27.795  0.00  0.00    -0.274 OA
ATOM     23  N   UNL     1       0.526  -8.241  28.721  0.00  0.00    -0.284 N 
ATOM     24  H   UNL     1       0.650  -8.743  29.558  0.00  0.00    +0.155 HD
BRANCH  23  25
ATOM     25  C   UNL     1       0.706  -8.937  27.526  0.00  0.00    +0.050 C 
ATOM     26  C   UNL     1      -0.250  -9.335  26.629  0.00  0.00    +0.015 C 
ATOM     27  C   UNL     1       0.053 -10.036  25.457  0.00  0.00    +0.001 C 
ATOM     28  C   UNL     1       1.352 -10.369  25.145  0.00  0.00    +0.000 C 
ATOM     29  C   UNL     1       2.323  -9.977  26.034  0.00  0.00    +0.001 C 
ATOM     30  C   UNL     1       2.021  -9.289  27.182  0.00  0.00    +0.015 C 
ENDBRANCH  23  25
ENDBRANCH  20  21
ENDBRANCH  14  15
BRANCH   1  32
ATOM     31  N   UNL     1      -3.992  -2.423  31.635  0.00  0.00    -0.185 NA
ATOM     32  C   UNL     1      -3.917  -2.811  30.262  0.00  0.00    +0.127 C 
ATOM     33  C   UNL     1      -4.069  -4.313  30.313  0.00  0.00    +0.166 C 
ATOM     34  O   UNL     1      -3.530  -4.674  31.543  0.00  0.00    -0.335 OA
ATOM     35  C   UNL     1      -3.754  -3.614  32.388  0.00  0.00    +0.235 C 
BRANCH  31  36
ATOM     36  N   UNL     1      -5.203  -1.858  31.896  0.00  0.00    -0.216 NA
ATOM     37  C   UNL     1      -5.402  -0.492  31.628  0.00  0.00    +0.089 C 
ATOM     38  C   UNL     1      -6.548   0.018  32.515  0.00  0.00    +0.019 C 
ATOM     39  C   UNL     1      -7.777  -0.806  32.102  0.00  0.00    +0.003 C 
ATOM     40  C   UNL     1      -7.548  -2.249  32.495  0.00  0.00    +0.019 C 
ATOM     41  C   UNL     1      -6.085  -2.525  32.769  0.00  0.00    +0.089 C 
ENDBRANCH  31  36
ENDBRANCH   1  32
TORSDOF 5
ENDMDL
