MODEL 1
REMARK VINA RESULT:   -10.852      0.000      0.000
REMARK INTER + INTRA:         -15.129
REMARK INTER:                 -14.024
REMARK INTRA:                  -1.106
REMARK UNBOUND:                -1.106
REMARK  Name = =
REMARK  5 active torsions:
REMARK  status: ('A' for Active; 'I' for Inactive)
REMARK    1  A    between atoms: C_1  and  C_10
REMARK    2  A    between atoms: N_3  and  C_21
REMARK    3  A    between atoms: N_3  and  C_27
REMARK    4  A    between atoms: C_4  and  N_20
REMARK    5  A    between atoms: C_27  and  C_32
REMARK                            x       y       z     vdW  Elec       q    Type
REMARK                         _______ _______ _______ _____ _____    ______ ____
ROOT
ATOM      1  C   UNL     1     -20.170 -39.631  22.115  0.00  0.00    +0.238 C 
ATOM      2  O   UNL     1     -19.787 -38.419  22.268  0.00  0.00    -0.274 OA
ATOM      3  N   UNL     1     -21.367 -39.926  21.444  0.00  0.00    -0.237 N 
ENDROOT
BRANCH   1  10
ATOM      4  C   UNL     1     -17.763 -41.768  25.723  0.00  0.00    +0.086 C 
ATOM      5  C   UNL     1     -18.087 -41.418  24.412  0.00  0.00    +0.148 C 
ATOM      6  C   UNL     1     -19.296 -40.830  24.141  0.00  0.00    +0.025 C 
ATOM      7  C   UNL     1     -20.180 -40.587  25.150  0.00  0.00    -0.001 C 
ATOM      8  C   UNL     1     -19.875 -40.922  26.443  0.00  0.00    +0.001 C 
ATOM      9  C   UNL     1     -18.655 -41.522  26.739  0.00  0.00    +0.018 C 
ATOM     10  C   UNL     1     -19.293 -40.650  22.659  0.00  0.00    +0.146 C 
ATOM     11  C   UNL     1     -17.802 -40.411  22.441  0.00  0.00    +0.219 C 
ATOM     12  O   UNL     1     -17.339 -41.561  23.217  0.00  0.00    -0.474 OA
BRANCH   4  20
ATOM     13  N   UNL     1     -14.597 -43.208  27.241  0.00  0.00    -0.214 N 
ATOM     14  C   UNL     1     -13.695 -43.790  26.285  0.00  0.00    +0.112 C 
ATOM     15  C   UNL     1     -12.899 -44.398  27.427  0.00  0.00    +0.108 C 
ATOM     16  C   UNL     1     -13.716 -43.548  28.299  0.00  0.00    +0.234 C 
ATOM     17  O   UNL     1     -13.590 -43.282  29.544  0.00  0.00    -0.274 OA
ATOM     18  C   UNL     1     -15.860 -42.558  27.205  0.00  0.00    +0.314 C 
ATOM     19  O   UNL     1     -16.388 -42.148  28.260  0.00  0.00    -0.252 OA
ATOM     20  N   UNL     1     -16.506 -42.388  25.969  0.00  0.00    -0.265 N 
ATOM     21  H   UNL     1     -16.032 -42.737  25.180  0.00  0.00    +0.157 HD
ENDBRANCH   4  20
ENDBRANCH   1  10
BRANCH   3  22
ATOM     22  C   UNL     1     -21.746 -41.290  21.275  0.00  0.00    +0.056 C 
ATOM     23  C   UNL     1     -21.585 -42.031  20.139  0.00  0.00    +0.015 C 
ATOM     24  C   UNL     1     -21.971 -43.373  20.054  0.00  0.00    +0.001 C 
ATOM     25  C   UNL     1     -22.533 -44.003  21.123  0.00  0.00    +0.000 C 
ATOM     26  C   UNL     1     -22.709 -43.294  22.276  0.00  0.00    +0.001 C 
ATOM     27  C   UNL     1     -22.328 -41.979  22.353  0.00  0.00    +0.015 C 
ENDBRANCH   3  22
BRANCH   3  28
ATOM     28  C   UNL     1     -22.255 -38.956  20.835  0.00  0.00    +0.170 C 
ATOM     29  S   UNL     1     -21.822 -38.903  19.047  0.00  0.00    -0.103 S 
ATOM     30  C   UNL     1     -21.330 -37.154  18.991  0.00  0.00    +0.078 C 
ATOM     31  C   UNL     1     -22.044 -36.693  20.270  0.00  0.00    +0.082 C 
ATOM     32  N   UNL     1     -21.770 -37.664  21.260  0.00  0.00    -0.273 NA
ATOM     33  H   UNL     1     -22.232 -37.399  22.130  0.00  0.00    +0.126 HD
BRANCH  28  34
ATOM     34  C   UNL     1     -23.675 -39.159  21.041  0.00  0.00    +0.021 C 
ATOM     35  C   UNL     1     -24.248 -39.088  22.301  0.00  0.00    +0.017 C 
ATOM     36  C   UNL     1     -25.606 -39.265  22.493  0.00  0.00    +0.081 C 
ATOM     37  N   UNL     1     -26.419 -39.515  21.451  0.00  0.00    -0.244 NA
ATOM     38  C   UNL     1     -25.918 -39.594  20.208  0.00  0.00    +0.099 C 
ATOM     39  C   UNL     1     -24.567 -39.420  19.998  0.00  0.00    +0.020 C 
ATOM     40  C   UNL     1     -26.200 -39.217  23.742  0.00  0.00    +0.019 C 
ATOM     41  C   UNL     1     -25.411 -38.982  24.833  0.00  0.00    +0.001 C 
ATOM     42  C   UNL     1     -24.053 -38.800  24.682  0.00  0.00    +0.000 C 
ATOM     43  C   UNL     1     -23.495 -38.855  23.430  0.00  0.00    +0.001 C 
ATOM     44  C   UNL     1     -23.249 -38.564  25.806  0.00  0.00    +0.000 C 
ATOM     45  C   UNL     1     -23.780 -38.504  27.075  0.00  0.00    +0.000 C 
ATOM     46  C   UNL     1     -25.140 -38.690  27.189  0.00  0.00    +0.000 C 
ATOM     47  C   UNL     1     -25.957 -38.925  26.114  0.00  0.00    +0.000 C 
ENDBRANCH  28  34
ENDBRANCH   3  28
TORSDOF 5
ENDMDL
