REMARK  Name = =
REMARK  1 active torsions:
REMARK  status: ('A' for Active; 'I' for Inactive)
REMARK    1  A    between atoms: C_1  and  O_9
REMARK                            x       y       z     vdW  Elec       q    Type
REMARK                         _______ _______ _______ _____ _____    ______ ____
ROOT
ATOM      1  C   UNL     1      -6.213  -2.610  33.115  0.00  0.00    +0.113 C 
ATOM      2  C   UNL     1      -6.346  -1.105  32.893  0.00  0.00    +0.045 C 
ATOM      3  C   UNL     1      -7.073  -0.818  31.626  0.00  0.00    +0.056 C 
ATOM      4  C   UNL     1      -8.463  -0.219  31.880  0.00  0.00    +0.017 C 
ATOM      5  C   UNL     1      -9.144  -1.384  32.556  0.00  0.00    +0.017 C 
ATOM      6  C   UNL     1      -8.395  -2.589  32.028  0.00  0.00    +0.056 C 
ATOM      7  C   UNL     1      -7.598  -3.176  33.177  0.00  0.00    +0.045 C 
ATOM      8  N   UNL     1      -7.477  -2.095  31.017  0.00  0.00    -0.299 NA
ATOM      9  H   UNL     1      -6.682  -2.721  30.892  0.00  0.00    +0.123 HD
ENDROOT
BRANCH   1  10
ATOM     10  O   UNL     1      -5.416  -2.916  34.183  0.00  0.00    -0.384 OA
ATOM     11  H   UNL     1      -5.364  -3.880  34.282  0.00  0.00    +0.210 HD
ENDBRANCH   1  10
TORSDOF 1
