REMARK  Name = =
REMARK  5 active torsions:
REMARK  status: ('A' for Active; 'I' for Inactive)
REMARK    1  A    between atoms: C_1  and  O_9
REMARK    2  A    between atoms: C_7  and  N_10
REMARK    3  A    between atoms: N_10  and  C_11
REMARK    4  A    between atoms: C_16  and  C_17
REMARK    5  A    between atoms: C_17  and  O_18
REMARK                            x       y       z     vdW  Elec       q    Type
REMARK                         _______ _______ _______ _____ _____    ______ ____
ROOT
ATOM      1  C   UNL     1      -7.243   0.178  19.495  0.00  0.00    +0.131 C 
ATOM      2  C   UNL     1      -7.448   0.837  18.120  0.00  0.00    +0.047 C 
ATOM      3  C   UNL     1      -7.654   2.313  18.391  0.00  0.00    +0.057 C 
ATOM      4  C   UNL     1      -6.457   3.058  17.855  0.00  0.00    +0.017 C 
ATOM      5  C   UNL     1      -5.483   2.999  18.993  0.00  0.00    +0.019 C 
ATOM      6  C   UNL     1      -6.211   2.270  20.127  0.00  0.00    +0.075 C 
ATOM      7  C   UNL     1      -5.980   0.762  20.026  0.00  0.00    +0.111 C 
ATOM      8  N   UNL     1      -7.608   2.610  19.805  0.00  0.00    -0.298 NA
ATOM      9  H   UNL     1      -8.264   2.031  20.330  0.00  0.00    +0.123 HD
ENDROOT
BRANCH   1  10
ATOM     10  O   UNL     1      -7.316  -1.165  19.326  0.00  0.00    -0.383 OA
ATOM     11  H   UNL     1      -7.190  -1.606  20.181  0.00  0.00    +0.210 HD
ENDBRANCH   1  10
BRANCH   7  12
ATOM     12  N   UNL     1      -5.500   0.192  21.262  0.00  0.00    -0.331 N 
ATOM     13  H   UNL     1      -6.030   0.387  22.068  0.00  0.00    +0.147 HD
BRANCH  12  14
ATOM     14  C   UNL     1      -4.365  -0.607  21.442  0.00  0.00    +0.043 C 
ATOM     15  C   UNL     1      -4.484  -1.976  21.418  0.00  0.00    +0.014 C 
ATOM     16  C   UNL     1      -3.331  -2.726  21.577  0.00  0.00    +0.001 C 
ATOM     17  C   UNL     1      -2.089  -2.156  21.756  0.00  0.00    -0.000 C 
ATOM     18  C   UNL     1      -2.025  -0.771  21.772  0.00  0.00    -0.001 C 
ATOM     19  C   UNL     1      -3.134   0.024  21.620  0.00  0.00    +0.020 C 
BRANCH  19  20
ATOM     20  C   UNL     1      -3.041   1.517  21.641  0.00  0.00    +0.165 C 
BRANCH  20  21
ATOM     21  O   UNL     1      -1.886   1.947  22.257  0.00  0.00    -0.377 OA
ATOM     22  H   UNL     1      -1.859   2.917  22.253  0.00  0.00    +0.211 HD
ENDBRANCH  20  21
ENDBRANCH  19  20
ENDBRANCH  12  14
ENDBRANCH   7  12
TORSDOF 5
