REMARK  Name = =
REMARK  6 active torsions:
REMARK  status: ('A' for Active; 'I' for Inactive)
REMARK    1  A    between atoms: C_1  and  N_16
REMARK    2  A    between atoms: C_4  and  C_7
REMARK    3  A    between atoms: C_6  and  C_26
REMARK    4  A    between atoms: N_16  and  C_23
REMARK    5  A    between atoms: C_17  and  O_25
REMARK    6  A    between atoms: C_26  and  O_27
REMARK                            x       y       z     vdW  Elec       q    Type
REMARK                         _______ _______ _______ _____ _____    ______ ____
ROOT
ATOM      1  C   UNL     1      -7.268  -2.630  20.024  0.00  0.00    +0.043 C 
ATOM      2  C   UNL     1      -8.552  -3.128  19.929  0.00  0.00    +0.014 C 
ATOM      3  C   UNL     1      -8.834  -4.482  20.088  0.00  0.00    -0.003 C 
ATOM      4  C   UNL     1      -7.854  -5.408  20.348  0.00  0.00    -0.021 C 
ATOM      5  C   UNL     1      -6.574  -4.931  20.444  0.00  0.00    -0.005 C 
ATOM      6  C   UNL     1      -6.282  -3.592  20.289  0.00  0.00    +0.020 C 
ENDROOT
BRANCH   4   7
ATOM      7  C   UNL     1      -8.159  -6.832  20.512  0.00  0.00    +0.047 C 
ATOM      8  C   UNL     1      -9.391  -7.084  21.346  0.00  0.00    +0.093 C 
ATOM      9  N   UNL     1      -9.541  -8.519  21.486  0.00  0.00    -0.222 NA
ATOM     10  N   UNL     1      -8.973  -9.440  20.575  0.00  0.00    -0.198 N 
ATOM     11  C   UNL     1      -8.850 -10.778  20.584  0.00  0.00    +0.207 C 
ATOM     12  N   UNL     1      -8.218 -11.104  19.446  0.00  0.00    -0.127 NA
ATOM     13  N   UNL     1      -7.950 -10.016  18.742  0.00  0.00    -0.135 NA
ATOM     14  C   UNL     1      -8.420  -8.976  19.445  0.00  0.00    +0.149 C 
ATOM     15  C   UNL     1      -8.410  -7.525  19.166  0.00  0.00    +0.070 C 
ATOM     16  H   UNL     1     -10.545  -8.700  21.481  0.00  0.00    +0.146 HD
ENDBRANCH   4   7
BRANCH   1  17
ATOM     17  N   UNL     1      -6.884  -1.290  19.861  0.00  0.00    -0.331 N 
ATOM     18  H   UNL     1      -6.565  -1.060  18.958  0.00  0.00    +0.147 HD
BRANCH  17  25
ATOM     19  C   UNL     1      -7.007  -0.521  22.231  0.00  0.00    +0.131 C 
ATOM     20  C   UNL     1      -5.971   0.137  23.089  0.00  0.00    +0.047 C 
ATOM     21  C   UNL     1      -5.518   1.487  22.592  0.00  0.00    +0.057 C 
ATOM     22  C   UNL     1      -4.146   1.315  21.991  0.00  0.00    +0.017 C 
ATOM     23  C   UNL     1      -4.489   0.688  20.633  0.00  0.00    +0.019 C 
ATOM     24  C   UNL     1      -5.941   0.889  20.486  0.00  0.00    +0.075 C 
ATOM     25  C   UNL     1      -6.880  -0.215  20.781  0.00  0.00    +0.111 C 
ATOM     26  N   UNL     1      -6.286   1.963  21.459  0.00  0.00    -0.298 NA
ATOM     27  H   UNL     1      -7.286   1.993  21.659  0.00  0.00    +0.123 HD
BRANCH  19  28
ATOM     28  O   UNL     1      -8.264  -0.062  22.725  0.00  0.00    -0.383 OA
ATOM     29  H   UNL     1      -8.334  -0.267  23.670  0.00  0.00    +0.210 HD
ENDBRANCH  19  28
ENDBRANCH  17  25
ENDBRANCH   1  17
BRANCH   6  30
ATOM     30  C   UNL     1      -4.868  -3.138  20.410  0.00  0.00    +0.165 C 
BRANCH  30  31
ATOM     31  O   UNL     1      -4.029  -4.172  20.796  0.00  0.00    -0.377 OA
ATOM     32  H   UNL     1      -3.119  -3.842  20.865  0.00  0.00    +0.211 HD
ENDBRANCH  30  31
ENDBRANCH   6  30
TORSDOF 6
