REMARK  Name = =
REMARK  11 active torsions:
REMARK  status: ('A' for Active; 'I' for Inactive)
REMARK    1  A    between atoms: C_1  and  O_9
REMARK    2  A    between atoms: C_4  and  C_28
REMARK    3  A    between atoms: C_7  and  N_10
REMARK    4  A    between atoms: N_10  and  C_11
REMARK    5  A    between atoms: C_14  and  C_17
REMARK    6  A    between atoms: C_16  and  C_26
REMARK    7  A    between atoms: C_26  and  O_27
REMARK    8  A    between atoms: C_28  and  C_29
REMARK    9  A    between atoms: C_29  and  C_30
REMARK   10  A    between atoms: C_30  and  C_34
REMARK   11  A    between atoms: C_34  and  N_35
REMARK                            x       y       z     vdW  Elec       q    Type
REMARK                         _______ _______ _______ _____ _____    ______ ____
ROOT
ATOM      1  C   UNL     1     -10.905  -6.455  19.164  0.00  0.00    +0.131 C 
ATOM      2  C   UNL     1     -12.156  -7.278  19.015  0.00  0.00    +0.047 C 
ATOM      3  C   UNL     1     -12.970  -7.187  20.282  0.00  0.00    +0.056 C 
ATOM      4  C   UNL     1     -12.723  -8.459  21.054  0.00  0.00    +0.016 C 
ATOM      5  C   UNL     1     -11.784  -8.069  22.101  0.00  0.00    +0.019 C 
ATOM      6  C   UNL     1     -11.266  -6.711  21.649  0.00  0.00    +0.075 C 
ATOM      7  C   UNL     1     -10.241  -6.723  20.570  0.00  0.00    +0.111 C 
ATOM      8  N   UNL     1     -12.465  -6.132  21.107  0.00  0.00    -0.298 NA
ATOM      9  H   UNL     1     -13.126  -5.893  21.846  0.00  0.00    +0.123 HD
ENDROOT
BRANCH   1  10
ATOM     10  O   UNL     1     -11.375  -5.139  19.236  0.00  0.00    -0.383 OA
ATOM     11  H   UNL     1     -10.624  -4.533  19.334  0.00  0.00    +0.210 HD
ENDBRANCH   1  10
BRANCH   7  12
ATOM     12  N   UNL     1      -9.432  -5.558  20.674  0.00  0.00    -0.331 N 
ATOM     13  H   UNL     1      -9.796  -4.877  21.284  0.00  0.00    +0.147 HD
BRANCH  12  14
ATOM     14  C   UNL     1      -8.227  -5.191  20.083  0.00  0.00    +0.043 C 
ATOM     15  C   UNL     1      -7.131  -5.992  20.152  0.00  0.00    +0.014 C 
ATOM     16  C   UNL     1      -5.866  -5.533  19.834  0.00  0.00    -0.003 C 
ATOM     17  C   UNL     1      -5.729  -4.227  19.425  0.00  0.00    -0.021 C 
ATOM     18  C   UNL     1      -6.822  -3.378  19.312  0.00  0.00    -0.005 C 
ATOM     19  C   UNL     1      -8.051  -3.878  19.657  0.00  0.00    +0.020 C 
BRANCH  17  20
ATOM     20  C   UNL     1      -4.340  -3.630  19.526  0.00  0.00    +0.047 C 
ATOM     21  C   UNL     1      -3.480  -4.613  20.240  0.00  0.00    +0.093 C 
ATOM     22  N   UNL     1      -2.317  -4.022  20.915  0.00  0.00    -0.222 NA
ATOM     23  N   UNL     1      -2.163  -2.656  21.083  0.00  0.00    -0.198 N 
ATOM     24  C   UNL     1      -1.140  -1.876  21.354  0.00  0.00    +0.207 C 
ATOM     25  N   UNL     1      -1.612  -0.646  21.402  0.00  0.00    -0.127 NA
ATOM     26  N   UNL     1      -2.924  -0.587  21.172  0.00  0.00    -0.135 NA
ATOM     27  C   UNL     1      -3.254  -1.890  20.965  0.00  0.00    +0.149 C 
ATOM     28  C   UNL     1      -4.534  -2.510  20.648  0.00  0.00    +0.070 C 
ATOM     29  H   UNL     1      -1.498  -4.336  20.394  0.00  0.00    +0.146 HD
ENDBRANCH  17  20
BRANCH  19  30
ATOM     30  C   UNL     1      -9.288  -3.042  19.678  0.00  0.00    +0.165 C 
BRANCH  30  31
ATOM     31  O   UNL     1      -9.599  -2.491  18.471  0.00  0.00    -0.377 OA
ATOM     32  H   UNL     1     -10.409  -1.964  18.555  0.00  0.00    +0.211 HD
ENDBRANCH  30  31
ENDBRANCH  19  30
ENDBRANCH  12  14
ENDBRANCH   7  12
BRANCH   4  33
ATOM     33  C   UNL     1     -14.035  -9.131  21.296  0.00  0.00    +0.002 C 
BRANCH  33  34
ATOM     34  C   UNL     1     -15.148  -8.169  21.698  0.00  0.00    +0.006 C 
BRANCH  34  35
ATOM     35  C   UNL     1     -16.494  -8.753  21.375  0.00  0.00    +0.069 C 
ATOM     36  C   UNL     1     -17.251  -9.545  22.346  0.00  0.00    +0.146 C 
ATOM     37  O   UNL     1     -17.657  -8.353  22.977  0.00  0.00    -0.354 OA
ATOM     38  C   UNL     1     -17.572  -7.717  21.775  0.00  0.00    +0.146 C 
BRANCH  35  39
ATOM     39  C   UNL     1     -16.699  -9.023  19.887  0.00  0.00    +0.070 C 
BRANCH  39  40
ATOM     40  N   UNL     1     -16.609  -7.771  19.168  0.00  0.00    -0.321 NA
ATOM     41  H   UNL     1     -16.745  -7.941  18.171  0.00  0.00    +0.119 HD
ATOM     42  H   UNL     1     -15.689  -7.357  19.320  0.00  0.00    +0.119 HD
ENDBRANCH  39  40
ENDBRANCH  35  39
ENDBRANCH  34  35
ENDBRANCH  33  34
ENDBRANCH   4  33
TORSDOF 11
