REMARK  Name = =
REMARK  12 active torsions:
REMARK  status: ('A' for Active; 'I' for Inactive)
REMARK    1  A    between atoms: C_1  and  O_9
REMARK    2  A    between atoms: C_4  and  C_28
REMARK    3  A    between atoms: C_7  and  N_10
REMARK    4  A    between atoms: N_10  and  C_11
REMARK    5  A    between atoms: C_14  and  C_17
REMARK    6  A    between atoms: C_16  and  C_26
REMARK    7  A    between atoms: C_26  and  O_27
REMARK    8  A    between atoms: C_28  and  C_29
REMARK    9  A    between atoms: C_29  and  C_30
REMARK   10  A    between atoms: C_30  and  C_34
REMARK   11  A    between atoms: C_34  and  N_35
REMARK   12  A    between atoms: N_35  and  C_36
REMARK                            x       y       z     vdW  Elec       q    Type
REMARK                         _______ _______ _______ _____ _____    ______ ____
ROOT
ATOM      1  C   UNL     1     -11.381  -6.068  18.008  0.00  0.00    +0.131 C 
ATOM      2  C   UNL     1     -10.864  -7.198  17.219  0.00  0.00    +0.047 C 
ATOM      3  C   UNL     1      -9.436  -7.589  17.395  0.00  0.00    +0.056 C 
ATOM      4  C   UNL     1      -9.273  -8.513  18.577  0.00  0.00    +0.016 C 
ATOM      5  C   UNL     1      -9.658  -7.516  19.700  0.00  0.00    +0.019 C 
ATOM      6  C   UNL     1      -9.172  -6.196  19.142  0.00  0.00    +0.075 C 
ATOM      7  C   UNL     1     -10.362  -5.285  18.804  0.00  0.00    +0.111 C 
ATOM      8  N   UNL     1      -8.579  -6.478  17.849  0.00  0.00    -0.298 NA
ATOM      9  H   UNL     1      -8.641  -5.675  17.223  0.00  0.00    +0.123 HD
ENDROOT
BRANCH   1  10
ATOM     10  O   UNL     1     -12.138  -5.194  17.187  0.00  0.00    -0.383 OA
ATOM     11  H   UNL     1     -12.471  -4.456  17.721  0.00  0.00    +0.210 HD
ENDBRANCH   1  10
BRANCH   7  12
ATOM     12  N   UNL     1     -10.931  -4.718  20.000  0.00  0.00    -0.331 N 
ATOM     13  H   UNL     1     -11.820  -5.031  20.283  0.00  0.00    +0.147 HD
BRANCH  12  14
ATOM     14  C   UNL     1     -10.288  -3.740  20.790  0.00  0.00    +0.043 C 
ATOM     15  C   UNL     1      -9.253  -2.960  20.332  0.00  0.00    +0.014 C 
ATOM     16  C   UNL     1      -8.639  -1.980  21.114  0.00  0.00    -0.003 C 
ATOM     17  C   UNL     1      -9.102  -1.799  22.401  0.00  0.00    -0.021 C 
ATOM     18  C   UNL     1     -10.141  -2.572  22.880  0.00  0.00    -0.005 C 
ATOM     19  C   UNL     1     -10.724  -3.530  22.079  0.00  0.00    +0.020 C 
BRANCH  17  20
ATOM     20  C   UNL     1      -8.440  -0.743  23.244  0.00  0.00    +0.047 C 
ATOM     21  C   UNL     1      -8.854   0.612  22.779  0.00  0.00    +0.093 C 
ATOM     22  N   UNL     1      -7.945   1.224  21.847  0.00  0.00    -0.222 NA
ATOM     23  N   UNL     1      -6.584   1.158  22.130  0.00  0.00    -0.198 N 
ATOM     24  C   UNL     1      -5.536   1.966  21.818  0.00  0.00    +0.207 C 
ATOM     25  N   UNL     1      -4.449   1.400  22.361  0.00  0.00    -0.127 NA
ATOM     26  N   UNL     1      -4.818   0.305  22.972  0.00  0.00    -0.135 NA
ATOM     27  C   UNL     1      -6.141   0.118  22.851  0.00  0.00    +0.149 C 
ATOM     28  C   UNL     1      -6.978  -0.973  23.375  0.00  0.00    +0.070 C 
ATOM     29  H   UNL     1      -8.090   0.776  20.942  0.00  0.00    +0.146 HD
ENDBRANCH  17  20
BRANCH  19  30
ATOM     30  C   UNL     1     -11.837  -4.359  22.593  0.00  0.00    +0.165 C 
BRANCH  30  31
ATOM     31  O   UNL     1     -12.158  -4.052  23.907  0.00  0.00    -0.377 OA
ATOM     32  H   UNL     1     -12.889  -4.617  24.202  0.00  0.00    +0.211 HD
ENDBRANCH  30  31
ENDBRANCH  19  30
ENDBRANCH  12  14
ENDBRANCH   7  12
BRANCH   4  33
ATOM     33  C   UNL     1     -10.146  -9.697  18.608  0.00  0.00    +0.002 C 
BRANCH  33  34
ATOM     34  C   UNL     1      -9.959 -10.820  17.694  0.00  0.00    +0.007 C 
BRANCH  34  35
ATOM     35  C   UNL     1      -8.768 -11.699  17.839  0.00  0.00    +0.073 C 
ATOM     36  C   UNL     1      -7.509 -11.074  17.158  0.00  0.00    +0.146 C 
ATOM     37  O   UNL     1      -7.083 -12.409  16.961  0.00  0.00    -0.353 OA
ATOM     38  C   UNL     1      -8.463 -12.710  16.789  0.00  0.00    +0.146 C 
BRANCH  35  39
ATOM     39  C   UNL     1      -8.372 -12.068  19.222  0.00  0.00    +0.093 C 
BRANCH  39  40
ATOM     40  N   UNL     1      -9.249 -12.634  20.135  0.00  0.00    -0.317 N 
ATOM     41  H   UNL     1      -9.206 -12.216  21.025  0.00  0.00    +0.148 HD
BRANCH  40  42
ATOM     42  C   UNL     1     -10.183 -13.674  20.059  0.00  0.00    +0.145 C 
ATOM     43  C   UNL     1     -10.625 -14.448  19.043  0.00  0.00    +0.098 C 
ATOM     44  N   UNL     1     -11.528 -15.366  19.494  0.00  0.00    -0.292 N 
ATOM     45  C   UNL     1     -11.658 -15.173  20.801  0.00  0.00    +0.166 C 
ATOM     46  N   UNL     1     -10.869 -14.172  21.161  0.00  0.00    -0.212 NA
ATOM     47  H   UNL     1     -11.995 -16.043  18.953  0.00  0.00    +0.154 HD
ENDBRANCH  40  42
ENDBRANCH  39  40
ENDBRANCH  35  39
ENDBRANCH  34  35
ENDBRANCH  33  34
ENDBRANCH   4  33
TORSDOF 12
