REMARK  Name = =
REMARK  0 active torsions:
REMARK  status: ('A' for Active; 'I' for Inactive)
REMARK                            x       y       z     vdW  Elec       q    Type
REMARK                         _______ _______ _______ _____ _____    ______ ____
ROOT
ATOM      1  N   UNL     1      51.233 157.129  29.419  0.00  0.00    -0.278 N 
ATOM      2  C   UNL     1      52.360 157.987  29.507  0.00  0.00    +0.083 C 
ATOM      3  C   UNL     1      52.434 159.320  29.909  0.00  0.00    +0.155 C 
ATOM      4  N   UNL     1      53.588 160.008  29.934  0.00  0.00    -0.227 NA
ATOM      5  C   UNL     1      54.764 159.455  29.569  0.00  0.00    +0.100 C 
ATOM      6  C   UNL     1      54.740 158.120  29.159  0.00  0.00    +0.022 C 
ATOM      7  C   UNL     1      53.548 157.410  29.134  0.00  0.00    +0.019 C 
ATOM      8  N   UNL     1      51.299 160.096  30.328  0.00  0.00    -0.214 N 
ATOM      9  C   UNL     1      50.128 159.666  31.008  0.00  0.00    +0.064 C 
ATOM     10  C   UNL     1      49.508 158.442  30.772  0.00  0.00    +0.068 C 
ATOM     11  C   UNL     1      48.366 158.183  31.499  0.00  0.00    +0.006 C 
ATOM     12  C   UNL     1      47.879 159.095  32.404  0.00  0.00    +0.000 C 
ATOM     13  C   UNL     1      48.510 160.309  32.628  0.00  0.00    +0.001 C 
ATOM     14  C   UNL     1      49.649 160.585  31.914  0.00  0.00    +0.015 C 
ATOM     15  C   UNL     1      49.887 157.326  29.896  0.00  0.00    +0.251 C 
ATOM     16  O   UNL     1      49.002 156.536  29.565  0.00  0.00    -0.270 OA
ATOM     17  C   UNL     1      51.375 161.468  30.043  0.00  0.00    +0.312 C 
ATOM     18  O   UNL     1      50.441 162.255  30.249  0.00  0.00    -0.264 OA
ATOM     19  H   UNL     1      51.395 156.271  28.964  0.00  0.00    +0.155 HD
ENDROOT
TORSDOF 0
