REMARK  Name = =
REMARK  5 active torsions:
REMARK  status: ('A' for Active; 'I' for Inactive)
REMARK    1  A    between atoms: N_1  and  C_19
REMARK    2  A    between atoms: C_19  and  O_25
REMARK    3  A    between atoms: O_25  and  P_26
REMARK    4  A    between atoms: P_26  and  O_28
REMARK    5  A    between atoms: P_26  and  O_29
REMARK                            x       y       z     vdW  Elec       q    Type
REMARK                         _______ _______ _______ _____ _____    ______ ____
ROOT
ATOM      1  N   UNL     1      51.585 160.396  30.030  0.00  0.00    -0.232 N 
ATOM      2  C   UNL     1      50.196 160.246  30.081  0.00  0.00    +0.088 C 
ATOM      3  C   UNL     1      49.395 159.102  30.194  0.00  0.00    +0.155 C 
ATOM      4  N   UNL     1      48.069 159.224  30.252  0.00  0.00    -0.227 NA
ATOM      5  C   UNL     1      47.451 160.413  30.205  0.00  0.00    +0.100 C 
ATOM      6  C   UNL     1      48.173 161.577  30.093  0.00  0.00    +0.022 C 
ATOM      7  C   UNL     1      49.566 161.456  30.032  0.00  0.00    +0.019 C 
ATOM      8  N   UNL     1      49.854 157.751  30.248  0.00  0.00    -0.214 N 
ATOM      9  C   UNL     1      50.999 157.276  29.562  0.00  0.00    +0.064 C 
ATOM     10  C   UNL     1      52.161 157.946  29.210  0.00  0.00    +0.068 C 
ATOM     11  C   UNL     1      53.135 157.264  28.550  0.00  0.00    +0.006 C 
ATOM     12  C   UNL     1      52.977 155.923  28.231  0.00  0.00    +0.000 C 
ATOM     13  C   UNL     1      51.813 155.260  28.586  0.00  0.00    +0.001 C 
ATOM     14  C   UNL     1      50.820 155.938  29.252  0.00  0.00    +0.015 C 
ATOM     15  C   UNL     1      52.445 159.350  29.476  0.00  0.00    +0.256 C 
ATOM     16  O   UNL     1      53.617 159.703  29.177  0.00  0.00    -0.269 OA
ATOM     17  C   UNL     1      49.078 156.879  31.039  0.00  0.00    +0.312 C 
ATOM     18  O   UNL     1      48.038 157.295  31.608  0.00  0.00    -0.264 OA
ENDROOT
BRANCH   1  19
ATOM     19  C   UNL     1      52.241 161.473  30.539  0.00  0.00    +0.172 C 
ATOM     20  C   UNL     1      52.709 162.749  30.248  0.00  0.00    +0.065 C 
ATOM     21  C   UNL     1      53.276 163.440  31.512  0.00  0.00    +0.073 C 
ATOM     22  N   UNL     1      52.121 163.838  32.338  0.00  0.00    -0.297 NA
ATOM     23  C   UNL     1      51.706 162.515  32.824  0.00  0.00    +0.073 C 
ATOM     24  C   UNL     1      51.170 161.786  31.679  0.00  0.00    +0.065 C 
ATOM     25  H   UNL     1      51.392 164.286  31.783  0.00  0.00    +0.123 HD
BRANCH  19  26
ATOM     26  O   UNL     1      53.295 160.910  31.301  0.00  0.00    -0.260 OA
BRANCH  26  27
ATOM     27  P   UNL     1      54.801 161.557  30.946  0.00  0.00    +0.474 P 
ATOM     28  O   UNL     1      55.751 160.399  30.566  0.00  0.00    -0.227 OA
BRANCH  27  29
ATOM     29  O   UNL     1      55.563 162.351  32.202  0.00  0.00    -0.303 OA
ATOM     30  H   UNL     1      55.570 161.782  32.987  0.00  0.00    +0.222 HD
ENDBRANCH  27  29
BRANCH  27  31
ATOM     31  O   UNL     1      54.762 162.520  29.535  0.00  0.00    -0.303 OA
ATOM     32  H   UNL     1      54.181 163.283  29.680  0.00  0.00    +0.222 HD
ENDBRANCH  27  31
ENDBRANCH  26  27
ENDBRANCH  19  26
ENDBRANCH   1  19
TORSDOF 5
