MODEL 1
REMARK VINA RESULT:    -8.861      0.000      0.000
REMARK INTER + INTRA:         -14.668
REMARK INTER:                 -13.523
REMARK INTRA:                  -1.145
REMARK UNBOUND:                -1.145
REMARK  Name = =
REMARK  11 active torsions:
REMARK  status: ('A' for Active; 'I' for Inactive)
REMARK    1  A    between atoms: C_1  and  C_21
REMARK    2  A    between atoms: C_6  and  S_29
REMARK    3  A    between atoms: C_12  and  N_15
REMARK    4  A    between atoms: C_23  and  O_28
REMARK    5  A    between atoms: C_24  and  O_27
REMARK    6  A    between atoms: S_29  and  S_30
REMARK    7  A    between atoms: S_30  and  S_31
REMARK    8  A    between atoms: S_31  and  N_32
REMARK    9  A    between atoms: N_32  and  P_33
REMARK   10  A    between atoms: P_33  and  N_35
REMARK   11  A    between atoms: P_33  and  O_36
REMARK                            x       y       z     vdW  Elec       q    Type
REMARK                         _______ _______ _______ _____ _____    ______ ____
ROOT
ATOM      1  C   UNL     1       2.594  -5.051  27.096  0.00  0.00    +0.003 C 
ATOM      2  C   UNL     1       1.477  -5.819  27.338  0.00  0.00    -0.021 C 
ATOM      3  C   UNL     1       1.661  -7.163  27.593  0.00  0.00    -0.021 C 
ATOM      4  C   UNL     1       2.942  -7.698  27.599  0.00  0.00    -0.004 C 
ATOM      5  C   UNL     1       4.045  -6.919  27.356  0.00  0.00    +0.007 C 
ATOM      6  C   UNL     1       3.866  -5.577  27.102  0.00  0.00    +0.036 C 
ATOM      7  C   UNL     1       0.533  -8.076  27.868  0.00  0.00    +0.052 C 
ATOM      8  C   UNL     1      -0.502  -7.325  28.665  0.00  0.00    -0.020 C 
ATOM      9  C   UNL     1      -0.672  -5.991  28.379  0.00  0.00    -0.021 C 
ATOM     10  C   UNL     1      -1.627  -5.341  29.131  0.00  0.00    -0.003 C 
ATOM     11  C   UNL     1      -2.373  -5.995  30.120  0.00  0.00    +0.014 C 
ATOM     12  C   UNL     1      -2.190  -7.333  30.395  0.00  0.00    +0.048 C 
ATOM     13  C   UNL     1      -1.230  -7.982  29.638  0.00  0.00    +0.010 C 
ATOM     14  C   UNL     1       0.100  -5.265  27.334  0.00  0.00    +0.052 C 
ENDROOT
BRANCH  12  15
ATOM     15  N   UNL     1      -2.941  -7.979  31.390  0.00  0.00    -0.303 N 
ATOM     16  C   UNL     1      -4.303  -7.639  31.714  0.00  0.00    +0.123 C 
ATOM     17  C   UNL     1      -4.288  -7.182  33.157  0.00  0.00    +0.164 C 
ATOM     18  O   UNL     1      -3.813  -8.255  33.916  0.00  0.00    -0.350 OA
ATOM     19  C   UNL     1      -2.464  -8.534  33.630  0.00  0.00    +0.164 C 
ATOM     20  C   UNL     1      -2.422  -9.052  32.208  0.00  0.00    +0.123 C 
ENDBRANCH  12  15
BRANCH   1  21
ATOM     21  C   UNL     1       2.424  -3.641  26.828  0.00  0.00    +0.003 C 
ATOM     22  C   UNL     1       2.430  -2.761  27.877  0.00  0.00    +0.040 C 
ATOM     23  C   UNL     1       2.267  -1.419  27.615  0.00  0.00    +0.167 C 
ATOM     24  C   UNL     1       2.097  -0.922  26.324  0.00  0.00    +0.167 C 
ATOM     25  C   UNL     1       2.091  -1.820  25.281  0.00  0.00    +0.040 C 
ATOM     26  C   UNL     1       2.254  -3.163  25.551  0.00  0.00    +0.003 C 
BRANCH  24  27
ATOM     27  O   UNL     1       1.937   0.457  26.115  0.00  0.00    -0.503 OA
ATOM     28  H   UNL     1       2.351   1.070  26.691  0.00  0.00    +0.292 HD
ENDBRANCH  24  27
BRANCH  23  29
ATOM     29  O   UNL     1       2.272  -0.510  28.663  0.00  0.00    -0.503 OA
ATOM     30  H   UNL     1       1.651   0.192  28.677  0.00  0.00    +0.292 HD
ENDBRANCH  23  29
ENDBRANCH   1  21
BRANCH   6  31
ATOM     31  S   UNL     1       5.303  -4.515  26.777  0.00  0.00    -0.043 S 
BRANCH  31  32
ATOM     32  S   UNL     1       6.221  -5.171  24.965  0.00  0.00    -0.002 S 
BRANCH  32  33
ATOM     33  S   UNL     1       6.454  -3.553  23.603  0.00  0.00    +0.010 S 
BRANCH  33  34
ATOM     34  N   UNL     1       7.566  -2.352  24.238  0.00  0.00    -0.167 NA
ATOM     35  H   UNL     1       8.032  -1.899  23.452  0.00  0.00    +0.147 HD
BRANCH  34  36
ATOM     36  P   UNL     1       6.808  -1.131  25.198  0.00  0.00    +0.348 P 
ATOM     37  O   UNL     1       5.295  -1.249  25.044  0.00  0.00    -0.254 OA
BRANCH  36  38
ATOM     38  N   UNL     1       7.245   0.481  24.675  0.00  0.00    -0.246 NA
ATOM     39  H   UNL     1       8.155   0.729  25.064  0.00  0.00    +0.129 HD
ATOM     40  H   UNL     1       6.544   1.146  25.001  0.00  0.00    +0.129 HD
ENDBRANCH  36  38
BRANCH  36  41
ATOM     41  O   UNL     1       7.181  -1.278  26.842  0.00  0.00    -0.321 OA
ATOM     42  H   UNL     1       6.509  -0.817  27.369  0.00  0.00    +0.220 HD
ENDBRANCH  36  41
ENDBRANCH  34  36
ENDBRANCH  33  34
ENDBRANCH  32  33
ENDBRANCH  31  32
ENDBRANCH   6  31
TORSDOF 11
ENDMDL
