REMARK  Name = =
REMARK  11 active torsions:
REMARK  status: ('A' for Active; 'I' for Inactive)
REMARK    1  A    between atoms: C_1  and  C_21
REMARK    2  A    between atoms: C_6  and  S_29
REMARK    3  A    between atoms: C_12  and  N_15
REMARK    4  A    between atoms: C_23  and  O_28
REMARK    5  A    between atoms: C_24  and  O_27
REMARK    6  A    between atoms: S_29  and  S_30
REMARK    7  A    between atoms: S_30  and  S_31
REMARK    8  A    between atoms: S_31  and  N_32
REMARK    9  A    between atoms: N_32  and  P_33
REMARK   10  A    between atoms: P_33  and  N_35
REMARK   11  A    between atoms: P_33  and  O_36
REMARK                            x       y       z     vdW  Elec       q    Type
REMARK                         _______ _______ _______ _____ _____    ______ ____
ROOT
ATOM      1  C   UNL     1       0.246  -4.652  28.376  0.00  0.00    +0.003 C 
ATOM      2  C   UNL     1       1.003  -5.521  27.622  0.00  0.00    -0.021 C 
ATOM      3  C   UNL     1       1.901  -4.981  26.723  0.00  0.00    -0.021 C 
ATOM      4  C   UNL     1       2.017  -3.603  26.603  0.00  0.00    -0.004 C 
ATOM      5  C   UNL     1       1.255  -2.751  27.362  0.00  0.00    +0.007 C 
ATOM      6  C   UNL     1       0.358  -3.285  28.261  0.00  0.00    +0.036 C 
ATOM      7  C   UNL     1       2.763  -5.821  25.868  0.00  0.00    +0.052 C 
ATOM      8  C   UNL     1       3.174  -7.037  26.657  0.00  0.00    -0.020 C 
ATOM      9  C   UNL     1       2.254  -7.560  27.534  0.00  0.00    -0.021 C 
ATOM     10  C   UNL     1       2.670  -8.671  28.237  0.00  0.00    -0.003 C 
ATOM     11  C   UNL     1       3.944  -9.228  28.069  0.00  0.00    +0.014 C 
ATOM     12  C   UNL     1       4.856  -8.691  27.186  0.00  0.00    +0.048 C 
ATOM     13  C   UNL     1       4.434  -7.576  26.483  0.00  0.00    +0.010 C 
ATOM     14  C   UNL     1       0.891  -6.997  27.736  0.00  0.00    +0.052 C 
ENDROOT
BRANCH  12  15
ATOM     15  N   UNL     1       6.131  -9.256  27.027  0.00  0.00    -0.303 N 
ATOM     16  C   UNL     1       6.433 -10.640  27.286  0.00  0.00    +0.123 C 
ATOM     17  C   UNL     1       7.457 -10.643  28.402  0.00  0.00    +0.164 C 
ATOM     18  O   UNL     1       8.567  -9.935  27.933  0.00  0.00    -0.350 OA
ATOM     19  C   UNL     1       8.270  -8.573  27.744  0.00  0.00    +0.164 C 
ATOM     20  C   UNL     1       7.287  -8.502  26.594  0.00  0.00    +0.123 C 
ENDBRANCH  12  15
BRANCH   1  21
ATOM     21  C   UNL     1      -0.699  -5.197  29.324  0.00  0.00    +0.003 C 
ATOM     22  C   UNL     1      -0.281  -6.167  30.195  0.00  0.00    +0.040 C 
ATOM     23  C   UNL     1      -1.186  -6.682  31.096  0.00  0.00    +0.167 C 
ATOM     24  C   UNL     1      -2.511  -6.253  31.156  0.00  0.00    +0.167 C 
ATOM     25  C   UNL     1      -2.916  -5.278  30.273  0.00  0.00    +0.040 C 
ATOM     26  C   UNL     1      -2.004  -4.768  29.373  0.00  0.00    +0.003 C 
BRANCH  24  27
ATOM     27  O   UNL     1      -3.391  -6.812  32.097  0.00  0.00    -0.503 OA
ATOM     28  H   UNL     1      -3.088  -7.475  32.686  0.00  0.00    +0.292 HD
ENDBRANCH  24  27
BRANCH  23  29
ATOM     29  O   UNL     1      -0.783  -7.665  31.988  0.00  0.00    -0.503 OA
ATOM     30  H   UNL     1       0.101  -7.976  31.975  0.00  0.00    +0.292 HD
ENDBRANCH  23  29
ENDBRANCH   1  21
BRANCH   6  31
ATOM     31  S   UNL     1      -0.666  -2.188  29.283  0.00  0.00    -0.043 S 
BRANCH  31  32
ATOM     32  S   UNL     1      -2.051  -1.186  28.005  0.00  0.00    -0.002 S 
BRANCH  32  33
ATOM     33  S   UNL     1      -2.274  -2.227  26.163  0.00  0.00    +0.010 S 
BRANCH  33  34
ATOM     34  N   UNL     1      -1.521  -1.342  24.846  0.00  0.00    -0.167 NA
ATOM     35  H   UNL     1      -0.573  -1.698  24.721  0.00  0.00    +0.147 HD
BRANCH  34  36
ATOM     36  P   UNL     1      -2.357  -1.479  23.340  0.00  0.00    +0.348 P 
ATOM     37  O   UNL     1      -1.461  -0.947  22.226  0.00  0.00    -0.254 OA
BRANCH  36  38
ATOM     38  N   UNL     1      -3.821  -0.520  23.312  0.00  0.00    -0.246 NA
ATOM     39  H   UNL     1      -3.596   0.450  23.534  0.00  0.00    +0.129 HD
ATOM     40  H   UNL     1      -4.479  -0.883  24.002  0.00  0.00    +0.129 HD
ENDBRANCH  36  38
BRANCH  36  41
ATOM     41  O   UNL     1      -2.762  -3.080  22.969  0.00  0.00    -0.321 OA
ATOM     42  H   UNL     1      -1.961  -3.627  22.980  0.00  0.00    +0.220 HD
ENDBRANCH  36  41
ENDBRANCH  34  36
ENDBRANCH  33  34
ENDBRANCH  32  33
ENDBRANCH  31  32
ENDBRANCH   6  31
TORSDOF 11
