MODEL 1
REMARK VINA RESULT:    -8.139      0.000      0.000
REMARK INTER + INTRA:         -14.107
REMARK INTER:                 -13.135
REMARK INTRA:                  -0.972
REMARK UNBOUND:                -0.972
REMARK  Name = =
REMARK  12 active torsions:
REMARK  status: ('A' for Active; 'I' for Inactive)
REMARK    1  A    between atoms: S_1  and  P_2
REMARK    2  A    between atoms: S_1  and  C_14
REMARK    3  A    between atoms: P_2  and  O_18
REMARK    4  A    between atoms: P_2  and  O_27
REMARK    5  A    between atoms: O_18  and  P_19
REMARK    6  A    between atoms: P_19  and  O_21
REMARK    7  A    between atoms: P_19  and  O_22
REMARK    8  A    between atoms: O_22  and  P_23
REMARK    9  A    between atoms: P_23  and  O_25
REMARK   10  A    between atoms: P_23  and  O_26
REMARK   11  A    between atoms: O_27  and  S_28
REMARK   12  A    between atoms: S_28  and  N_29
REMARK                            x       y       z     vdW  Elec       q    Type
REMARK                         _______ _______ _______ _____ _____    ______ ____
ROOT
ATOM      1  P   UNL     1      51.889 154.772  28.024  0.00  0.00    +0.404 P 
ATOM      2  O   UNL     1      53.183 155.069  28.781  0.00  0.00    -0.245 OA
ENDROOT
BRANCH   1   3
ATOM      3  S   UNL     1      50.536 155.610  29.081  0.00  0.00    -0.081 S 
ATOM      4  H   UNL     1      50.290 154.879  30.202  0.00  0.00    +0.108 HD
BRANCH   3  15
ATOM      5  C   UNL     1      49.952 160.203  31.327  0.00  0.00    +0.000 C 
ATOM      6  C   UNL     1      50.753 159.333  30.618  0.00  0.00    +0.000 C 
ATOM      7  C   UNL     1      50.347 158.072  30.234  0.00  0.00    +0.005 C 
ATOM      8  C   UNL     1      49.066 157.667  30.584  0.00  0.00    +0.000 C 
ATOM      9  C   UNL     1      48.230 158.505  31.294  0.00  0.00    +0.000 C 
ATOM     10  C   UNL     1      48.671 159.758  31.659  0.00  0.00    +0.000 C 
ATOM     11  C   UNL     1      47.832 160.604  32.373  0.00  0.00    +0.000 C 
ATOM     12  C   UNL     1      48.236 161.865  32.757  0.00  0.00    +0.000 C 
ATOM     13  C   UNL     1      49.503 162.254  32.407  0.00  0.00    +0.000 C 
ATOM     14  C   UNL     1      50.378 161.460  31.701  0.00  0.00    +0.000 C 
ATOM     15  C   UNL     1      51.180 157.204  29.514  0.00  0.00    +0.023 C 
ATOM     16  C   UNL     1      52.448 157.592  29.162  0.00  0.00    +0.006 C 
ATOM     17  C   UNL     1      52.880 158.841  29.529  0.00  0.00    +0.000 C 
ATOM     18  C   UNL     1      52.034 159.700  30.252  0.00  0.00    +0.000 C 
ENDBRANCH   3  15
ENDBRANCH   1   3
BRANCH   1  19
ATOM     19  O   UNL     1      51.668 153.107  27.950  0.00  0.00    -0.200 OA
BRANCH  19  20
ATOM     20  P   UNL     1      52.404 152.414  26.604  0.00  0.00    +0.491 P 
ATOM     21  O   UNL     1      52.134 150.928  26.533  0.00  0.00    -0.226 OA
BRANCH  20  22
ATOM     22  O   UNL     1      51.957 153.182  25.168  0.00  0.00    -0.302 OA
ATOM     23  H   UNL     1      52.010 154.143  25.286  0.00  0.00    +0.222 HD
ENDBRANCH  20  22
BRANCH  20  24
ATOM     24  O   UNL     1      54.080 152.602  26.790  0.00  0.00    -0.186 OA
BRANCH  24  25
ATOM     25  P   UNL     1      54.827 152.044  25.400  0.00  0.00    +0.481 P 
ATOM     26  O   UNL     1      56.334 152.059  25.594  0.00  0.00    -0.227 OA
BRANCH  25  27
ATOM     27  O   UNL     1      54.467 153.081  24.108  0.00  0.00    -0.302 OA
ATOM     28  H   UNL     1      54.766 152.679  23.277  0.00  0.00    +0.222 HD
ENDBRANCH  25  27
BRANCH  25  29
ATOM     29  O   UNL     1      54.379 150.462  25.007  0.00  0.00    -0.302 OA
ATOM     30  H   UNL     1      53.762 150.125  25.676  0.00  0.00    +0.222 HD
ENDBRANCH  25  29
ENDBRANCH  24  25
ENDBRANCH  20  24
ENDBRANCH  19  20
ENDBRANCH   1  19
BRANCH   1  31
ATOM     31  O   UNL     1      51.917 155.485  26.508  0.00  0.00    -0.204 OA
BRANCH  31  32
ATOM     32  S   UNL     1      53.400 156.308  26.241  0.00  0.00    +0.189 S 
BRANCH  32  33
ATOM     33  N   UNL     1      54.019 155.773  24.695  0.00  0.00    +0.035 NA
ATOM     34  O   UNL     1      55.142 155.997  24.337  0.00  0.00    -0.134 OA
ENDBRANCH  32  33
ENDBRANCH  31  32
ENDBRANCH   1  31
TORSDOF 12
ENDMDL
