REMARK  Name = =
REMARK  12 active torsions:
REMARK  status: ('A' for Active; 'I' for Inactive)
REMARK    1  A    between atoms: S_1  and  P_2
REMARK    2  A    between atoms: S_1  and  C_14
REMARK    3  A    between atoms: P_2  and  O_18
REMARK    4  A    between atoms: P_2  and  O_27
REMARK    5  A    between atoms: O_18  and  P_19
REMARK    6  A    between atoms: P_19  and  O_21
REMARK    7  A    between atoms: P_19  and  O_22
REMARK    8  A    between atoms: O_22  and  P_23
REMARK    9  A    between atoms: P_23  and  O_25
REMARK   10  A    between atoms: P_23  and  O_26
REMARK   11  A    between atoms: O_27  and  S_28
REMARK   12  A    between atoms: S_28  and  N_29
REMARK                            x       y       z     vdW  Elec       q    Type
REMARK                         _______ _______ _______ _____ _____    ______ ____
ROOT
ATOM      1  P   UNL     1      52.445 160.380  30.504  0.00  0.00    +0.404 P 
ATOM      2  O   UNL     1      52.131 160.905  29.103  0.00  0.00    -0.245 OA
ENDROOT
BRANCH   1   3
ATOM      3  S   UNL     1      51.709 158.617  30.508  0.00  0.00    -0.081 S 
ATOM      4  H   UNL     1      50.350 158.671  30.490  0.00  0.00    +0.108 HD
BRANCH   3  15
ATOM      5  C   UNL     1      52.254 154.424  27.576  0.00  0.00    +0.000 C 
ATOM      6  C   UNL     1      52.492 155.769  27.761  0.00  0.00    +0.000 C 
ATOM      7  C   UNL     1      52.062 156.468  28.870  0.00  0.00    +0.005 C 
ATOM      8  C   UNL     1      51.356 155.774  29.842  0.00  0.00    +0.000 C 
ATOM      9  C   UNL     1      51.094 154.427  29.698  0.00  0.00    +0.000 C 
ATOM     10  C   UNL     1      51.540 153.762  28.576  0.00  0.00    +0.000 C 
ATOM     11  C   UNL     1      51.279 152.406  28.428  0.00  0.00    +0.000 C 
ATOM     12  C   UNL     1      51.708 151.706  27.321  0.00  0.00    +0.000 C 
ATOM     13  C   UNL     1      52.404 152.401  26.367  0.00  0.00    +0.000 C 
ATOM     14  C   UNL     1      52.693 153.744  26.459  0.00  0.00    +0.000 C 
ATOM     15  C   UNL     1      52.316 157.837  29.036  0.00  0.00    +0.023 C 
ATOM     16  C   UNL     1      53.013 158.535  28.082  0.00  0.00    +0.006 C 
ATOM     17  C   UNL     1      53.454 157.867  26.969  0.00  0.00    +0.000 C 
ATOM     18  C   UNL     1      53.192 156.494  26.815  0.00  0.00    +0.000 C 
ENDBRANCH   3  15
ENDBRANCH   1   3
BRANCH   1  19
ATOM     19  O   UNL     1      51.690 161.364  31.639  0.00  0.00    -0.200 OA
BRANCH  19  20
ATOM     20  P   UNL     1      50.092 160.917  31.924  0.00  0.00    +0.491 P 
ATOM     21  O   UNL     1      49.151 161.588  30.948  0.00  0.00    -0.226 OA
BRANCH  20  22
ATOM     22  O   UNL     1      49.888 159.241  31.910  0.00  0.00    -0.302 OA
ATOM     23  H   UNL     1      50.119 158.895  31.034  0.00  0.00    +0.222 HD
ENDBRANCH  20  22
BRANCH  20  24
ATOM     24  O   UNL     1      49.678 161.476  33.471  0.00  0.00    -0.186 OA
BRANCH  24  25
ATOM     25  P   UNL     1      48.035 161.799  33.489  0.00  0.00    +0.481 P 
ATOM     26  O   UNL     1      47.559 161.922  34.926  0.00  0.00    -0.227 OA
BRANCH  25  27
ATOM     27  O   UNL     1      47.196 160.507  32.781  0.00  0.00    -0.302 OA
ATOM     28  H   UNL     1      47.424 159.683  33.240  0.00  0.00    +0.222 HD
ENDBRANCH  25  27
BRANCH  25  29
ATOM     29  O   UNL     1      47.644 163.240  32.696  0.00  0.00    -0.302 OA
ATOM     30  H   UNL     1      48.127 163.975  33.105  0.00  0.00    +0.222 HD
ENDBRANCH  25  29
ENDBRANCH  24  25
ENDBRANCH  20  24
ENDBRANCH  19  20
ENDBRANCH   1  19
BRANCH   1  31
ATOM     31  O   UNL     1      54.101 160.281  30.738  0.00  0.00    -0.204 OA
BRANCH  31  32
ATOM     32  S   UNL     1      54.793 161.842  30.913  0.00  0.00    +0.189 S 
BRANCH  32  33
ATOM     33  N   UNL     1      55.533 161.907  32.497  0.00  0.00    +0.035 NA
ATOM     34  O   UNL     1      56.364 162.722  32.788  0.00  0.00    -0.134 OA
ENDBRANCH  32  33
ENDBRANCH  31  32
ENDBRANCH   1  31
TORSDOF 12
