REMARK  Name = =
REMARK  0 active torsions:
REMARK  status: ('A' for Active; 'I' for Inactive)
REMARK                            x       y       z     vdW  Elec       q    Type
REMARK                         _______ _______ _______ _____ _____    ______ ____
ROOT
ATOM      1  C   UNL     1      -4.570  -4.210  31.889  0.00  0.00    +0.027 C 
ATOM      2  C   UNL     1      -4.303  -4.703  33.292  0.00  0.00    +0.013 C 
ATOM      3  C   UNL     1      -4.231  -6.216  33.329  0.00  0.00    +0.069 C 
ATOM      4  C   UNL     1      -3.091  -6.606  32.463  0.00  0.00    +0.173 C 
ATOM      5  O   UNL     1      -2.226  -7.454  32.793  0.00  0.00    -0.291 OA
ATOM      6  C   UNL     1      -3.006  -5.949  31.166  0.00  0.00    +0.033 C 
ATOM      7  C   UNL     1      -3.689  -4.844  30.903  0.00  0.00    -0.023 C 
ENDROOT
TORSDOF 0
