REMARK  Name = =
REMARK  2 active torsions:
REMARK  status: ('A' for Active; 'I' for Inactive)
REMARK    1  A    between atoms: C_7  and  S_8
REMARK    2  A    between atoms: S_8  and  N_11
REMARK                            x       y       z     vdW  Elec       q    Type
REMARK                         _______ _______ _______ _____ _____    ______ ____
ROOT
ATOM      1  C   UNL     1      -4.001  -4.424  32.017  0.00  0.00    +0.047 C 
ATOM      2  C   UNL     1      -3.966  -5.499  33.052  0.00  0.00    +0.014 C 
ATOM      3  C   UNL     1      -4.200  -6.829  32.310  0.00  0.00    +0.070 C 
ATOM      4  C   UNL     1      -2.959  -7.037  31.533  0.00  0.00    +0.174 C 
ATOM      5  O   UNL     1      -2.371  -8.125  31.575  0.00  0.00    -0.291 OA
ATOM      6  C   UNL     1      -2.495  -5.907  30.745  0.00  0.00    +0.053 C 
ATOM      7  C   UNL     1      -2.979  -4.667  30.962  0.00  0.00    +0.106 C 
ENDROOT
BRANCH   7   8
ATOM      8  S   UNL     1      -2.423  -3.333  30.026  0.00  0.00    +0.072 S 
ATOM      9  O   UNL     1      -3.247  -2.100  30.356  0.00  0.00    -0.150 OA
ATOM     10  O   UNL     1      -2.617  -3.555  28.541  0.00  0.00    -0.150 OA
BRANCH   8  11
ATOM     11  N   UNL     1      -0.776  -2.943  30.257  0.00  0.00    -0.178 N 
ATOM     12  C   UNL     1       0.245  -3.811  29.799  0.00  0.00    +0.319 C 
ATOM     13  O   UNL     1      -0.093  -4.882  29.213  0.00  0.00    -0.264 OA
ATOM     14  H   UNL     1      -0.534  -2.105  30.714  0.00  0.00    +0.177 HD
ENDBRANCH   8  11
ENDBRANCH   7   8
TORSDOF 2
