MODEL 1
REMARK VINA RESULT:    -5.884      0.000      0.000
REMARK INTER + INTRA:         -11.938
REMARK INTER:                 -10.012
REMARK INTRA:                  -1.925
REMARK UNBOUND:                -1.925
REMARK  Name = =
REMARK  15 active torsions:
REMARK  status: ('A' for Active; 'I' for Inactive)
REMARK    1  A    between atoms: S_1  and  C_8
REMARK    2  A    between atoms: S_1  and  C_17
REMARK    3  A    between atoms: S_1  and  S_19
REMARK    4  A    between atoms: C_7  and  S_12
REMARK    5  A    between atoms: S_12  and  P_13
REMARK    6  A    between atoms: P_13  and  O_15
REMARK    7  A    between atoms: P_13  and  O_16
REMARK    8  A    between atoms: S_19  and  C_20
REMARK    9  A    between atoms: S_19  and  S_22
REMARK   10  A    between atoms: S_22  and  P_23
REMARK   11  A    between atoms: S_22  and  N_27
REMARK   12  A    between atoms: P_23  and  O_25
REMARK   13  A    between atoms: P_23  and  O_26
REMARK   14  A    between atoms: N_27  and  O_28
REMARK   15  A    between atoms: N_27  and  O_29
REMARK                            x       y       z     vdW  Elec       q    Type
REMARK                         _______ _______ _______ _____ _____    ______ ____
ROOT
ATOM      1  S   UNL     1      58.048 160.345  41.199  0.00  0.00    -0.129 S 
ATOM      2  H   UNL     1      59.002 160.986  41.926  0.00  0.00    +0.101 HD
ENDROOT
BRANCH   1   9
ATOM      3  C   UNL     1      55.021 162.879  41.606  0.00  0.00    -0.019 C 
ATOM      4  C   UNL     1      56.348 162.411  41.638  0.00  0.00    -0.017 C 
ATOM      5  C   UNL     1      57.336 163.254  42.047  0.00  0.00    -0.004 C 
ATOM      6  C   UNL     1      57.028 164.556  42.425  0.00  0.00    +0.000 C 
ATOM      7  C   UNL     1      55.754 165.039  42.404  0.00  0.00    +0.006 C 
ATOM      8  C   UNL     1      54.759 164.177  41.988  0.00  0.00    +0.032 C 
ATOM      9  C   UNL     1      56.535 161.003  41.211  0.00  0.00    +0.065 C 
ATOM     10  C   UNL     1      55.577 160.237  42.153  0.00  0.00    +0.015 C 
ATOM     11  C   UNL     1      54.157 160.633  41.938  0.00  0.00    +0.006 C 
ATOM     12  C   UNL     1      53.973 161.916  41.157  0.00  0.00    +0.027 C 
BRANCH   8  13
ATOM     13  S   UNL     1      53.069 164.721  41.930  0.00  0.00    -0.004 S 
BRANCH  13  14
ATOM     14  P   UNL     1      52.628 165.914  40.293  0.00  0.00    +0.391 P 
ATOM     15  O   UNL     1      53.197 167.313  40.525  0.00  0.00    -0.246 OA
BRANCH  14  16
ATOM     16  O   UNL     1      51.006 166.072  39.962  0.00  0.00    -0.316 OA
ATOM     17  H   UNL     1      50.694 165.283  39.490  0.00  0.00    +0.221 HD
ENDBRANCH  14  16
BRANCH  14  18
ATOM     18  O   UNL     1      53.406 165.271  38.917  0.00  0.00    -0.316 OA
ATOM     19  H   UNL     1      52.832 164.610  38.500  0.00  0.00    +0.221 HD
ENDBRANCH  14  18
ENDBRANCH  13  14
ENDBRANCH   8  13
ENDBRANCH   1   9
BRANCH   1  20
ATOM     20  C   UNL     1      57.829 158.858  41.903  0.00  0.00    +0.254 C 
ATOM     21  O   UNL     1      58.514 158.388  42.805  0.00  0.00    -0.277 OA
ENDBRANCH   1  20
BRANCH   1  22
ATOM     22  S   UNL     1      58.786 160.502  39.741  0.00  0.00    -0.093 S 
ATOM     23  H   UNL     1      58.049 161.341  38.965  0.00  0.00    +0.110 HD
BRANCH  22  24
ATOM     24  C   UNL     1      58.970 158.989  39.155  0.00  0.00    +0.262 C 
ATOM     25  O   UNL     1      58.916 158.732  37.937  0.00  0.00    -0.276 OA
ENDBRANCH  22  24
BRANCH  22  26
ATOM     26  S   UNL     1      60.322 161.060  39.908  0.00  0.00    -0.003 S 
ATOM     27  H   UNL     1      59.796 161.975  40.765  0.00  0.00    +0.123 HD
BRANCH  26  28
ATOM     28  P   UNL     1      61.594 160.063  40.603  0.00  0.00    +0.391 P 
ATOM     29  O   UNL     1      62.689 159.716  39.587  0.00  0.00    -0.246 OA
BRANCH  28  30
ATOM     30  O   UNL     1      62.453 161.023  41.752  0.00  0.00    -0.316 OA
ATOM     31  H   UNL     1      62.054 161.906  41.798  0.00  0.00    +0.221 HD
ENDBRANCH  28  30
BRANCH  28  32
ATOM     32  O   UNL     1      61.164 158.700  41.505  0.00  0.00    -0.316 OA
ATOM     33  H   UNL     1      61.176 158.920  42.450  0.00  0.00    +0.221 HD
ENDBRANCH  28  32
ENDBRANCH  26  28
BRANCH  26  34
ATOM     34  N   UNL     1      61.100 161.684  38.720  0.00  0.00    -0.009 NA
BRANCH  34  35
ATOM     35  O   UNL     1      61.009 161.059  37.542  0.00  0.00    -0.279 OA
ATOM     36  H   UNL     1      61.575 160.271  37.550  0.00  0.00    +0.240 HD
ENDBRANCH  34  35
BRANCH  34  37
ATOM     37  O   UNL     1      62.230 162.386  38.882  0.00  0.00    -0.279 OA
ATOM     38  H   UNL     1      62.988 161.842  38.620  0.00  0.00    +0.240 HD
ENDBRANCH  34  37
ENDBRANCH  26  34
ENDBRANCH  22  26
ENDBRANCH   1  22
TORSDOF 15
ENDMDL
