REMARK  Name = =
REMARK  15 active torsions:
REMARK  status: ('A' for Active; 'I' for Inactive)
REMARK    1  A    between atoms: S_1  and  C_8
REMARK    2  A    between atoms: S_1  and  C_17
REMARK    3  A    between atoms: S_1  and  S_19
REMARK    4  A    between atoms: C_7  and  S_12
REMARK    5  A    between atoms: S_12  and  P_13
REMARK    6  A    between atoms: P_13  and  O_15
REMARK    7  A    between atoms: P_13  and  O_16
REMARK    8  A    between atoms: S_19  and  C_20
REMARK    9  A    between atoms: S_19  and  S_22
REMARK   10  A    between atoms: S_22  and  P_23
REMARK   11  A    between atoms: S_22  and  N_27
REMARK   12  A    between atoms: P_23  and  O_25
REMARK   13  A    between atoms: P_23  and  O_26
REMARK   14  A    between atoms: N_27  and  O_28
REMARK   15  A    between atoms: N_27  and  O_29
REMARK                            x       y       z     vdW  Elec       q    Type
REMARK                         _______ _______ _______ _____ _____    ______ ____
ROOT
ATOM      1  S   UNL     1      50.381 158.316  30.644  0.00  0.00    -0.129 S 
ATOM      2  H   UNL     1      50.910 158.649  31.852  0.00  0.00    +0.101 HD
ENDROOT
BRANCH   1   9
ATOM      3  C   UNL     1      51.992 155.429  28.449  0.00  0.00    -0.019 C 
ATOM      4  C   UNL     1      51.709 156.736  28.886  0.00  0.00    -0.017 C 
ATOM      5  C   UNL     1      52.287 157.787  28.241  0.00  0.00    -0.004 C 
ATOM      6  C   UNL     1      53.143 157.561  27.169  0.00  0.00    +0.000 C 
ATOM      7  C   UNL     1      53.437 156.307  26.723  0.00  0.00    +0.006 C 
ATOM      8  C   UNL     1      52.846 155.248  27.383  0.00  0.00    +0.032 C 
ATOM      9  C   UNL     1      50.781 156.834  30.038  0.00  0.00    +0.065 C 
ATOM     10  C   UNL     1      49.540 156.059  29.535  0.00  0.00    +0.015 C 
ATOM     11  C   UNL     1      49.853 154.626  29.274  0.00  0.00    +0.006 C 
ATOM     12  C   UNL     1      51.330 154.311  29.183  0.00  0.00    +0.027 C 
BRANCH   8  13
ATOM     13  S   UNL     1      53.172 153.579  26.869  0.00  0.00    -0.004 S 
BRANCH  13  14
ATOM     14  P   UNL     1      54.175 153.440  25.060  0.00  0.00    +0.391 P 
ATOM     15  O   UNL     1      55.293 154.481  25.027  0.00  0.00    -0.246 OA
BRANCH  14  16
ATOM     16  O   UNL     1      53.223 153.671  23.716  0.00  0.00    -0.316 OA
ATOM     17  H   UNL     1      52.800 154.543  23.765  0.00  0.00    +0.221 HD
ENDBRANCH  14  16
BRANCH  14  18
ATOM     18  O   UNL     1      54.908 151.903  24.953  0.00  0.00    -0.316 OA
ATOM     19  H   UNL     1      55.467 151.756  25.732  0.00  0.00    +0.221 HD
ENDBRANCH  14  18
ENDBRANCH  13  14
ENDBRANCH   8  13
ENDBRANCH   1   9
BRANCH   1  20
ATOM     20  C   UNL     1      51.020 159.373  29.535  0.00  0.00    +0.254 C 
ATOM     21  O   UNL     1      51.677 160.374  29.800  0.00  0.00    -0.277 OA
ENDBRANCH   1  20
BRANCH   1  22
ATOM     22  S   UNL     1      48.806 158.401  31.098  0.00  0.00    -0.093 S 
ATOM     23  H   UNL     1      48.539 157.374  31.949  0.00  0.00    +0.110 HD
BRANCH  22  24
ATOM     24  C   UNL     1      47.931 158.412  29.720  0.00  0.00    +0.262 C 
ATOM     25  O   UNL     1      48.278 159.056  28.712  0.00  0.00    -0.276 OA
ENDBRANCH  22  24
BRANCH  22  26
ATOM     26  S   UNL     1      48.467 159.845  31.804  0.00  0.00    -0.003 S 
ATOM     27  H   UNL     1      47.257 159.305  32.109  0.00  0.00    +0.123 HD
BRANCH  26  28
ATOM     28  P   UNL     1      49.373 160.425  33.196  0.00  0.00    +0.391 P 
ATOM     29  O   UNL     1      50.742 160.998  32.809  0.00  0.00    -0.246 OA
BRANCH  28  30
ATOM     30  O   UNL     1      48.559 161.814  33.819  0.00  0.00    -0.316 OA
ATOM     31  H   UNL     1      47.665 161.565  34.100  0.00  0.00    +0.221 HD
ENDBRANCH  28  30
BRANCH  28  32
ATOM     32  O   UNL     1      49.507 159.431  34.557  0.00  0.00    -0.316 OA
ATOM     33  H   UNL     1      48.633 159.078  34.787  0.00  0.00    +0.221 HD
ENDBRANCH  28  32
ENDBRANCH  26  28
BRANCH  26  34
ATOM     34  N   UNL     1      48.382 161.158  30.983  0.00  0.00    -0.009 NA
BRANCH  34  35
ATOM     35  O   UNL     1      47.394 161.248  30.087  0.00  0.00    -0.279 OA
ATOM     36  H   UNL     1      46.653 160.687  30.365  0.00  0.00    +0.240 HD
ENDBRANCH  34  35
BRANCH  34  37
ATOM     37  O   UNL     1      49.458 161.900  30.688  0.00  0.00    -0.279 OA
ATOM     38  H   UNL     1      50.129 161.785  31.379  0.00  0.00    +0.240 HD
ENDBRANCH  34  37
ENDBRANCH  26  34
ENDBRANCH  22  26
ENDBRANCH   1  22
TORSDOF 15
