REMARK  Name = =
REMARK  2 active torsions:
REMARK  status: ('A' for Active; 'I' for Inactive)
REMARK    1  A    between atoms: C_1  and  O_4
REMARK    2  A    between atoms: N_3  and  O_5
REMARK                            x       y       z     vdW  Elec       q    Type
REMARK                         _______ _______ _______ _____ _____    ______ ____
ROOT
ATOM      1  C   UNL     1      52.352 154.620  28.246  0.00  0.00    +0.421 C 
ATOM      2  O   UNL     1      52.288 153.413  28.643  0.00  0.00    -0.224 OA
ATOM      3  N   UNL     1      53.098 154.956  27.070  0.00  0.00    -0.163 N 
ATOM      4  H   UNL     1      53.142 155.892  26.767  0.00  0.00    +0.186 HD
ENDROOT
BRANCH   1   5
ATOM      5  O   UNL     1      51.672 155.563  28.999  0.00  0.00    -0.465 OA
ATOM      6  H   UNL     1      51.689 156.465  28.747  0.00  0.00    +0.297 HD
ENDBRANCH   1   5
BRANCH   3   7
ATOM      7  O   UNL     1      53.733 154.003  26.385  0.00  0.00    -0.293 OA
ATOM      8  H   UNL     1      53.589 153.145  26.815  0.00  0.00    +0.241 HD
ENDBRANCH   3   7
TORSDOF 2
