REMARK  Name = =
REMARK  3 active torsions:
REMARK  status: ('A' for Active; 'I' for Inactive)
REMARK    1  A    between atoms: O_1  and  C_2
REMARK    2  A    between atoms: O_1  and  C_8
REMARK    3  A    between atoms: N_10  and  O_11
REMARK                            x       y       z     vdW  Elec       q    Type
REMARK                         _______ _______ _______ _____ _____    ______ ____
ROOT
ATOM      1  O   UNL     1      51.962 154.521  26.807  0.00  0.00    -0.377 OA
ENDROOT
BRANCH   1   2
ATOM      2  C   UNL     1      51.795 155.517  27.773  0.00  0.00    +0.295 C 
ATOM      3  C   UNL     1      50.750 155.386  28.568  0.00  0.00    +0.052 C 
ATOM      4  C   UNL     1      50.484 156.376  29.617  0.00  0.00    +0.037 C 
ATOM      5  C   UNL     1      51.305 157.614  29.530  0.00  0.00    +0.052 C 
ATOM      6  C   UNL     1      52.732 157.242  29.153  0.00  0.00    +0.209 C 
ATOM      7  O   UNL     1      52.664 156.583  27.904  0.00  0.00    -0.448 OA
ENDBRANCH   1   2
BRANCH   1   8
ATOM      8  C   UNL     1      52.141 153.206  27.173  0.00  0.00    +0.431 C 
ATOM      9  O   UNL     1      52.961 152.991  28.121  0.00  0.00    -0.224 OA
ATOM     10  N   UNL     1      51.489 152.105  26.577  0.00  0.00    -0.162 N 
ATOM     11  H   UNL     1      50.849 152.240  25.841  0.00  0.00    +0.186 HD
BRANCH  10  12
ATOM     12  O   UNL     1      51.758 150.867  27.034  0.00  0.00    -0.293 OA
ATOM     13  H   UNL     1      52.405 150.922  27.755  0.00  0.00    +0.241 HD
ENDBRANCH  10  12
ENDBRANCH   1   8
TORSDOF 3
