REMARK  Name = =
REMARK  4 active torsions:
REMARK  status: ('A' for Active; 'I' for Inactive)
REMARK    1  A    between atoms: C_1  and  O_17
REMARK    2  A    between atoms: C_2  and  C_7
REMARK    3  A    between atoms: O_17  and  C_18
REMARK    4  A    between atoms: N_20  and  O_21
REMARK                            x       y       z     vdW  Elec       q    Type
REMARK                         _______ _______ _______ _____ _____    ______ ____
ROOT
ATOM      1  C   UNL     1      51.935 153.604  28.174  0.00  0.00    +0.301 C 
ATOM      2  C   UNL     1      52.413 152.923  27.128  0.00  0.00    +0.091 C 
ATOM      3  C   UNL     1      52.146 151.501  26.908  0.00  0.00    +0.007 C 
ATOM      4  C   UNL     1      51.309 150.835  27.950  0.00  0.00    +0.021 C 
ATOM      5  C   UNL     1      51.137 151.579  29.225  0.00  0.00    +0.235 C 
ATOM      6  O   UNL     1      51.161 152.980  29.096  0.00  0.00    -0.443 OA
ENDROOT
BRANCH   2   7
ATOM      7  C   UNL     1      53.214 153.632  26.140  0.00  0.00    +0.107 C 
ATOM      8  N   UNL     1      53.170 154.986  26.047  0.00  0.00    -0.239 NA
ATOM      9  C   UNL     1      53.936 155.625  25.139  0.00  0.00    +0.136 C 
ATOM     10  C   UNL     1      54.777 154.925  24.292  0.00  0.00    +0.183 C 
ATOM     11  N   UNL     1      55.500 155.602  23.409  0.00  0.00    -0.203 NA
ATOM     12  C   UNL     1      55.482 156.923  23.269  0.00  0.00    +0.200 C 
ATOM     13  N   UNL     1      54.658 157.630  24.096  0.00  0.00    -0.221 NA
ATOM     14  C   UNL     1      53.898 157.002  25.016  0.00  0.00    +0.123 C 
ATOM     15  N   UNL     1      54.825 153.565  24.385  0.00  0.00    -0.222 NA
ATOM     16  C   UNL     1      54.049 152.930  25.302  0.00  0.00    +0.120 C 
ENDBRANCH   2   7
BRANCH   1  17
ATOM     17  O   UNL     1      52.264 154.946  28.270  0.00  0.00    -0.376 OA
BRANCH  17  18
ATOM     18  C   UNL     1      51.454 155.899  28.861  0.00  0.00    +0.431 C 
ATOM     19  O   UNL     1      50.259 155.637  29.092  0.00  0.00    -0.224 OA
ATOM     20  N   UNL     1      51.964 157.174  29.206  0.00  0.00    -0.162 N 
ATOM     21  H   UNL     1      52.906 157.398  29.029  0.00  0.00    +0.186 HD
BRANCH  20  22
ATOM     22  O   UNL     1      51.148 158.074  29.778  0.00  0.00    -0.293 OA
ATOM     23  H   UNL     1      50.263 157.690  29.878  0.00  0.00    +0.241 HD
ENDBRANCH  20  22
ENDBRANCH  17  18
ENDBRANCH   1  17
TORSDOF 4
