REMARK  Name = =
REMARK  6 active torsions:
REMARK  status: ('A' for Active; 'I' for Inactive)
REMARK    1  A    between atoms: C_1  and  C_12
REMARK    2  A    between atoms: C_10  and  P_22
REMARK    3  A    between atoms: C_11  and  O_17
REMARK    4  A    between atoms: O_17  and  C_18
REMARK    5  A    between atoms: N_20  and  O_21
REMARK    6  A    between atoms: P_22  and  O_24
REMARK                            x       y       z     vdW  Elec       q    Type
REMARK                         _______ _______ _______ _____ _____    ______ ____
ROOT
ATOM      1  C   UNL     1      53.523 154.852  26.680  0.00  0.00    +0.106 A 
ATOM      2  N   UNL     1      53.006 156.091  26.721  0.00  0.00    -0.239 NA
ATOM      3  C   UNL     1      52.414 156.573  27.835  0.00  0.00    +0.136 A 
ATOM      4  C   UNL     1      52.348 155.760  28.944  0.00  0.00    +0.183 A 
ATOM      5  N   UNL     1      51.750 156.252  30.062  0.00  0.00    -0.203 NA
ATOM      6  C   UNL     1      51.228 157.489  30.120  0.00  0.00    +0.200 C 
ATOM      7  N   UNL     1      51.302 158.264  29.030  0.00  0.00    -0.221 NA
ATOM      8  C   UNL     1      51.881 157.839  27.888  0.00  0.00    +0.123 C 
ATOM      9  N   UNL     1      52.861 154.526  28.912  0.00  0.00    -0.219 NA
ATOM     10  C   UNL     1      53.454 154.044  27.799  0.00  0.00    +0.150 A 
ENDROOT
BRANCH   1  12
ATOM     11  C   UNL     1      53.694 153.292  24.900  0.00  0.00    +0.297 C 
ATOM     12  C   UNL     1      54.148 154.420  25.436  0.00  0.00    +0.069 C 
ATOM     13  C   UNL     1      55.236 155.227  24.881  0.00  0.00    +0.038 C 
ATOM     14  C   UNL     1      55.457 155.058  23.412  0.00  0.00    +0.052 C 
ATOM     15  C   UNL     1      54.738 153.892  22.807  0.00  0.00    +0.209 C 
ATOM     16  O   UNL     1      54.350 152.903  23.726  0.00  0.00    -0.448 OA
BRANCH  11  17
ATOM     17  O   UNL     1      52.652 152.557  25.460  0.00  0.00    -0.377 OA
BRANCH  17  18
ATOM     18  C   UNL     1      52.672 151.181  25.445  0.00  0.00    +0.431 C 
ATOM     19  O   UNL     1      53.577 150.602  24.782  0.00  0.00    -0.224 OA
ATOM     20  N   UNL     1      51.690 150.431  26.165  0.00  0.00    -0.162 N 
ATOM     21  H   UNL     1      50.987 150.885  26.683  0.00  0.00    +0.186 HD
BRANCH  20  22
ATOM     22  O   UNL     1      51.754 149.082  26.115  0.00  0.00    -0.293 OA
ATOM     23  H   UNL     1      52.505 148.814  25.563  0.00  0.00    +0.241 HD
ENDBRANCH  20  22
ENDBRANCH  17  18
ENDBRANCH  11  17
ENDBRANCH   1  12
BRANCH  10  24
ATOM     24  P   UNL     1      54.178 152.396  27.801  0.00  0.00    +0.239 P 
ATOM     25  O   UNL     1      53.228 151.354  27.357  0.00  0.00    -0.288 OA
ATOM     26  H   UNL     1      52.975 152.120  27.183  0.00  0.00    +0.134 HD
BRANCH  24  27
ATOM     27  O   UNL     1      55.615 152.404  26.897  0.00  0.00    -0.341 OA
ATOM     28  H   UNL     1      56.362 152.614  27.479  0.00  0.00    +0.218 HD
ENDBRANCH  24  27
ENDBRANCH  10  24
TORSDOF 6
