REMARK  Name = =
REMARK  6 active torsions:
REMARK  status: ('A' for Active; 'I' for Inactive)
REMARK    1  A    between atoms: C_11  and  O_17
REMARK    2  A    between atoms: O_17  and  C_18
REMARK    3  A    between atoms: N_20  and  O_21
REMARK    4  A    between atoms: P_22  and  O_24
REMARK    5  A    between atoms: O_24  and  N_25
REMARK    6  A    between atoms: N_25  and  O_26
REMARK                            x       y       z     vdW  Elec       q    Type
REMARK                         _______ _______ _______ _____ _____    ______ ____
ROOT
ATOM      1  C   UNL     1      52.606 154.531  27.081  0.00  0.00    +0.173 C 
ATOM      2  N   UNL     1      53.382 154.277  25.977  0.00  0.00    -0.257 NA
ATOM      3  C   UNL     1      54.025 155.285  25.395  0.00  0.00    +0.131 C 
ATOM      4  C   UNL     1      53.910 156.575  25.900  0.00  0.00    +0.179 C 
ATOM      5  N   UNL     1      54.587 157.541  25.260  0.00  0.00    -0.224 NA
ATOM      6  C   UNL     1      55.340 157.270  24.180  0.00  0.00    +0.252 C 
ATOM      7  N   UNL     1      55.450 156.022  23.692  0.00  0.00    -0.241 NA
ATOM      8  C   UNL     1      54.805 155.016  24.279  0.00  0.00    +0.117 C 
ATOM      9  N   UNL     1      53.150 156.797  26.977  0.00  0.00    -0.224 NA
ATOM     10  C   UNL     1      52.486 155.785  27.587  0.00  0.00    +0.124 C 
ATOM     11  C   UNL     1      51.874 152.248  26.964  0.00  0.00    +0.296 C 
ATOM     12  C   UNL     1      51.975 153.354  27.640  0.00  0.00    +0.083 C 
ATOM     13  C   UNL     1      51.400 153.437  28.997  0.00  0.00    +0.151 C 
ATOM     14  C   UNL     1      51.755 152.137  29.706  0.00  0.00    +0.082 C 
ATOM     15  C   UNL     1      51.288 150.953  28.930  0.00  0.00    +0.212 C 
ATOM     16  O   UNL     1      51.213 151.155  27.544  0.00  0.00    -0.448 OA
ATOM     17  P   UNL     1      51.534 156.080  29.059  0.00  0.00    +0.163 P 
ATOM     18  O   UNL     1      51.690 154.890  29.978  0.00  0.00    -0.320 OA
ATOM     19  H   UNL     1      50.224 156.305  28.689  0.00  0.00    +0.118 HD
ENDROOT
BRANCH  11  20
ATOM     20  O   UNL     1      52.416 152.169  25.692  0.00  0.00    -0.377 OA
BRANCH  20  21
ATOM     21  C   UNL     1      53.606 151.484  25.456  0.00  0.00    +0.431 C 
ATOM     22  O   UNL     1      54.358 151.287  26.424  0.00  0.00    -0.224 OA
ATOM     23  N   UNL     1      53.876 151.059  24.122  0.00  0.00    -0.162 N 
ATOM     24  H   UNL     1      53.250 151.236  23.383  0.00  0.00    +0.186 HD
BRANCH  23  25
ATOM     25  O   UNL     1      55.046 150.396  23.930  0.00  0.00    -0.293 OA
ATOM     26  H   UNL     1      55.518 150.323  24.774  0.00  0.00    +0.241 HD
ENDBRANCH  23  25
ENDBRANCH  20  21
ENDBRANCH  11  20
BRANCH  17  27
ATOM     27  O   UNL     1      52.165 157.414  29.922  0.00  0.00    -0.230 OA
BRANCH  27  28
ATOM     28  N   UNL     1      52.703 158.300  29.053  0.00  0.00    -0.075 NA
ATOM     29  H   UNL     1      52.463 158.026  28.100  0.00  0.00    +0.188 HD
BRANCH  28  30
ATOM     30  O   UNL     1      54.042 158.325  29.184  0.00  0.00    -0.290 OA
ATOM     31  H   UNL     1      54.274 158.585  30.089  0.00  0.00    +0.239 HD
ENDBRANCH  28  30
ENDBRANCH  27  28
ENDBRANCH  17  27
TORSDOF 6
