REMARK  Name = =
REMARK  9 active torsions:
REMARK  status: ('A' for Active; 'I' for Inactive)
REMARK    1  A    between atoms: C_1  and  C_12
REMARK    2  A    between atoms: C_10  and  P_22
REMARK    3  A    between atoms: C_11  and  O_17
REMARK    4  A    between atoms: O_17  and  C_18
REMARK    5  A    between atoms: N_20  and  O_21
REMARK    6  A    between atoms: P_22  and  O_24
REMARK    7  A    between atoms: O_24  and  N_25
REMARK    8  A    between atoms: N_25  and  C_26
REMARK    9  A    between atoms: N_25  and  O_30
REMARK                            x       y       z     vdW  Elec       q    Type
REMARK                         _______ _______ _______ _____ _____    ______ ____
ROOT
ATOM      1  C   UNL     1      52.508 153.987  27.146  0.00  0.00    +0.172 C 
ATOM      2  N   UNL     1      52.966 153.054  26.243  0.00  0.00    -0.261 NA
ATOM      3  C   UNL     1      52.687 151.763  26.339  0.00  0.00    +0.115 C 
ATOM      4  C   UNL     1      51.906 151.341  27.387  0.00  0.00    +0.179 C 
ATOM      5  N   UNL     1      51.633 150.020  27.465  0.00  0.00    -0.204 NA
ATOM      6  C   UNL     1      52.100 149.124  26.552  0.00  0.00    +0.196 C 
ATOM      7  N   UNL     1      52.858 149.587  25.548  0.00  0.00    -0.243 NA
ATOM      8  C   UNL     1      53.191 150.877  25.375  0.00  0.00    +0.175 C 
ATOM      9  N   UNL     1      51.434 152.216  28.295  0.00  0.00    -0.223 NA
ATOM     10  C   UNL     1      51.733 153.547  28.177  0.00  0.00    +0.139 C 
ENDROOT
BRANCH   1  12
ATOM     11  C   UNL     1      53.425 155.811  25.872  0.00  0.00    +0.294 C 
ATOM     12  C   UNL     1      52.829 155.386  26.995  0.00  0.00    +0.055 C 
ATOM     13  C   UNL     1      52.603 156.441  28.013  0.00  0.00    +0.035 C 
ATOM     14  C   UNL     1      53.928 157.216  28.119  0.00  0.00    +0.052 C 
ATOM     15  C   UNL     1      54.368 157.804  26.820  0.00  0.00    +0.209 C 
ATOM     16  O   UNL     1      53.788 157.138  25.702  0.00  0.00    -0.448 OA
BRANCH  11  17
ATOM     17  O   UNL     1      53.652 154.841  24.892  0.00  0.00    -0.377 OA
BRANCH  17  18
ATOM     18  C   UNL     1      54.680 154.981  23.973  0.00  0.00    +0.431 C 
ATOM     19  O   UNL     1      55.294 156.077  23.955  0.00  0.00    -0.224 OA
ATOM     20  N   UNL     1      55.078 153.970  23.061  0.00  0.00    -0.162 N 
ATOM     21  H   UNL     1      54.600 153.110  23.074  0.00  0.00    +0.186 HD
BRANCH  20  22
ATOM     22  O   UNL     1      56.085 154.136  22.175  0.00  0.00    -0.293 OA
ATOM     23  H   UNL     1      56.461 155.025  22.276  0.00  0.00    +0.241 HD
ENDBRANCH  20  22
ENDBRANCH  17  18
ENDBRANCH  11  17
ENDBRANCH   1  12
BRANCH  10  24
ATOM     24  P   UNL     1      51.037 154.681  29.347  0.00  0.00    +0.265 P 
ATOM     25  O   UNL     1      51.777 154.798  30.626  0.00  0.00    -0.286 OA
ATOM     26  H   UNL     1      52.278 154.465  29.912  0.00  0.00    +0.136 HD
BRANCH  24  27
ATOM     27  O   UNL     1      50.682 156.172  28.630  0.00  0.00    -0.184 OA
BRANCH  27  28
ATOM     28  N   UNL     1      50.072 156.944  29.529  0.00  0.00    -0.115 N 
BRANCH  28  29
ATOM     29  C   UNL     1      50.600 158.219  29.842  0.00  0.00    +0.155 C 
ATOM     30  C   UNL     1      49.932 159.090  30.552  0.00  0.00    +0.137 C 
ATOM     31 CL   UNL     1      48.348 158.700  31.146  0.00  0.00    -0.068 Cl
ATOM     32 CL   UNL     1      50.643 160.640  30.893  0.00  0.00    -0.068 Cl
ENDBRANCH  28  29
BRANCH  28  33
ATOM     33  O   UNL     1      48.958 156.532  30.141  0.00  0.00    -0.262 OA
ATOM     34  H   UNL     1      48.723 155.646  29.823  0.00  0.00    +0.247 HD
ENDBRANCH  28  33
ENDBRANCH  27  28
ENDBRANCH  24  27
ENDBRANCH  10  24
TORSDOF 9
