REMARK  Name = =
REMARK  11 active torsions:
REMARK  status: ('A' for Active; 'I' for Inactive)
REMARK    1  A    between atoms: O_2  and  N_3
REMARK    2  A    between atoms: N_5  and  C_6
REMARK    3  A    between atoms: C_6  and  C_12
REMARK    4  A    between atoms: C_23  and  N_24
REMARK    5  A    between atoms: C_23  and  C_25
REMARK    6  A    between atoms: N_24  and  N_30
REMARK    7  A    between atoms: N_30  and  C_31
REMARK    8  A    between atoms: C_31  and  N_33
REMARK    9  A    between atoms: O_34  and  S_35
REMARK   10  A    between atoms: C_38  and  C_40
REMARK   11  A    between atoms: C_40  and  O_41
REMARK                            x       y       z     vdW  Elec       q    Type
REMARK                         _______ _______ _______ _____ _____    ______ ____
ROOT
ATOM      1  N   UNL     1       4.315  -4.222  28.320  0.00  0.00    -0.210 NA
ATOM      2  H   UNL     1       4.922  -4.378  29.125  0.00  0.00    +0.150 HD
ATOM      3  H   UNL     1       3.526  -3.639  28.597  0.00  0.00    +0.150 HD
ENDROOT
BRANCH   1   5
ATOM      4  P   UNL     1       3.260  -4.483  26.981  0.00  0.00    +0.176 P 
ATOM      5  O   UNL     1       3.731  -5.743  27.735  0.00  0.00    -0.267 OA
ENDBRANCH   1   5
TORSDOF 1
REMARK  Name = =
REMARK  11 active torsions:
REMARK  status: ('A' for Active; 'I' for Inactive)
REMARK    1  A    between atoms: O_2  and  N_3
REMARK    2  A    between atoms: N_5  and  C_6
REMARK    3  A    between atoms: C_6  and  C_12
REMARK    4  A    between atoms: C_23  and  N_24
REMARK    5  A    between atoms: C_23  and  C_25
REMARK    6  A    between atoms: N_24  and  N_30
REMARK    7  A    between atoms: N_30  and  C_31
REMARK    8  A    between atoms: C_31  and  N_33
REMARK    9  A    between atoms: O_34  and  S_35
REMARK   10  A    between atoms: C_38  and  C_40
REMARK   11  A    between atoms: C_40  and  O_41
REMARK                            x       y       z     vdW  Elec       q    Type
REMARK                         _______ _______ _______ _____ _____    ______ ____
ROOT
ATOM      1  C   UNL     1      -0.414  -5.424  29.907  0.00  0.00    +0.119 C 
ATOM      2  N   UNL     1      -1.442  -6.280  29.766  0.00  0.00    -0.149 NA
ATOM      3  N   UNL     1      -1.620  -7.343  30.502  0.00  0.00    -0.147 NA
ATOM      4  C   UNL     1      -0.751  -7.651  31.482  0.00  0.00    +0.125 C 
ATOM      5  C   UNL     1       0.326  -6.820  31.686  0.00  0.00    +0.059 C 
ATOM      6  C   UNL     1       0.508  -5.684  30.891  0.00  0.00    +0.103 C 
ATOM      7  N   UNL     1       1.570  -4.935  31.156  0.00  0.00    -0.223 NA
ATOM      8  C   UNL     1       2.468  -5.194  32.125  0.00  0.00    +0.199 C 
ATOM      9  N   UNL     1       2.295  -6.279  32.883  0.00  0.00    -0.222 NA
ATOM     10  C   UNL     1       1.244  -7.086  32.676  0.00  0.00    +0.104 C 
ENDROOT
BRANCH   1  11
ATOM     11  C   UNL     1      -0.222  -4.227  29.057  0.00  0.00    +0.130 C 
ATOM     12  C   UNL     1      -0.609  -2.948  29.723  0.00  0.00    +0.093 C 
ATOM     13  C   UNL     1      -0.960  -2.074  28.568  0.00  0.00    +0.153 C 
ATOM     14  O   UNL     1      -0.697  -0.900  28.434  0.00  0.00    -0.296 OA
ATOM     15  C   UNL     1      -1.701  -2.975  27.628  0.00  0.00    +0.067 C 
ATOM     16  C   UNL     1      -1.081  -4.346  27.809  0.00  0.00    +0.036 C 
BRANCH  11  18
ATOM     17  C   UNL     1       1.579  -4.581  27.553  0.00  0.00    +0.114 C 
ATOM     18  N   UNL     1       1.170  -4.109  28.649  0.00  0.00    -0.265 NA
ENDBRANCH  11  18
ENDBRANCH   1  11
TORSDOF 2
REMARK  Name = =
REMARK  11 active torsions:
REMARK  status: ('A' for Active; 'I' for Inactive)
REMARK    1  A    between atoms: O_2  and  N_3
REMARK    2  A    between atoms: N_5  and  C_6
REMARK    3  A    between atoms: C_6  and  C_12
REMARK    4  A    between atoms: C_23  and  N_24
REMARK    5  A    between atoms: C_23  and  C_25
REMARK    6  A    between atoms: N_24  and  N_30
REMARK    7  A    between atoms: N_30  and  C_31
REMARK    8  A    between atoms: C_31  and  N_33
REMARK    9  A    between atoms: O_34  and  S_35
REMARK   10  A    between atoms: C_38  and  C_40
REMARK   11  A    between atoms: C_40  and  O_41
REMARK                            x       y       z     vdW  Elec       q    Type
REMARK                         _______ _______ _______ _____ _____    ______ ____
ROOT
ATOM      1  O   UNL     1       4.138  -5.565  26.024  0.00  0.00    -0.269 OA
ATOM      2  C   UNL     1       3.855  -5.960  24.726  0.00  0.00    +0.289 C 
ENDROOT
BRANCH   2   3
ATOM      3  C   UNL     1       2.590  -6.586  24.270  0.00  0.00    +0.194 C 
ATOM      4  N   UNL     1       1.954  -5.883  23.210  0.00  0.00    -0.277 NA
ATOM      5  C   UNL     1       1.694  -6.846  22.158  0.00  0.00    +0.087 C 
ATOM      6  C   UNL     1       2.724  -7.937  22.390  0.00  0.00    +0.087 C 
ATOM      7  N   UNL     1       2.797  -7.954  23.839  0.00  0.00    -0.277 NA
ATOM      8  H   UNL     1       2.565  -5.143  22.864  0.00  0.00    +0.125 HD
ATOM      9  H   UNL     1       3.712  -8.286  24.143  0.00  0.00    +0.125 HD
ENDBRANCH   2   3
BRANCH   2  10
ATOM     10  N   UNL     1       4.806  -5.742  23.889  0.00  0.00    -0.109 NA
BRANCH  10  11
ATOM     11  N   UNL     1       4.663  -6.087  22.554  0.00  0.00    -0.225 N 
ATOM     12  H   UNL     1       4.113  -6.873  22.331  0.00  0.00    +0.174 HD
BRANCH  11  13
ATOM     13  C   UNL     1       5.270  -5.364  21.490  0.00  0.00    +0.146 C 
ATOM     14  S   UNL     1       6.306  -4.143  21.807  0.00  0.00    -0.018 S 
BRANCH  13  15
ATOM     15  N   UNL     1       5.017  -5.658  20.123  0.00  0.00    -0.339 N 
ATOM     16  H   UNL     1       5.458  -5.133  19.417  0.00  0.00    +0.144 HD
ATOM     17  H   UNL     1       4.401  -6.387  19.882  0.00  0.00    +0.144 HD
ENDBRANCH  13  15
ENDBRANCH  11  13
ENDBRANCH  10  11
ENDBRANCH   2  10
TORSDOF 5
REMARK  Name = =
REMARK  11 active torsions:
REMARK  status: ('A' for Active; 'I' for Inactive)
REMARK    1  A    between atoms: O_2  and  N_3
REMARK    2  A    between atoms: N_5  and  C_6
REMARK    3  A    between atoms: C_6  and  C_12
REMARK    4  A    between atoms: C_23  and  N_24
REMARK    5  A    between atoms: C_23  and  C_25
REMARK    6  A    between atoms: N_24  and  N_30
REMARK    7  A    between atoms: N_30  and  C_31
REMARK    8  A    between atoms: C_31  and  N_33
REMARK    9  A    between atoms: O_34  and  S_35
REMARK   10  A    between atoms: C_38  and  C_40
REMARK   11  A    between atoms: C_40  and  O_41
REMARK                            x       y       z     vdW  Elec       q    Type
REMARK                         _______ _______ _______ _____ _____    ______ ____
ROOT
ATOM      1  S   UNL     1       2.525  -2.473  25.278  0.00  0.00    -0.023 S 
ATOM      2  N   UNL     1       1.937  -0.694  25.193  0.00  0.00    -0.208 NA
ATOM      3  C   UNL     1       2.649  -0.156  24.314  0.00  0.00    +0.106 C 
ATOM      4  C   UNL     1       3.656  -0.913  23.625  0.00  0.00    +0.035 C 
ATOM      5  C   UNL     1       3.787  -2.153  23.951  0.00  0.00    +0.054 C 
ATOM      6  H   UNL     1       1.638  -3.494  25.132  0.00  0.00    +0.137 HD
ENDROOT
BRANCH   1   7
ATOM      7  O   UNL     1       3.153  -2.856  26.676  0.00  0.00    -0.329 OA
ATOM      8  H   UNL     1       2.443  -3.009  27.319  0.00  0.00    +0.227 HD
ENDBRANCH   1   7
BRANCH   4   9
ATOM      9  C   UNL     1       4.561  -0.322  22.543  0.00  0.00    +0.166 C 
BRANCH   9  10
ATOM     10  O   UNL     1       4.193   0.970  22.258  0.00  0.00    -0.377 OA
ATOM     11  H   UNL     1       4.777   1.328  21.571  0.00  0.00    +0.211 HD
ENDBRANCH   9  10
ENDBRANCH   4   9
TORSDOF 3
