REMARK  Name = =
REMARK  1 active torsions:
REMARK  status: ('A' for Active; 'I' for Inactive)
REMARK    1  A    between atoms: C_1  and  N_11
REMARK                            x       y       z     vdW  Elec       q    Type
REMARK                         _______ _______ _______ _____ _____    ______ ____
ROOT
ATOM      1  C   UNL     1     -13.008 -43.136  27.535  0.00  0.00    +0.054 C 
ATOM      2  C   UNL     1     -11.797 -42.487  27.538  0.00  0.00    +0.091 C 
ATOM      3  C   UNL     1     -10.819 -42.782  28.489  0.00  0.00    +0.095 C 
ATOM      4  C   UNL     1     -11.101 -43.746  29.433  0.00  0.00    +0.176 C 
ATOM      5  N   UNL     1     -12.287 -44.354  29.397  0.00  0.00    -0.223 NA
ATOM      6  C   UNL     1     -13.237 -44.087  28.497  0.00  0.00    +0.111 C 
ATOM      7  N   UNL     1     -10.180 -44.074  30.386  0.00  0.00    -0.227 NA
ATOM      8  C   UNL     1      -8.995 -43.469  30.423  0.00  0.00    +0.101 C 
ATOM      9  C   UNL     1      -8.716 -42.496  29.468  0.00  0.00    +0.172 C 
ATOM     10  N   UNL     1      -9.633 -42.175  28.525  0.00  0.00    -0.265 NA
ENDROOT
BRANCH   1  11
ATOM     11  N   UNL     1     -14.038 -42.866  26.577  0.00  0.00    -0.285 N 
ATOM     12  C   UNL     1     -13.618 -42.883  25.178  0.00  0.00    +0.116 C 
ATOM     13  C   UNL     1     -14.805 -42.815  24.263  0.00  0.00    +0.109 C 
ATOM     14  N   UNL     1     -15.639 -41.717  24.713  0.00  0.00    -0.329 N 
ATOM     15  C   UNL     1     -16.258 -41.974  25.973  0.00  0.00    +0.074 C 
ATOM     16  C   UNL     1     -15.385 -42.597  27.002  0.00  0.00    +0.081 C 
ATOM     17  H   UNL     1     -15.765 -40.884  24.204  0.00  0.00    +0.147 HD
ENDBRANCH   1  11
TORSDOF 1
