REMARK  Name = =
REMARK  0 active torsions:
REMARK  status: ('A' for Active; 'I' for Inactive)
REMARK                            x       y       z     vdW  Elec       q    Type
REMARK                         _______ _______ _______ _____ _____    ______ ____
ROOT
ATOM      1  N   UNL     1      42.120 159.319  22.160  0.00  0.00    -0.297 NA
ATOM      2  C   UNL     1      41.067 158.386  22.003  0.00  0.00    +0.073 C 
ATOM      3  C   UNL     1      39.727 158.800  22.423  0.00  0.00    +0.043 C 
ATOM      4  C   UNL     1      39.594 159.524  23.675  0.00  0.00    -0.025 C 
ATOM      5  C   UNL     1      40.494 160.126  24.514  0.00  0.00    -0.025 C 
ATOM      6  C   UNL     1      40.074 160.765  25.682  0.00  0.00    -0.005 C 
ATOM      7  C   UNL     1      38.750 160.817  26.035  0.00  0.00    -0.000 C 
ATOM      8  C   UNL     1      37.831 160.217  25.203  0.00  0.00    -0.000 C 
ATOM      9  C   UNL     1      38.253 159.582  24.041  0.00  0.00    -0.005 C 
ATOM     10  C   UNL     1      41.938 160.235  24.410  0.00  0.00    +0.043 C 
ATOM     11  C   UNL     1      42.607 159.265  23.515  0.00  0.00    +0.073 C 
ATOM     12  H   UNL     1      42.877 159.089  21.516  0.00  0.00    +0.123 HD
ENDROOT
TORSDOF 0
