REMARK  Name = =
REMARK  2 active torsions:
REMARK  status: ('A' for Active; 'I' for Inactive)
REMARK    1  A    between atoms: S_1  and  S_2
REMARK    2  A    between atoms: S_1  and  S_3
REMARK                            x       y       z     vdW  Elec       q    Type
REMARK                         _______ _______ _______ _____ _____    ______ ____
ROOT
ATOM      1  S   UNL     1      52.025 155.322  28.376  0.00  0.00    -0.031 S 
ENDROOT
BRANCH   1   2
ATOM      2  S   UNL     1      52.825 156.351  26.697  0.00  0.00    -0.099 S 
ATOM      3  H   UNL     1      52.801 157.690  26.933  0.00  0.00    +0.115 HD
ENDBRANCH   1   2
BRANCH   1   4
ATOM      4  S   UNL     1      52.056 153.236  28.023  0.00  0.00    -0.099 S 
ATOM      5  H   UNL     1      51.543 152.586  29.102  0.00  0.00    +0.115 HD
ENDBRANCH   1   4
TORSDOF 2
