REMARK  Name = =
REMARK  0 active torsions:
REMARK  status: ('A' for Active; 'I' for Inactive)
REMARK                            x       y       z     vdW  Elec       q    Type
REMARK                         _______ _______ _______ _____ _____    ______ ____
ROOT
ATOM      1  C   UNL     1      51.616 155.776  28.596  0.00  0.00    +0.038 C 
ATOM      2  C   UNL     1      52.594 156.548  28.013  0.00  0.00    +0.004 C 
ATOM      3  C   UNL     1      52.686 157.934  28.276  0.00  0.00    +0.000 C 
ATOM      4  C   UNL     1      51.767 158.497  29.133  0.00  0.00    +0.000 C 
ATOM      5  C   UNL     1      50.777 157.761  29.732  0.00  0.00    +0.000 C 
ATOM      6  C   UNL     1      50.716 156.392  29.449  0.00  0.00    +0.003 C 
ATOM      7  C   UNL     1      53.525 155.952  27.079  0.00  0.00    +0.008 C 
ATOM      8  C   UNL     1      54.218 156.711  26.171  0.00  0.00    +0.001 C 
ATOM      9  C   UNL     1      55.129 156.147  25.293  0.00  0.00    +0.000 C 
ATOM     10  C   UNL     1      55.371 154.788  25.309  0.00  0.00    +0.001 C 
ATOM     11  C   UNL     1      54.681 154.015  26.217  0.00  0.00    +0.008 C 
ATOM     12  C   UNL     1      53.766 154.592  27.095  0.00  0.00    +0.048 C 
ATOM     13  N   UNL     1      52.000 153.776  27.165  0.00  0.00    -0.160 N 
ATOM     14  N   UNL     1      51.794 152.464  27.298  0.00  0.00    -0.032 NA
ATOM     15  N   UNL     1      51.254 152.236  28.453  0.00  0.00    -0.022 NA
ATOM     16  N   UNL     1      51.102 153.366  29.079  0.00  0.00    -0.107 NA
ATOM     17  C   UNL     1      51.572 154.358  28.272  0.00  0.00    +0.195 A 
ATOM     18  S   UNL     1      52.741 154.458  25.724  0.00  0.00    +0.017 S 
ENDROOT
TORSDOF 0
REMARK  Name = =
REMARK  0 active torsions:
REMARK  status: ('A' for Active; 'I' for Inactive)
REMARK                            x       y       z     vdW  Elec       q    Type
REMARK                         _______ _______ _______ _____ _____    ______ ____
ROOT
ATOM      1  S   UNL     1      53.351 152.883  24.392  0.00  0.00    -0.016 S 
ATOM      2  S   UNL     1      54.947 153.547  23.165  0.00  0.00    -0.098 S 
ATOM      3  H   UNL     1      55.954 152.634  23.198  0.00  0.00    +0.115 HD
ENDROOT
TORSDOF 0
