REMARK  Name = =
REMARK  1 active torsions:
REMARK  status: ('A' for Active; 'I' for Inactive)
REMARK    1  A    between atoms: N_1  and  C_12
REMARK                            x       y       z     vdW  Elec       q    Type
REMARK                         _______ _______ _______ _____ _____    ______ ____
ROOT
ATOM      1  N   UNL     1      42.035 158.474  22.618  0.00  0.00    -0.261 NA
ATOM      2  C   UNL     1      41.080 159.203  21.835  0.00  0.00    +0.077 C 
ATOM      3  C   UNL     1      39.698 158.834  22.379  0.00  0.00    +0.043 C 
ATOM      4  C   UNL     1      39.558 159.561  23.679  0.00  0.00    -0.025 C 
ATOM      5  C   UNL     1      40.509 160.241  24.410  0.00  0.00    -0.025 C 
ATOM      6  C   UNL     1      40.100 160.825  25.588  0.00  0.00    -0.005 C 
ATOM      7  C   UNL     1      38.779 160.731  26.023  0.00  0.00    -0.000 C 
ATOM      8  C   UNL     1      37.863 160.045  25.266  0.00  0.00    -0.000 C 
ATOM      9  C   UNL     1      38.242 159.457  24.095  0.00  0.00    -0.005 C 
ATOM     10  C   UNL     1      41.928 160.447  24.120  0.00  0.00    +0.043 C 
ATOM     11  C   UNL     1      42.662 159.218  23.646  0.00  0.00    +0.077 C 
ENDROOT
BRANCH   1  12
ATOM     12  C   UNL     1      43.048 157.904  21.748  0.00  0.00    +0.202 C 
ATOM     13  C   UNL     1      44.258 157.394  22.508  0.00  0.00    +0.236 C 
ATOM     14  O   UNL     1      45.410 157.964  22.008  0.00  0.00    -0.443 OA
ATOM     15  C   UNL     1      46.105 157.801  20.856  0.00  0.00    +0.341 C 
ATOM     16  O   UNL     1      47.318 157.388  20.929  0.00  0.00    -0.245 OA
ATOM     17  C   UNL     1      45.619 158.050  19.475  0.00  0.00    +0.081 C 
ATOM     18  C   UNL     1      44.907 156.936  18.836  0.00  0.00    +0.027 C 
ATOM     19  C   UNL     1      44.499 155.798  19.695  0.00  0.00    +0.235 C 
ATOM     20  O   UNL     1      43.350 155.891  20.404  0.00  0.00    -0.442 OA
ATOM     21  C   UNL     1      42.523 156.814  20.884  0.00  0.00    +0.336 C 
ATOM     22  O   UNL     1      41.295 156.817  20.645  0.00  0.00    -0.248 OA
ENDBRANCH   1  12
TORSDOF 1
