REMARK  Name = =
REMARK  3 active torsions:
REMARK  status: ('A' for Active; 'I' for Inactive)
REMARK    1  A    between atoms: C_1  and  N_12
REMARK    2  A    between atoms: C_1  and  N_23
REMARK    3  A    between atoms: N_26  and  N_27
REMARK                            x       y       z     vdW  Elec       q    Type
REMARK                         _______ _______ _______ _____ _____    ______ ____
ROOT
ATOM      1  C   UNL     1      42.685 158.156  21.248  0.00  0.00    +0.239 C 
ATOM      2  C   UNL     1      43.842 158.896  20.663  0.00  0.00    +0.253 C 
ATOM      3  O   UNL     1      45.054 158.329  21.099  0.00  0.00    -0.445 OA
ATOM      4  C   UNL     1      46.043 157.867  20.263  0.00  0.00    +0.317 C 
ATOM      5  O   UNL     1      47.241 158.138  20.513  0.00  0.00    -0.250 OA
ATOM      6  C   UNL     1      45.670 157.057  19.085  0.00  0.00    +0.113 C 
ATOM      7  C   UNL     1      45.297 155.666  19.591  0.00  0.00    +0.059 C 
ATOM      8  C   UNL     1      43.788 155.615  19.657  0.00  0.00    +0.209 C 
ATOM      9  O   UNL     1      43.303 155.773  20.970  0.00  0.00    -0.446 OA
ATOM     10  C   UNL     1      43.366 156.854  21.763  0.00  0.00    +0.351 C 
ATOM     11  O   UNL     1      43.898 156.970  22.869  0.00  0.00    -0.247 OA
ENDROOT
BRANCH   1  12
ATOM     12  N   UNL     1      42.162 158.822  22.389  0.00  0.00    -0.249 NA
ATOM     13  C   UNL     1      41.694 160.127  22.280  0.00  0.00    +0.079 C 
ATOM     14  C   UNL     1      40.201 160.364  22.290  0.00  0.00    +0.043 C 
ATOM     15  C   UNL     1      39.626 160.186  23.622  0.00  0.00    -0.025 C 
ATOM     16  C   UNL     1      40.090 159.400  24.659  0.00  0.00    -0.025 C 
ATOM     17  C   UNL     1      39.484 159.310  25.864  0.00  0.00    -0.005 C 
ATOM     18  C   UNL     1      38.334 160.046  26.075  0.00  0.00    -0.000 C 
ATOM     19  C   UNL     1      37.842 160.834  25.084  0.00  0.00    -0.000 C 
ATOM     20  C   UNL     1      38.495 160.909  23.833  0.00  0.00    -0.005 C 
ATOM     21  C   UNL     1      41.317 158.528  24.608  0.00  0.00    +0.043 C 
ATOM     22  C   UNL     1      41.354 157.946  23.223  0.00  0.00    +0.079 C 
ENDBRANCH   1  12
BRANCH   1  23
ATOM     23  N   UNL     1      41.699 157.675  20.356  0.00  0.00    -0.267 N 
ATOM     24  C   UNL     1      40.994 158.427  19.389  0.00  0.00    +0.318 C 
ATOM     25  O   UNL     1      41.195 159.617  19.229  0.00  0.00    -0.251 OA
ATOM     26  N   UNL     1      40.010 157.759  18.572  0.00  0.00    -0.189 N 
ATOM     27  H   UNL     1      41.481 156.717  20.415  0.00  0.00    +0.153 HD
ATOM     28  H   UNL     1      39.825 156.798  18.678  0.00  0.00    +0.175 HD
BRANCH  26  29
ATOM     29  N   UNL     1      39.328 158.529  17.623  0.00  0.00    +0.051 NA
ATOM     30  O   UNL     1      38.366 159.267  17.893  0.00  0.00    -0.079 OA
ENDBRANCH  26  29
ENDBRANCH   1  23
TORSDOF 3
