REMARK  Name = =
REMARK  4 active torsions:
REMARK  status: ('A' for Active; 'I' for Inactive)
REMARK    1  A    between atoms: C_1  and  N_12
REMARK    2  A    between atoms: C_1  and  N_29
REMARK    3  A    between atoms: C_21  and  N_23
REMARK    4  A    between atoms: N_32  and  N_33
REMARK                            x       y       z     vdW  Elec       q    Type
REMARK                         _______ _______ _______ _____ _____    ______ ____
ROOT
ATOM      1  C   UNL     1      40.316 159.050  23.232  0.00  0.00    +0.239 C 
ATOM      2  C   UNL     1      39.634 157.677  23.116  0.00  0.00    +0.253 C 
ATOM      3  O   UNL     1      38.323 157.674  23.569  0.00  0.00    -0.445 OA
ATOM      4  C   UNL     1      37.914 156.922  24.675  0.00  0.00    +0.317 C 
ATOM      5  O   UNL     1      36.706 156.557  24.685  0.00  0.00    -0.250 OA
ATOM      6  C   UNL     1      38.791 156.548  25.784  0.00  0.00    +0.113 C 
ATOM      7  C   UNL     1      39.020 157.670  26.766  0.00  0.00    +0.059 C 
ATOM      8  C   UNL     1      38.929 159.033  26.113  0.00  0.00    +0.209 C 
ATOM      9  O   UNL     1      40.148 159.496  25.636  0.00  0.00    -0.446 OA
ATOM     10  C   UNL     1      40.904 159.096  24.578  0.00  0.00    +0.351 C 
ATOM     11  O   UNL     1      42.121 158.771  24.810  0.00  0.00    -0.247 OA
ENDROOT
BRANCH   1  12
ATOM     12  N   UNL     1      41.122 159.211  22.123  0.00  0.00    -0.247 NA
ATOM     13  C   UNL     1      41.991 158.273  21.737  0.00  0.00    +0.079 C 
ATOM     14  C   UNL     1      43.150 157.574  21.278  0.00  0.00    +0.043 C 
ATOM     15  C   UNL     1      44.196 158.608  20.920  0.00  0.00    -0.023 C 
ATOM     16  C   UNL     1      44.102 159.940  21.279  0.00  0.00    -0.010 C 
ATOM     17  C   UNL     1      45.185 160.716  20.861  0.00  0.00    -0.003 C 
ATOM     18  C   UNL     1      46.254 160.220  20.156  0.00  0.00    -0.000 C 
ATOM     19  C   UNL     1      46.279 158.890  19.835  0.00  0.00    -0.000 C 
ATOM     20  C   UNL     1      45.238 158.095  20.225  0.00  0.00    -0.004 C 
ATOM     21  C   UNL     1      43.116 160.732  22.005  0.00  0.00    +0.096 C 
ATOM     22  C   UNL     1      41.657 160.571  21.869  0.00  0.00    +0.094 C 
BRANCH  21  23
ATOM     23  N   UNL     1      43.348 162.152  21.660  0.00  0.00    -0.269 NA
ATOM     24  C   UNL     1      42.696 162.557  20.466  0.00  0.00    +0.072 C 
ATOM     25  C   UNL     1      43.264 163.889  20.023  0.00  0.00    +0.017 C 
ATOM     26  C   UNL     1      43.088 164.874  21.131  0.00  0.00    +0.003 C 
ATOM     27  C   UNL     1      42.491 164.270  22.382  0.00  0.00    +0.017 C 
ATOM     28  C   UNL     1      43.236 163.008  22.784  0.00  0.00    +0.072 C 
ENDBRANCH  21  23
ENDBRANCH   1  12
BRANCH   1  29
ATOM     29  N   UNL     1      39.239 160.029  23.166  0.00  0.00    -0.267 N 
ATOM     30  C   UNL     1      38.583 160.243  21.943  0.00  0.00    +0.318 C 
ATOM     31  O   UNL     1      38.922 159.589  20.904  0.00  0.00    -0.251 OA
ATOM     32  N   UNL     1      37.530 161.200  21.875  0.00  0.00    -0.189 N 
ATOM     33  H   UNL     1      38.975 160.534  23.969  0.00  0.00    +0.153 HD
ATOM     34  H   UNL     1      37.264 161.709  22.675  0.00  0.00    +0.175 HD
BRANCH  32  35
ATOM     35  N   UNL     1      36.882 161.404  20.656  0.00  0.00    +0.051 NA
ATOM     36  O   UNL     1      36.884 160.488  19.795  0.00  0.00    -0.079 OA
ENDBRANCH  32  35
ENDBRANCH   1  29
TORSDOF 4
