REMARK  Name = =
REMARK  6 active torsions:
REMARK  status: ('A' for Active; 'I' for Inactive)
REMARK    1  A    between atoms: S_1  and  C_6
REMARK    2  A    between atoms: C_2  and  S_17
REMARK    3  A    between atoms: C_6  and  C_11
REMARK    4  A    between atoms: S_17  and  P_18
REMARK    5  A    between atoms: P_18  and  O_20
REMARK    6  A    between atoms: P_18  and  O_21
REMARK                            x       y       z     vdW  Elec       q    Type
REMARK                         _______ _______ _______ _____ _____    ______ ____
ROOT
ATOM      1  S   UNL     1      54.266 153.728  25.213  0.00  0.00    -0.207 S 
ATOM      2  C   UNL     1      55.636 152.511  25.326  0.00  0.00    +0.088 C 
ATOM      3  C   UNL     1      55.006 151.308  24.771  0.00  0.00    +0.022 C 
ATOM      4  C   UNL     1      53.928 151.551  23.830  0.00  0.00    +0.012 C 
ATOM      5  C   UNL     1      53.684 153.021  23.640  0.00  0.00    +0.039 C 
ATOM      6  H   UNL     1      54.572 155.051  25.284  0.00  0.00    +0.086 HD
ENDROOT
BRANCH   1   7
ATOM      7  C   UNL     1      53.140 153.765  26.480  0.00  0.00    +0.096 C 
ATOM      8  S   UNL     1      53.384 152.441  27.736  0.00  0.00    -0.110 S 
ATOM      9  C   UNL     1      51.598 152.104  28.029  0.00  0.00    +0.129 C 
ATOM     10  N   UNL     1      50.995 153.199  27.287  0.00  0.00    -0.287 NA
ATOM     11  C   UNL     1      51.734 153.311  26.030  0.00  0.00    +0.092 C 
ATOM     12  H   UNL     1      51.070 154.067  27.818  0.00  0.00    +0.124 HD
BRANCH   7  13
ATOM     13  C   UNL     1      52.929 155.040  27.178  0.00  0.00    -0.005 C 
ATOM     14  C   UNL     1      52.487 154.995  28.449  0.00  0.00    -0.003 C 
ATOM     15  C   UNL     1      52.231 156.171  29.252  0.00  0.00    -0.000 C 
ATOM     16  C   UNL     1      52.432 157.356  28.713  0.00  0.00    -0.000 C 
ATOM     17  C   UNL     1      52.899 157.561  27.337  0.00  0.00    -0.000 C 
ATOM     18  C   UNL     1      53.207 156.331  26.577  0.00  0.00    -0.003 C 
ENDBRANCH   7  13
ENDBRANCH   1   7
BRANCH   2  19
ATOM     19  S   UNL     1      56.177 152.398  27.039  0.00  0.00    -0.023 S 
BRANCH  19  20
ATOM     20  P   UNL     1      58.171 151.730  27.065  0.00  0.00    +0.388 P 
ATOM     21  O   UNL     1      59.146 152.783  26.590  0.00  0.00    -0.246 OA
BRANCH  20  22
ATOM     22  O   UNL     1      58.513 151.294  28.687  0.00  0.00    -0.316 OA
ATOM     23  H   UNL     1      58.442 152.078  29.254  0.00  0.00    +0.221 HD
ENDBRANCH  20  22
BRANCH  20  24
ATOM     24  O   UNL     1      58.315 150.327  26.157  0.00  0.00    -0.316 OA
ATOM     25  H   UNL     1      57.681 149.667  26.479  0.00  0.00    +0.221 HD
ENDBRANCH  20  24
ENDBRANCH  19  20
ENDBRANCH   2  19
TORSDOF 6
