REMARK  Name = =
REMARK  3 active torsions:
REMARK  status: ('A' for Active; 'I' for Inactive)
REMARK    1  A    between atoms: C_1  and  C_17
REMARK    2  A    between atoms: C_4  and  C_7
REMARK    3  A    between atoms: C_8  and  N_14
REMARK                            x       y       z     vdW  Elec       q    Type
REMARK                         _______ _______ _______ _____ _____    ______ ____
ROOT
ATOM      1  C   UNL     1      -2.506  -5.194  30.011  0.00  0.00    +0.006 C 
ATOM      2  C   UNL     1      -3.446  -5.464  30.864  0.00  0.00    -0.002 C 
ATOM      3  C   UNL     1      -4.334  -4.399  31.361  0.00  0.00    -0.000 C 
ATOM      4  C   UNL     1      -4.196  -3.154  30.955  0.00  0.00    +0.004 C 
ATOM      5  C   UNL     1      -3.167  -2.793  29.991  0.00  0.00    -0.000 C 
ATOM      6  C   UNL     1      -2.262  -3.848  29.497  0.00  0.00    -0.002 C 
ENDROOT
BRANCH   4   7
ATOM      7  C   UNL     1      -5.133  -2.138  31.505  0.00  0.00    +0.050 C 
ATOM      8  C   UNL     1      -5.024  -0.826  31.161  0.00  0.00    +0.130 C 
ATOM      9  N   UNL     1      -5.940   0.065  31.712  0.00  0.00    -0.199 NA
ATOM     10  C   UNL     1      -6.895  -0.294  32.540  0.00  0.00    +0.215 C 
ATOM     11  N   UNL     1      -7.013  -1.583  32.887  0.00  0.00    -0.212 NA
ATOM     12  C   UNL     1      -6.143  -2.494  32.376  0.00  0.00    +0.105 C 
ATOM     13  N   UNL     1      -7.808   0.660  33.076  0.00  0.00    -0.327 N 
ATOM     14  H   UNL     1      -7.730   1.609  32.828  0.00  0.00    +0.145 HD
ATOM     15  H   UNL     1      -8.517   0.370  33.695  0.00  0.00    +0.145 HD
BRANCH   8  16
ATOM     16  N   UNL     1      -4.064  -0.256  30.292  0.00  0.00    -0.343 N 
ATOM     17  H   UNL     1      -3.385  -0.827  29.866  0.00  0.00    +0.144 HD
ATOM     18  H   UNL     1      -4.075   0.712  30.113  0.00  0.00    +0.144 HD
ENDBRANCH   8  16
ENDBRANCH   4   7
BRANCH   1  21
ATOM     19  N   UNL     1       0.739  -6.908  29.523  0.00  0.00    -0.293 NA
ATOM     20  C   UNL     1      -0.205  -5.848  29.704  0.00  0.00    +0.103 C 
ATOM     21  C   UNL     1      -1.620  -6.285  29.521  0.00  0.00    +0.153 C 
ATOM     22  O   UNL     1      -1.921  -7.513  30.035  0.00  0.00    -0.349 OA
ATOM     23  C   UNL     1      -0.977  -8.062  30.858  0.00  0.00    +0.160 C 
ATOM     24  C   UNL     1       0.417  -8.043  30.332  0.00  0.00    +0.101 C 
ATOM     25  H   UNL     1       1.667  -6.572  29.779  0.00  0.00    +0.123 HD
ENDBRANCH   1  21
TORSDOF 3
