MODEL 1
REMARK VINA RESULT:    -8.174      0.000      0.000
REMARK INTER + INTRA:         -10.445
REMARK INTER:                 -10.324
REMARK INTRA:                  -0.121
REMARK UNBOUND:                -0.121
REMARK  Name = =
REMARK  5 active torsions:
REMARK  status: ('A' for Active; 'I' for Inactive)
REMARK    1  A    between atoms: C_1  and  C_10
REMARK    2  A    between atoms: C_3  and  N_20
REMARK    3  A    between atoms: C_5  and  C_13
REMARK    4  A    between atoms: C_16  and  N_19
REMARK    5  A    between atoms: N_20  and  S_21
REMARK                            x       y       z     vdW  Elec       q    Type
REMARK                         _______ _______ _______ _____ _____    ______ ____
ROOT
ATOM      1  C   UNL     1      52.836 160.823  42.291  0.00  0.00    -0.011 C 
ATOM      2  C   UNL     1      52.191 159.652  42.600  0.00  0.00    +0.012 C 
ATOM      3  C   UNL     1      50.819 159.519  42.570  0.00  0.00    +0.064 C 
ATOM      4  C   UNL     1      50.083 160.619  42.213  0.00  0.00    +0.016 C 
ATOM      5  C   UNL     1      50.709 161.822  41.894  0.00  0.00    +0.001 C 
ATOM      6  C   UNL     1      52.091 161.918  41.936  0.00  0.00    -0.004 C 
ENDROOT
BRANCH   1  10
ATOM      7  O   UNL     1      56.252 159.908  41.711  0.00  0.00    -0.448 OA
ATOM      8  C   UNL     1      56.347 161.272  41.344  0.00  0.00    +0.209 C 
ATOM      9  C   UNL     1      54.887 161.700  41.185  0.00  0.00    +0.063 C 
ATOM     10  C   UNL     1      54.284 160.891  42.344  0.00  0.00    +0.125 C 
ATOM     11  C   UNL     1      54.960 159.596  42.116  0.00  0.00    +0.321 C 
ATOM     12  O   UNL     1      54.522 158.417  42.242  0.00  0.00    -0.250 OA
ENDBRANCH   1  10
BRANCH   5  13
ATOM     13  C   UNL     1      49.922 162.992  41.515  0.00  0.00    +0.000 C 
ATOM     14  C   UNL     1      48.682 162.835  40.930  0.00  0.00    +0.001 C 
ATOM     15  C   UNL     1      47.913 163.917  40.559  0.00  0.00    +0.014 C 
ATOM     16  C   UNL     1      48.362 165.201  40.765  0.00  0.00    +0.042 C 
ATOM     17  C   UNL     1      49.608 165.392  41.354  0.00  0.00    +0.014 C 
ATOM     18  C   UNL     1      50.357 164.281  41.713  0.00  0.00    +0.001 C 
BRANCH  16  19
ATOM     19  N   UNL     1      47.553 166.301  40.377  0.00  0.00    -0.357 N 
ATOM     20  H   UNL     1      47.844 166.892  39.645  0.00  0.00    +0.142 HD
ATOM     21  H   UNL     1      46.700 166.473  40.839  0.00  0.00    +0.142 HD
ENDBRANCH  16  19
ENDBRANCH   5  13
BRANCH   3  22
ATOM     22  N   UNL     1      50.148 158.307  42.889  0.00  0.00    -0.222 N 
ATOM     23  H   UNL     1      49.410 158.353  43.538  0.00  0.00    +0.173 HD
BRANCH  22  24
ATOM     24  S   UNL     1      50.528 156.776  42.228  0.00  0.00    +0.033 S 
ATOM     25  O   UNL     1      50.892 156.937  40.765  0.00  0.00    -0.158 OA
ATOM     26  O   UNL     1      49.420 155.780  42.361  0.00  0.00    -0.158 OA
ATOM     27  H   UNL     1      51.580 156.289  42.940  0.00  0.00    +0.233 HD
ENDBRANCH  22  24
ENDBRANCH   3  22
TORSDOF 5
ENDMDL
