REMARK  Name = =
REMARK  10 active torsions:
REMARK  status: ('A' for Active; 'I' for Inactive)
REMARK    1  A    between atoms: N_1  and  C_7
REMARK    2  A    between atoms: N_1  and  N_14
REMARK    3  A    between atoms: N_1  and  C_15
REMARK    4  A    between atoms: C_15  and  N_17
REMARK    5  A    between atoms: N_17  and  P_18
REMARK    6  A    between atoms: P_18  and  O_19
REMARK    7  A    between atoms: P_18  and  N_20
REMARK    8  A    between atoms: P_18  and  N_21
REMARK    9  A    between atoms: O_19  and  O_22
REMARK   10  A    between atoms: O_22  and  C_23
REMARK                            x       y       z     vdW  Elec       q    Type
REMARK                         _______ _______ _______ _____ _____    ______ ____
ROOT
ATOM      1  N   UNL     1      -9.502 -45.763  30.022  0.00  0.00    -0.225 N 
ENDROOT
BRANCH   1   7
ATOM      2  C   UNL     1     -11.779 -43.485  28.582  0.00  0.00    -0.022 C 
ATOM      3  C   UNL     1     -11.347 -44.683  28.850  0.00  0.00    +0.111 C 
ATOM      4  N   UNL     1     -12.472 -45.574  29.107  0.00  0.00    -0.291 NA
ATOM      5  C   UNL     1     -13.569 -44.705  29.480  0.00  0.00    +0.073 C 
ATOM      6  C   UNL     1     -13.281 -43.501  28.629  0.00  0.00    +0.041 C 
ATOM      7  C   UNL     1      -9.912 -45.022  28.853  0.00  0.00    +0.065 C 
ATOM      8  C   UNL     1      -9.028 -43.898  28.559  0.00  0.00    +0.033 C 
ATOM      9  C   UNL     1      -9.458 -42.688  28.298  0.00  0.00    +0.082 C 
ATOM     10  C   UNL     1     -10.873 -42.364  28.282  0.00  0.00    +0.013 C 
ATOM     11  C   UNL     1     -10.991 -41.088  27.988  0.00  0.00    +0.022 C 
ATOM     12  C   UNL     1      -9.643 -40.511  27.796  0.00  0.00    +0.099 C 
ATOM     13  N   UNL     1      -8.774 -41.454  27.980  0.00  0.00    -0.244 NA
ATOM     14  H   UNL     1     -12.252 -46.218  29.867  0.00  0.00    +0.124 HD
ENDBRANCH   1   7
BRANCH   1  15
ATOM     15  N   UNL     1      -9.026 -47.095  29.829  0.00  0.00    -0.248 NA
ATOM     16  H   UNL     1      -8.772 -47.499  30.730  0.00  0.00    +0.141 HD
ATOM     17  H   UNL     1      -8.207 -47.079  29.221  0.00  0.00    +0.141 HD
ENDBRANCH   1  15
BRANCH   1  18
ATOM     18  C   UNL     1      -9.551 -45.245  31.312  0.00  0.00    +0.119 C 
ATOM     19  C   UNL     1     -10.652 -44.854  31.888  0.00  0.00    +0.034 C 
BRANCH  18  20
ATOM     20  N   UNL     1      -8.363 -45.128  32.144  0.00  0.00    -0.277 N 
ATOM     21  H   UNL     1      -8.255 -45.753  32.897  0.00  0.00    +0.155 HD
BRANCH  20  22
ATOM     22  P   UNL     1      -7.118 -43.932  31.871  0.00  0.00    +0.156 P 
ATOM     23  H   UNL     1      -8.441 -44.080  32.236  0.00  0.00    +0.129 HD
BRANCH  22  24
ATOM     24  N   UNL     1      -6.401 -44.243  30.340  0.00  0.00    -0.273 NA
ATOM     25  H   UNL     1      -5.403 -44.037  30.384  0.00  0.00    +0.127 HD
ATOM     26  H   UNL     1      -6.839 -43.652  29.633  0.00  0.00    +0.127 HD
ENDBRANCH  22  24
BRANCH  22  27
ATOM     27  N   UNL     1      -8.005 -42.444  32.004  0.00  0.00    -0.273 NA
ATOM     28  H   UNL     1      -7.390 -41.661  31.784  0.00  0.00    +0.127 HD
ATOM     29  H   UNL     1      -8.358 -42.342  32.956  0.00  0.00    +0.127 HD
ENDBRANCH  22  27
BRANCH  22  30
ATOM     30  O   UNL     1      -6.047 -44.843  32.483  0.00  0.00    -0.134 OA
BRANCH  30  31
ATOM     31  O   UNL     1      -6.324 -43.776  33.403  0.00  0.00    -0.325 OA
BRANCH  31  32
ATOM     32  C   UNL     1      -5.727 -42.575  33.841  0.00  0.00    +0.221 C 
ATOM     33  C   UNL     1      -4.404 -42.537  33.873  0.00  0.00    +0.048 C 
ENDBRANCH  31  32
ENDBRANCH  30  31
ENDBRANCH  22  30
ENDBRANCH  20  22
ENDBRANCH  18  20
ENDBRANCH   1  18
TORSDOF 10
