MODEL 1
REMARK VINA RESULT:    -9.571      0.000      0.000
REMARK INTER + INTRA:         -13.682
REMARK INTER:                 -12.649
REMARK INTRA:                  -1.034
REMARK UNBOUND:                -1.034
REMARK  Name = =
REMARK  6 active torsions:
REMARK  status: ('A' for Active; 'I' for Inactive)
REMARK    1  A    between atoms: C_1  and  C_6
REMARK    2  A    between atoms: C_3  and  N_26
REMARK    3  A    between atoms: C_6  and  C_14
REMARK    4  A    between atoms: N_26  and  C_27
REMARK    5  A    between atoms: C_27  and  C_29
REMARK    6  A    between atoms: N_28  and  O_40
REMARK                            x       y       z     vdW  Elec       q    Type
REMARK                         _______ _______ _______ _____ _____    ______ ____
ROOT
ATOM      1  C   UNL     1      56.658 160.676  41.806  0.00  0.00    +0.133 C 
ATOM      2  O   UNL     1      56.117 161.825  42.183  0.00  0.00    -0.442 OA
ATOM      3  C   UNL     1      54.836 161.705  42.401  0.00  0.00    +0.220 C 
ATOM      4  C   UNL     1      54.446 160.411  42.169  0.00  0.00    +0.058 C 
ATOM      5  C   UNL     1      55.644 159.767  41.785  0.00  0.00    +0.038 C 
ENDROOT
BRANCH   1   6
ATOM      6  C   UNL     1      58.111 160.437  41.472  0.00  0.00    +0.105 C 
ATOM      7  C   UNL     1      58.128 158.877  41.327  0.00  0.00    +0.025 C 
ATOM      8  C   UNL     1      59.467 158.353  40.961  0.00  0.00    +0.070 C 
ATOM      9  C   UNL     1      60.560 159.171  41.540  0.00  0.00    +0.173 C 
ATOM     10  O   UNL     1      61.721 159.121  41.113  0.00  0.00    -0.291 OA
ATOM     11  C   UNL     1      60.201 160.053  42.654  0.00  0.00    +0.034 C 
ATOM     12  C   UNL     1      59.008 160.650  42.594  0.00  0.00    -0.011 C 
BRANCH   6  14
ATOM     13  N   UNL     1      58.382 160.145  39.119  0.00  0.00    -0.248 NA
ATOM     14  C   UNL     1      58.499 160.928  40.145  0.00  0.00    +0.065 C 
ATOM     15  C   UNL     1      58.986 162.283  39.854  0.00  0.00    -0.000 C 
ATOM     16  C   UNL     1      59.300 162.703  38.565  0.00  0.00    +0.069 C 
ATOM     17  C   UNL     1      59.153 161.828  37.519  0.00  0.00    +0.005 C 
ATOM     18  C   UNL     1      58.670 160.462  37.768  0.00  0.00    +0.095 C 
ATOM     19  C   UNL     1      59.470 162.234  36.218  0.00  0.00    -0.002 C 
ATOM     20  C   UNL     1      59.926 163.516  36.014  0.00  0.00    -0.001 C 
ATOM     21  C   UNL     1      60.077 164.402  37.061  0.00  0.00    -0.004 C 
ATOM     22  C   UNL     1      59.768 164.009  38.338  0.00  0.00    -0.014 C 
ATOM     23  C   UNL     1      59.900 164.831  39.424  0.00  0.00    -0.004 C 
ATOM     24  C   UNL     1      59.596 164.431  40.703  0.00  0.00    -0.001 C 
ATOM     25  C   UNL     1      59.136 163.147  40.915  0.00  0.00    -0.002 C 
ENDBRANCH   6  14
ENDBRANCH   1   6
BRANCH   3  26
ATOM     26  N   UNL     1      53.983 162.761  42.816  0.00  0.00    -0.157 NA
BRANCH  26  27
ATOM     27  C   UNL     1      53.166 163.246  41.784  0.00  0.00    +0.192 C 
ATOM     28  N   UNL     1      53.708 163.981  40.875  0.00  0.00    -0.069 NA
BRANCH  27  29
ATOM     29  C   UNL     1      51.741 162.978  41.662  0.00  0.00    +0.037 C 
ATOM     30  C   UNL     1      51.175 161.742  41.953  0.00  0.00    +0.004 C 
ATOM     31  C   UNL     1      49.822 161.519  41.828  0.00  0.00    +0.015 C 
ATOM     32  C   UNL     1      48.967 162.521  41.408  0.00  0.00    +0.051 C 
ATOM     33  C   UNL     1      49.522 163.743  41.118  0.00  0.00    +0.052 C 
ATOM     34  C   UNL     1      50.885 163.972  41.244  0.00  0.00    +0.007 C 
ATOM     35  C   UNL     1      48.664 164.747  40.696  0.00  0.00    +0.198 C 
ATOM     36  O   UNL     1      49.160 165.865  40.431  0.00  0.00    -0.286 OA
ATOM     37  C   UNL     1      47.311 164.504  40.578  0.00  0.00    +0.058 C 
ATOM     38  C   UNL     1      46.791 163.269  40.874  0.00  0.00    +0.065 C 
ATOM     39  N   UNL     1      47.633 162.304  41.284  0.00  0.00    -0.311 N 
ATOM     40  H   UNL     1      47.271 161.414  41.501  0.00  0.00    +0.152 HD
ENDBRANCH  27  29
BRANCH  28  41
ATOM     41  O   UNL     1      55.014 164.333  40.825  0.00  0.00    -0.408 OA
ATOM     42  H   UNL     1      55.360 164.744  40.057  0.00  0.00    +0.328 HD
ENDBRANCH  28  41
ENDBRANCH  26  27
ENDBRANCH   3  26
TORSDOF 6
ENDMDL
