MODEL 1
REMARK VINA RESULT:    -6.885      0.000      0.000
REMARK INTER + INTRA:          -8.792
REMARK INTER:                  -8.093
REMARK INTRA:                  -0.699
REMARK UNBOUND:                -0.699
REMARK  Name = =
REMARK  3 active torsions:
REMARK  status: ('A' for Active; 'I' for Inactive)
REMARK    1  A    between atoms: C_1  and  N_12
REMARK    2  A    between atoms: C_1  and  C_38
REMARK    3  A    between atoms: C_31  and  C_39
REMARK                            x       y       z     vdW  Elec       q    Type
REMARK                         _______ _______ _______ _____ _____    ______ ____
ROOT
ATOM      1  C   UNL     1      60.991 162.081  39.767  0.00  0.00    +0.196 C 
ATOM      2  C   UNL     1      61.614 160.836  39.177  0.00  0.00    +0.198 C 
ATOM      3  O   UNL     1      60.934 159.894  38.719  0.00  0.00    -0.289 OA
ATOM      4  C   UNL     1      63.051 160.952  39.250  0.00  0.00    +0.040 C 
ATOM      5  C   UNL     1      63.327 161.909  40.181  0.00  0.00    +0.040 C 
ATOM      6  C   UNL     1      64.655 162.199  40.430  0.00  0.00    +0.003 C 
ATOM      7  C   UNL     1      65.670 161.527  39.744  0.00  0.00    +0.000 C 
ATOM      8  C   UNL     1      65.355 160.563  38.806  0.00  0.00    +0.000 C 
ATOM      9  C   UNL     1      64.044 160.263  38.546  0.00  0.00    +0.003 C 
ATOM     10  C   UNL     1      62.054 162.432  40.732  0.00  0.00    +0.198 C 
ATOM     11  O   UNL     1      62.061 163.034  41.820  0.00  0.00    -0.289 OA
ENDROOT
BRANCH   1  12
ATOM     12  N   UNL     1      60.855 162.998  38.725  0.00  0.00    -0.260 NA
ATOM     13  C   UNL     1      61.732 164.109  38.639  0.00  0.00    +0.063 C 
ATOM     14  C   UNL     1      61.900 164.344  37.124  0.00  0.00    +0.023 C 
ATOM     15  C   UNL     1      60.604 165.041  36.721  0.00  0.00    +0.068 C 
ATOM     16  C   UNL     1      60.532 165.409  35.269  0.00  0.00    +0.226 C 
ATOM     17  O   UNL     1      60.000 166.768  35.269  0.00  0.00    -0.472 OA
ATOM     18  C   UNL     1      60.264 167.348  36.511  0.00  0.00    +0.135 C 
ATOM     19  C   UNL     1      60.606 166.360  37.371  0.00  0.00    +0.011 C 
ATOM     20  C   UNL     1      60.937 166.496  38.668  0.00  0.00    -0.022 C 
ATOM     21  C   UNL     1      60.945 167.773  39.233  0.00  0.00    -0.004 C 
ATOM     22  C   UNL     1      60.602 168.831  38.402  0.00  0.00    +0.003 C 
ATOM     23  C   UNL     1      60.266 168.635  37.062  0.00  0.00    +0.037 C 
ATOM     24  C   UNL     1      61.279 165.271  39.424  0.00  0.00    +0.042 C 
ATOM     25  C   UNL     1      61.924 165.589  34.724  0.00  0.00    +0.191 C 
ATOM     26  O   UNL     1      62.147 165.343  33.568  0.00  0.00    -0.292 OA
ATOM     27  C   UNL     1      62.966 166.067  35.655  0.00  0.00    +0.068 C 
ATOM     28  C   UNL     1      63.098 165.187  36.881  0.00  0.00    +0.010 C 
ATOM     29  C   UNL     1      59.463 164.184  37.166  0.00  0.00    +0.025 C 
ATOM     30  C   UNL     1      59.911 162.830  37.705  0.00  0.00    +0.074 C 
ENDBRANCH   1  12
BRANCH   1  38
ATOM     31  C   UNL     1      57.453 164.550  41.034  0.00  0.00    +0.293 C 
ATOM     32  O   UNL     1      56.441 163.983  41.532  0.00  0.00    -0.266 OA
ATOM     33  N   UNL     1      58.601 163.835  40.641  0.00  0.00    -0.262 N 
ATOM     34  C   UNL     1      58.661 162.404  40.813  0.00  0.00    +0.160 A 
ATOM     35  N   UNL     1      57.575 161.796  41.403  0.00  0.00    -0.175 NA
ATOM     36  S   UNL     1      58.034 160.020  41.478  0.00  0.00    +0.118 S 
ATOM     37  N   UNL     1      59.532 160.256  40.757  0.00  0.00    -0.191 NA
ATOM     38  C   UNL     1      59.700 161.685  40.452  0.00  0.00    +0.128 A 
ATOM     39  H   UNL     1      59.365 164.313  40.247  0.00  0.00    +0.157 HD
BRANCH  31  40
ATOM     40  C   UNL     1      57.374 166.011  40.878  0.00  0.00    +0.292 C 
ATOM     41  O   UNL     1      58.299 166.744  41.321  0.00  0.00    -0.278 OA
ENDBRANCH  31  40
ENDBRANCH   1  38
TORSDOF 3
ENDMDL
