MODEL 1
REMARK VINA RESULT:   -11.941      0.000      0.000
REMARK INTER + INTRA:         -14.024
REMARK INTER:                 -13.687
REMARK INTRA:                  -0.337
REMARK UNBOUND:                -0.337
REMARK  Name = =
REMARK  3 active torsions:
REMARK  status: ('A' for Active; 'I' for Inactive)
REMARK    1  A    between atoms: C_1  and  N_15
REMARK    2  A    between atoms: C_16  and  C_18
REMARK    3  A    between atoms: C_19  and  O_24
REMARK                            x       y       z     vdW  Elec       q    Type
REMARK                         _______ _______ _______ _____ _____    ______ ____
ROOT
ATOM      1  C   UNL     1      51.548 156.220  29.322  0.00  0.00    +0.052 C 
ATOM      2  C   UNL     1      52.113 156.233  28.037  0.00  0.00    +0.035 C 
ATOM      3  C   UNL     1      52.487 155.100  27.365  0.00  0.00    +0.100 A 
ATOM      4  C   UNL     1      52.309 153.866  27.964  0.00  0.00    +0.099 A 
ATOM      5  C   UNL     1      51.759 153.813  29.222  0.00  0.00    +0.022 C 
ATOM      6  C   UNL     1      51.384 155.000  29.886  0.00  0.00    +0.016 C 
ATOM      7  N   UNL     1      52.676 152.742  27.306  0.00  0.00    -0.242 NA
ATOM      8  C   UNL     1      53.210 152.887  26.068  0.00  0.00    +0.099 A 
ATOM      9  C   UNL     1      53.603 151.756  25.352  0.00  0.00    +0.021 C 
ATOM     10  C   UNL     1      54.153 151.813  24.094  0.00  0.00    +0.002 C 
ATOM     11  C   UNL     1      54.305 153.072  23.548  0.00  0.00    +0.002 C 
ATOM     12  C   UNL     1      53.935 154.218  24.209  0.00  0.00    +0.021 C 
ATOM     13  C   UNL     1      53.382 154.122  25.483  0.00  0.00    +0.099 A 
ATOM     14  N   UNL     1      53.017 155.236  26.138  0.00  0.00    -0.242 NA
ENDROOT
BRANCH   1  15
ATOM     15  N   UNL     1      51.180 157.436  29.935  0.00  0.00    -0.280 N 
ATOM     16  C   UNL     1      49.882 157.899  30.211  0.00  0.00    +0.252 C 
ATOM     17  O   UNL     1      48.923 157.176  29.897  0.00  0.00    -0.270 OA
ATOM     18  H   UNL     1      51.919 158.030  30.200  0.00  0.00    +0.155 HD
BRANCH  16  19
ATOM     19  C   UNL     1      49.639 159.181  30.843  0.00  0.00    +0.087 C 
ATOM     20  C   UNL     1      50.638 160.109  31.039  0.00  0.00    +0.138 C 
ATOM     21  C   UNL     1      50.353 161.348  31.662  0.00  0.00    +0.037 C 
ATOM     22  C   UNL     1      49.096 161.641  32.074  0.00  0.00    +0.003 C 
ATOM     23  C   UNL     1      48.082 160.741  31.893  0.00  0.00    +0.000 C 
ATOM     24  C   UNL     1      48.378 159.516  31.275  0.00  0.00    +0.008 C 
BRANCH  20  25
ATOM     25  O   UNL     1      51.929 159.915  30.665  0.00  0.00    -0.505 OA
ATOM     26  H   UNL     1      52.559 159.616  31.292  0.00  0.00    +0.292 HD
ENDBRANCH  20  25
ENDBRANCH  16  19
ENDBRANCH   1  15
TORSDOF 3
ENDMDL
