REMARK  Name = =
REMARK  3 active torsions:
REMARK  status: ('A' for Active; 'I' for Inactive)
REMARK    1  A    between atoms: C_1  and  N_15
REMARK    2  A    between atoms: C_16  and  C_18
REMARK    3  A    between atoms: C_19  and  O_24
REMARK                            x       y       z     vdW  Elec       q    Type
REMARK                         _______ _______ _______ _____ _____    ______ ____
ROOT
ATOM      1  C   UNL     1      50.848 156.233  28.989  0.00  0.00    +0.052 C 
ATOM      2  C   UNL     1      51.179 156.111  27.630  0.00  0.00    +0.035 C 
ATOM      3  C   UNL     1      51.892 155.061  27.118  0.00  0.00    +0.100 A 
ATOM      4  C   UNL     1      52.322 154.055  27.965  0.00  0.00    +0.099 A 
ATOM      5  C   UNL     1      52.018 154.140  29.302  0.00  0.00    +0.022 C 
ATOM      6  C   UNL     1      51.280 155.236  29.796  0.00  0.00    +0.016 C 
ATOM      7  N   UNL     1      53.028 153.014  27.466  0.00  0.00    -0.242 NA
ATOM      8  C   UNL     1      53.282 153.011  26.134  0.00  0.00    +0.099 A 
ATOM      9  C   UNL     1      54.007 151.957  25.575  0.00  0.00    +0.021 C 
ATOM     10  C   UNL     1      54.309 151.876  24.237  0.00  0.00    +0.002 C 
ATOM     11  C   UNL     1      53.853 152.909  23.442  0.00  0.00    +0.002 C 
ATOM     12  C   UNL     1      53.136 153.969  23.940  0.00  0.00    +0.021 C 
ATOM     13  C   UNL     1      52.849 154.019  25.301  0.00  0.00    +0.099 A 
ATOM     14  N   UNL     1      52.148 155.051  25.799  0.00  0.00    -0.242 NA
ENDROOT
BRANCH   1  15
ATOM     15  N   UNL     1      50.097 157.344  29.427  0.00  0.00    -0.280 N 
ATOM     16  C   UNL     1      50.564 158.479  30.111  0.00  0.00    +0.252 C 
ATOM     17  O   UNL     1      51.776 158.548  30.373  0.00  0.00    -0.270 OA
ATOM     18  H   UNL     1      49.133 157.321  29.230  0.00  0.00    +0.155 HD
BRANCH  16  19
ATOM     19  C   UNL     1      49.680 159.555  30.513  0.00  0.00    +0.087 C 
ATOM     20  C   UNL     1      50.149 160.796  30.885  0.00  0.00    +0.138 C 
ATOM     21  C   UNL     1      49.246 161.817  31.271  0.00  0.00    +0.037 C 
ATOM     22  C   UNL     1      47.911 161.591  31.280  0.00  0.00    +0.003 C 
ATOM     23  C   UNL     1      47.414 160.370  30.915  0.00  0.00    +0.000 C 
ATOM     24  C   UNL     1      48.319 159.366  30.535  0.00  0.00    +0.008 C 
BRANCH  20  25
ATOM     25  O   UNL     1      51.466 161.126  30.912  0.00  0.00    -0.505 OA
ATOM     26  H   UNL     1      52.113 160.493  30.668  0.00  0.00    +0.292 HD
ENDBRANCH  20  25
ENDBRANCH  16  19
ENDBRANCH   1  15
TORSDOF 3
