REMARK  Name = =
REMARK  4 active torsions:
REMARK  status: ('A' for Active; 'I' for Inactive)
REMARK    1  A    between atoms: C_1  and  N_9
REMARK    2  A    between atoms: C_4  and  C_15
REMARK    3  A    between atoms: C_5  and  S_14
REMARK    4  A    between atoms: C_15  and  O_17
REMARK                            x       y       z     vdW  Elec       q    Type
REMARK                         _______ _______ _______ _____ _____    ______ ____
ROOT
ATOM      1  C   UNL     1     -13.534 -44.255  28.473  0.00  0.00    +0.154 C 
ATOM      2  C   UNL     1     -12.822 -43.755  29.699  0.00  0.00    +0.108 C 
ATOM      3  N   UNL     1     -11.794 -43.309  28.735  0.00  0.00    -0.252 N 
ATOM      4  C   UNL     1     -10.660 -43.101  29.551  0.00  0.00    +0.132 C 
ATOM      5  C   UNL     1     -10.714 -43.935  30.609  0.00  0.00    +0.021 C 
ATOM      6  C   UNL     1     -11.959 -44.727  30.460  0.00  0.00    +0.056 C 
ATOM      7  C   UNL     1     -12.659 -43.393  27.625  0.00  0.00    +0.246 C 
ATOM      8  O   UNL     1     -12.758 -42.987  26.444  0.00  0.00    -0.273 OA
ENDROOT
BRANCH   1   9
ATOM      9  N   UNL     1     -14.900 -43.798  28.482  0.00  0.00    -0.265 NA
ATOM     10  C   UNL     1     -15.346 -43.274  29.734  0.00  0.00    +0.073 C 
ATOM     11  C   UNL     1     -16.584 -42.486  29.432  0.00  0.00    +0.019 C 
ATOM     12  C   UNL     1     -16.331 -41.978  28.039  0.00  0.00    +0.019 C 
ATOM     13  C   UNL     1     -15.220 -42.844  27.467  0.00  0.00    +0.073 C 
ENDBRANCH   1   9
BRANCH   5  14
ATOM     14  S   UNL     1      -9.479 -44.005  31.897  0.00  0.00    -0.144 S 
ATOM     15  H   UNL     1      -8.500 -43.098  31.636  0.00  0.00    +0.107 HD
ENDBRANCH   5  14
BRANCH   4  16
ATOM     16  C   UNL     1      -9.589 -42.136  29.285  0.00  0.00    +0.352 C 
ATOM     17  O   UNL     1      -8.476 -42.327  29.814  0.00  0.00    -0.244 OA
BRANCH  16  18
ATOM     18  O   UNL     1      -9.847 -41.054  28.462  0.00  0.00    -0.476 OA
ATOM     19  H   UNL     1     -10.697 -40.946  28.083  0.00  0.00    +0.295 HD
ENDBRANCH  16  18
ENDBRANCH   4  16
TORSDOF 4
