REMARK  Name = =
REMARK  7 active torsions:
REMARK  status: ('A' for Active; 'I' for Inactive)
REMARK    1  A    between atoms: N_1  and  C_8
REMARK    2  A    between atoms: N_1  and  C_12
REMARK    3  A    between atoms: N_1  and  C_17
REMARK    4  A    between atoms: C_12  and  O_14
REMARK    5  A    between atoms: O_14  and  S_15
REMARK    6  A    between atoms: C_17  and  C_18
REMARK    7  A    between atoms: N_19  and  O_20
REMARK                            x       y       z     vdW  Elec       q    Type
REMARK                         _______ _______ _______ _____ _____    ______ ____
ROOT
ATOM      1  N   UNL     1     -10.246 -42.849  31.431  0.00  0.00    -0.246 N 
ENDROOT
BRANCH   1   8
ATOM      2  C   UNL     1     -11.710 -43.523  28.091  0.00  0.00    +0.136 C 
ATOM      3  C   UNL     1     -11.201 -43.725  29.368  0.00  0.00    +0.026 C 
ATOM      4  C   UNL     1     -11.109 -45.072  29.940  0.00  0.00    +0.035 C 
ATOM      5  C   UNL     1     -10.846 -46.112  28.861  0.00  0.00    +0.052 C 
ATOM      6  C   UNL     1     -11.742 -45.963  27.686  0.00  0.00    +0.206 C 
ATOM      7  O   UNL     1     -12.146 -44.635  27.415  0.00  0.00    -0.476 OA
ATOM      8  C   UNL     1     -10.739 -42.657  30.129  0.00  0.00    +0.054 C 
ATOM      9  C   UNL     1     -10.803 -41.402  29.578  0.00  0.00    +0.015 C 
ATOM     10  C   UNL     1     -11.299 -41.162  28.314  0.00  0.00    +0.004 C 
ATOM     11  C   UNL     1     -11.751 -42.237  27.584  0.00  0.00    +0.037 C 
ENDBRANCH   1   8
BRANCH   1  12
ATOM     12  C   UNL     1      -8.860 -42.950  31.657  0.00  0.00    +0.251 C 
ATOM     13  S   UNL     1      -7.866 -43.091  30.381  0.00  0.00    +0.007 S 
BRANCH  12  14
ATOM     14  O   UNL     1      -8.289 -42.931  32.925  0.00  0.00    -0.388 OA
BRANCH  14  15
ATOM     15  S   UNL     1      -6.594 -42.922  33.110  0.00  0.00    +0.128 S 
ATOM     16  O   UNL     1      -6.034 -44.309  32.946  0.00  0.00    -0.124 OA
ATOM     17  H   UNL     1      -6.283 -42.459  34.350  0.00  0.00    +0.168 HD
ENDBRANCH  14  15
ENDBRANCH  12  14
ENDBRANCH   1  12
BRANCH   1  18
ATOM     18  C   UNL     1     -11.142 -43.008  32.571  0.00  0.00    +0.149 C 
BRANCH  18  19
ATOM     19  C   UNL     1     -12.445 -42.312  32.378  0.00  0.00    +0.135 C 
ATOM     20  N   UNL     1     -13.508 -43.013  32.287  0.00  0.00    -0.088 NA
BRANCH  20  21
ATOM     21  O   UNL     1     -13.521 -44.382  32.361  0.00  0.00    -0.409 OA
ATOM     22  H   UNL     1     -14.331 -44.847  32.288  0.00  0.00    +0.328 HD
ENDBRANCH  20  21
ENDBRANCH  18  19
ENDBRANCH   1  18
TORSDOF 7
