REMARK  Name = =
REMARK  10 active torsions:
REMARK  status: ('A' for Active; 'I' for Inactive)
REMARK    1  A    between atoms: N_1  and  C_8
REMARK    2  A    between atoms: N_1  and  C_12
REMARK    3  A    between atoms: N_1  and  C_17
REMARK    4  A    between atoms: C_12  and  O_14
REMARK    5  A    between atoms: O_14  and  S_15
REMARK    6  A    between atoms: C_17  and  C_18
REMARK    7  A    between atoms: C_18  and  O_21
REMARK    8  A    between atoms: N_19  and  O_20
REMARK    9  A    between atoms: O_21  and  N_22
REMARK   10  A    between atoms: N_22  and  N_24
REMARK                            x       y       z     vdW  Elec       q    Type
REMARK                         _______ _______ _______ _____ _____    ______ ____
ROOT
ATOM      1  N   UNL     1      -9.930 -43.305  31.476  0.00  0.00    -0.243 N 
ENDROOT
BRANCH   1   8
ATOM      2  C   UNL     1     -11.665 -43.942  28.309  0.00  0.00    +0.136 C 
ATOM      3  C   UNL     1     -11.040 -44.158  29.534  0.00  0.00    +0.026 C 
ATOM      4  C   UNL     1     -10.951 -45.553  29.972  0.00  0.00    +0.035 C 
ATOM      5  C   UNL     1     -10.394 -46.333  28.777  0.00  0.00    +0.052 C 
ATOM      6  C   UNL     1     -11.405 -46.321  27.650  0.00  0.00    +0.206 C 
ATOM      7  O   UNL     1     -12.155 -45.099  27.669  0.00  0.00    -0.476 OA
ATOM      8  C   UNL     1     -10.540 -43.096  30.216  0.00  0.00    +0.054 C 
ATOM      9  C   UNL     1     -10.664 -41.819  29.670  0.00  0.00    +0.015 C 
ATOM     10  C   UNL     1     -11.274 -41.580  28.461  0.00  0.00    +0.004 C 
ATOM     11  C   UNL     1     -11.782 -42.685  27.779  0.00  0.00    +0.037 C 
ENDBRANCH   1   8
BRANCH   1  12
ATOM     12  C   UNL     1      -8.536 -43.518  31.629  0.00  0.00    +0.251 C 
ATOM     13  S   UNL     1      -7.731 -42.813  32.862  0.00  0.00    +0.007 S 
BRANCH  12  14
ATOM     14  O   UNL     1      -7.811 -44.321  30.752  0.00  0.00    -0.388 OA
BRANCH  14  15
ATOM     15  S   UNL     1      -6.986 -45.691  31.398  0.00  0.00    +0.128 S 
ATOM     16  O   UNL     1      -6.023 -45.184  32.481  0.00  0.00    -0.124 OA
ATOM     17  H   UNL     1      -6.288 -46.319  30.414  0.00  0.00    +0.168 HD
ENDBRANCH  14  15
ENDBRANCH  12  14
ENDBRANCH   1  12
BRANCH   1  18
ATOM     18  C   UNL     1     -10.738 -43.343  32.662  0.00  0.00    +0.189 C 
BRANCH  18  19
ATOM     19  C   UNL     1     -11.868 -42.438  32.728  0.00  0.00    +0.283 C 
ATOM     20  N   UNL     1     -11.967 -41.587  33.690  0.00  0.00    -0.048 NA
BRANCH  20  21
ATOM     21  O   UNL     1     -10.993 -41.518  34.684  0.00  0.00    -0.407 OA
ATOM     22  H   UNL     1     -11.076 -40.895  35.379  0.00  0.00    +0.328 HD
ENDBRANCH  20  21
BRANCH  19  23
ATOM     23  O   UNL     1     -12.864 -42.449  31.784  0.00  0.00    -0.356 OA
BRANCH  23  24
ATOM     24  N   UNL     1     -14.166 -42.534  32.137  0.00  0.00    +0.006 NA
ATOM     25  I   UNL     1     -15.223 -43.189  30.451  0.00  0.00    +0.089 I 
BRANCH  24  26
ATOM     26  N   UNL     1     -14.410 -43.433  33.187  0.00  0.00    -0.199 N 
ATOM     27  C   UNL     1     -14.232 -44.840  33.037  0.00  0.00    +0.317 C 
ATOM     28  O   UNL     1     -13.842 -45.244  31.910  0.00  0.00    -0.264 OA
ATOM     29  H   UNL     1     -14.714 -43.081  34.055  0.00  0.00    +0.174 HD
ENDBRANCH  24  26
ENDBRANCH  23  24
ENDBRANCH  19  23
ENDBRANCH  18  19
ENDBRANCH   1  18
TORSDOF 10
