REMARK  Name = =
REMARK  1 active torsions:
REMARK  status: ('A' for Active; 'I' for Inactive)
REMARK    1  A    between atoms: C_1  and  C_16
REMARK                            x       y       z     vdW  Elec       q    Type
REMARK                         _______ _______ _______ _____ _____    ______ ____
ROOT
ATOM      1  C   UNL     1      -1.854  -4.794  30.340  0.00  0.00    +0.080 C 
ATOM      2  N   UNL     1      -2.887  -4.038  30.600  0.00  0.00    -0.260 NA
ATOM      3  C   UNL     1      -4.088  -4.260  31.370  0.00  0.00    +0.210 C 
ATOM      4  C   UNL     1      -3.803  -4.934  32.669  0.00  0.00    +0.251 C 
ATOM      5  O   UNL     1      -4.379  -4.445  33.647  0.00  0.00    -0.273 OA
ATOM      6  N   UNL     1      -2.972  -6.053  32.949  0.00  0.00    -0.282 N 
ATOM      7  C   UNL     1      -2.260  -6.760  31.927  0.00  0.00    +0.052 C 
ATOM      8  C   UNL     1      -1.836  -6.189  30.742  0.00  0.00    +0.032 C 
ATOM      9  C   UNL     1      -1.266  -6.989  29.751  0.00  0.00    +0.014 C 
ATOM     10  C   UNL     1      -1.137  -8.335  29.993  0.00  0.00    +0.058 C 
ATOM     11  C   UNL     1      -1.567  -8.895  31.202  0.00  0.00    +0.013 C 
ATOM     12  C   UNL     1      -2.132  -8.106  32.175  0.00  0.00    +0.016 C 
ATOM     13 CL   UNL     1      -0.422  -9.325  28.762  0.00  0.00    -0.082 Cl
ATOM     14  H   UNL     1      -2.882  -6.354  33.882  0.00  0.00    +0.155 HD
ENDROOT
BRANCH   1  17
ATOM     15  F   UNL     1       1.032  -4.632  30.961  0.00  0.00    -0.204 F 
ATOM     16  C   UNL     1       0.545  -4.283  29.721  0.00  0.00    +0.142 C 
ATOM     17  C   UNL     1      -0.786  -4.256  29.522  0.00  0.00    +0.045 C 
ATOM     18  C   UNL     1      -1.204  -3.740  28.267  0.00  0.00    +0.004 C 
ATOM     19  C   UNL     1      -0.322  -3.305  27.317  0.00  0.00    +0.000 C 
ATOM     20  C   UNL     1       1.024  -3.367  27.587  0.00  0.00    +0.002 C 
ATOM     21  C   UNL     1       1.453  -3.855  28.790  0.00  0.00    +0.030 C 
ENDBRANCH   1  17
TORSDOF 1
