REMARK  Name = =
REMARK  2 active torsions:
REMARK  status: ('A' for Active; 'I' for Inactive)
REMARK    1  A    between atoms: C_3  and  C_8
REMARK    2  A    between atoms: C_5  and  C_21
REMARK                            x       y       z     vdW  Elec       q    Type
REMARK                         _______ _______ _______ _____ _____    ______ ____
ROOT
ATOM      1  F   UNL     1      -1.556  -3.169  30.656  0.00  0.00    -0.204 F 
ATOM      2  C   UNL     1      -2.899  -2.878  30.837  0.00  0.00    +0.142 C 
ATOM      3  C   UNL     1      -3.779  -3.784  31.302  0.00  0.00    +0.045 C 
ATOM      4  C   UNL     1      -5.097  -3.340  31.587  0.00  0.00    +0.005 C 
ATOM      5  C   UNL     1      -5.511  -2.075  31.415  0.00  0.00    +0.014 C 
ATOM      6  C   UNL     1      -4.555  -1.170  30.923  0.00  0.00    +0.004 C 
ATOM      7  C   UNL     1      -3.277  -1.570  30.642  0.00  0.00    +0.030 C 
ENDROOT
BRANCH   3   8
ATOM      8  C   UNL     1      -3.549  -5.226  31.423  0.00  0.00    +0.080 C 
ATOM      9  N   UNL     1      -4.452  -5.965  31.993  0.00  0.00    -0.260 NA
ATOM     10  C   UNL     1      -4.424  -7.419  32.226  0.00  0.00    +0.210 C 
ATOM     11  C   UNL     1      -3.135  -7.816  32.924  0.00  0.00    +0.251 C 
ATOM     12  O   UNL     1      -3.210  -8.355  34.047  0.00  0.00    -0.273 OA
ATOM     13  N   UNL     1      -1.831  -7.603  32.360  0.00  0.00    -0.282 N 
ATOM     14  C   UNL     1      -1.537  -6.807  31.192  0.00  0.00    +0.052 C 
ATOM     15  C   UNL     1      -2.377  -5.788  30.761  0.00  0.00    +0.032 C 
ATOM     16  C   UNL     1      -2.078  -5.170  29.552  0.00  0.00    +0.014 C 
ATOM     17  C   UNL     1      -0.969  -5.600  28.866  0.00  0.00    +0.058 C 
ATOM     18  C   UNL     1      -0.131  -6.615  29.306  0.00  0.00    +0.013 C 
ATOM     19  C   UNL     1      -0.425  -7.237  30.504  0.00  0.00    +0.016 C 
ATOM     20 CL   UNL     1      -0.618  -4.790  27.350  0.00  0.00    -0.082 Cl
ATOM     21  H   UNL     1      -1.071  -8.038  32.810  0.00  0.00    +0.155 HD
ENDBRANCH   3   8
BRANCH   5  22
ATOM     22  C   UNL     1      -6.842  -1.533  31.604  0.00  0.00    +0.048 C 
ATOM     23  C   UNL     1      -7.916  -2.122  32.257  0.00  0.00    +0.015 C 
ATOM     24  C   UNL     1      -8.129  -3.306  32.930  0.00  0.00    +0.001 C 
ATOM     25  C   UNL     1      -9.379  -3.582  33.459  0.00  0.00    +0.000 C 
ATOM     26  C   UNL     1     -10.393  -2.674  33.306  0.00  0.00    +0.000 C 
ATOM     27  C   UNL     1     -10.194  -1.488  32.635  0.00  0.00    +0.001 C 
ATOM     28  C   UNL     1      -8.961  -1.206  32.108  0.00  0.00    +0.016 C 
ATOM     29  C   UNL     1      -8.526  -0.103  31.386  0.00  0.00    +0.062 C 
ATOM     30  N   UNL     1      -7.269  -0.328  31.103  0.00  0.00    -0.312 N 
ATOM     31  H   UNL     1      -6.698   0.291  30.593  0.00  0.00    +0.152 HD
ENDBRANCH   5  22
TORSDOF 2
