REMARK  Name = =
REMARK  3 active torsions:
REMARK  status: ('A' for Active; 'I' for Inactive)
REMARK    1  A    between atoms: C_1  and  C_16
REMARK    2  A    between atoms: C_3  and  N_30
REMARK    3  A    between atoms: C_18  and  C_21
REMARK                            x       y       z     vdW  Elec       q    Type
REMARK                         _______ _______ _______ _____ _____    ______ ____
ROOT
ATOM      1  C   UNL     1     -14.965  -0.145  23.637  0.00  0.00    +0.081 C 
ATOM      2  N   UNL     1     -13.787   0.412  23.518  0.00  0.00    -0.246 NA
ATOM      3  C   UNL     1     -13.291   1.568  22.818  0.00  0.00    +0.240 C 
ATOM      4  C   UNL     1     -14.225   2.730  22.914  0.00  0.00    +0.264 C 
ATOM      5  O   UNL     1     -13.707   3.862  23.078  0.00  0.00    -0.271 OA
ATOM      6  N   UNL     1     -15.654   2.782  22.849  0.00  0.00    -0.281 N 
ATOM      7  C   UNL     1     -16.449   1.618  22.548  0.00  0.00    +0.052 C 
ATOM      8  C   UNL     1     -16.093   0.305  22.842  0.00  0.00    +0.032 C 
ATOM      9  C   UNL     1     -16.864  -0.762  22.383  0.00  0.00    +0.014 C 
ATOM     10  C   UNL     1     -17.995  -0.511  21.641  0.00  0.00    +0.058 C 
ATOM     11  C   UNL     1     -18.317   0.804  21.378  0.00  0.00    +0.013 C 
ATOM     12  C   UNL     1     -17.573   1.883  21.812  0.00  0.00    +0.016 C 
ATOM     13 CL   UNL     1     -18.958  -1.855  21.081  0.00  0.00    -0.082 Cl
ATOM     14  H   UNL     1     -16.108   3.640  23.015  0.00  0.00    +0.155 HD
ENDROOT
BRANCH   1  17
ATOM     15  F   UNL     1     -15.910  -0.231  26.412  0.00  0.00    -0.204 F 
ATOM     16  C   UNL     1     -15.646  -1.387  25.695  0.00  0.00    +0.142 C 
ATOM     17  C   UNL     1     -15.089  -1.327  24.459  0.00  0.00    +0.045 C 
ATOM     18  C   UNL     1     -14.732  -2.567  23.915  0.00  0.00    +0.005 C 
ATOM     19  C   UNL     1     -14.921  -3.790  24.557  0.00  0.00    +0.014 C 
ATOM     20  C   UNL     1     -15.494  -3.751  25.801  0.00  0.00    +0.004 C 
ATOM     21  C   UNL     1     -15.857  -2.563  26.371  0.00  0.00    +0.030 C 
BRANCH  19  22
ATOM     22  C   UNL     1     -14.450  -5.002  23.901  0.00  0.00    +0.048 C 
ATOM     23  C   UNL     1     -13.245  -5.631  23.910  0.00  0.00    +0.015 C 
ATOM     24  C   UNL     1     -12.040  -5.352  24.509  0.00  0.00    +0.001 C 
ATOM     25  C   UNL     1     -10.974  -6.225  24.339  0.00  0.00    +0.000 C 
ATOM     26  C   UNL     1     -11.077  -7.370  23.589  0.00  0.00    +0.000 C 
ATOM     27  C   UNL     1     -12.267  -7.681  22.977  0.00  0.00    +0.001 C 
ATOM     28  C   UNL     1     -13.328  -6.807  23.149  0.00  0.00    +0.016 C 
ATOM     29  C   UNL     1     -14.639  -6.845  22.693  0.00  0.00    +0.062 C 
ATOM     30  N   UNL     1     -15.285  -5.772  23.149  0.00  0.00    -0.312 N 
ATOM     31  H   UNL     1     -16.230  -5.565  22.968  0.00  0.00    +0.152 HD
ENDBRANCH  19  22
ENDBRANCH   1  17
BRANCH   3  32
ATOM     32  N   UNL     1     -12.825   1.386  21.499  0.00  0.00    -0.245 NA
ATOM     33  C   UNL     1     -11.748   2.202  21.043  0.00  0.00    +0.093 C 
ATOM     34  C   UNL     1     -11.525   1.916  19.556  0.00  0.00    +0.106 C 
ATOM     35  N   UNL     1     -10.989   0.576  19.452  0.00  0.00    -0.215 NA
ATOM     36  C   UNL     1     -12.073  -0.307  19.876  0.00  0.00    +0.106 C 
ATOM     37  C   UNL     1     -12.471  -0.012  21.302  0.00  0.00    +0.093 C 
ENDBRANCH   3  32
TORSDOF 3
