REMARK  Name = =
REMARK  4 active torsions:
REMARK  status: ('A' for Active; 'I' for Inactive)
REMARK    1  A    between atoms: C_1  and  C_16
REMARK    2  A    between atoms: C_3  and  N_30
REMARK    3  A    between atoms: N_6  and  C_36
REMARK    4  A    between atoms: C_18  and  C_21
REMARK                            x       y       z     vdW  Elec       q    Type
REMARK                         _______ _______ _______ _____ _____    ______ ____
ROOT
ATOM      1  C   UNL     1     -12.677  -3.137  24.190  0.00  0.00    +0.081 C 
ATOM      2  N   UNL     1     -13.382  -4.202  23.970  0.00  0.00    -0.246 NA
ATOM      3  C   UNL     1     -13.811  -4.974  22.849  0.00  0.00    +0.240 C 
ATOM      4  C   UNL     1     -14.148  -4.114  21.683  0.00  0.00    +0.267 C 
ATOM      5  O   UNL     1     -15.244  -4.178  21.184  0.00  0.00    -0.271 OA
ATOM      6  N   UNL     1     -13.207  -3.182  21.096  0.00  0.00    -0.258 N 
ATOM      7  C   UNL     1     -12.374  -2.246  21.774  0.00  0.00    +0.055 C 
ATOM      8  C   UNL     1     -11.976  -2.414  23.119  0.00  0.00    +0.032 C 
ATOM      9  C   UNL     1     -10.954  -1.662  23.615  0.00  0.00    +0.014 C 
ATOM     10  C   UNL     1     -10.350  -0.739  22.789  0.00  0.00    +0.058 C 
ATOM     11  C   UNL     1     -10.761  -0.574  21.484  0.00  0.00    +0.013 C 
ATOM     12  C   UNL     1     -11.777  -1.324  20.967  0.00  0.00    +0.016 C 
ATOM     13 CL   UNL     1      -9.022   0.242  23.436  0.00  0.00    -0.082 Cl
ENDROOT
BRANCH   1  16
ATOM     14  F   UNL     1     -10.808  -4.382  25.719  0.00  0.00    -0.204 F 
ATOM     15  C   UNL     1     -11.617  -3.484  26.332  0.00  0.00    +0.142 C 
ATOM     16  C   UNL     1     -12.544  -2.740  25.576  0.00  0.00    +0.045 C 
ATOM     17  C   UNL     1     -13.292  -1.881  26.305  0.00  0.00    +0.005 C 
ATOM     18  C   UNL     1     -13.208  -1.685  27.690  0.00  0.00    +0.014 C 
ATOM     19  C   UNL     1     -12.291  -2.430  28.373  0.00  0.00    +0.004 C 
ATOM     20  C   UNL     1     -11.481  -3.348  27.681  0.00  0.00    +0.030 C 
BRANCH  18  21
ATOM     21  C   UNL     1     -14.135  -0.755  28.334  0.00  0.00    +0.048 C 
ATOM     22  C   UNL     1     -13.948   0.450  28.947  0.00  0.00    +0.015 C 
ATOM     23  C   UNL     1     -12.826   1.191  29.189  0.00  0.00    +0.001 C 
ATOM     24  C   UNL     1     -12.852   2.436  29.825  0.00  0.00    +0.000 C 
ATOM     25  C   UNL     1     -14.073   2.937  30.224  0.00  0.00    +0.000 C 
ATOM     26  C   UNL     1     -15.199   2.200  29.982  0.00  0.00    +0.001 C 
ATOM     27  C   UNL     1     -15.164   0.972  29.353  0.00  0.00    +0.016 C 
ATOM     28  C   UNL     1     -16.114   0.053  28.971  0.00  0.00    +0.062 C 
ATOM     29  N   UNL     1     -15.488  -0.965  28.368  0.00  0.00    -0.312 N 
ATOM     30  H   UNL     1     -15.939  -1.758  27.999  0.00  0.00    +0.152 HD
ENDBRANCH  18  21
ENDBRANCH   1  16
BRANCH   3  31
ATOM     31  N   UNL     1     -12.957  -6.053  22.635  0.00  0.00    -0.245 NA
ATOM     32  C   UNL     1     -13.523  -7.303  22.286  0.00  0.00    +0.093 C 
ATOM     33  C   UNL     1     -12.750  -8.504  22.742  0.00  0.00    +0.106 C 
ATOM     34  N   UNL     1     -11.324  -8.304  22.759  0.00  0.00    -0.215 NA
ATOM     35  C   UNL     1     -10.945  -7.123  21.967  0.00  0.00    +0.106 C 
ATOM     36  C   UNL     1     -11.576  -5.945  22.712  0.00  0.00    +0.093 C 
ENDBRANCH   3  31
BRANCH   6  37
ATOM     37  C   UNL     1     -13.150  -3.221  19.660  0.00  0.00    +0.080 C 
ATOM     38  C   UNL     1     -12.545  -4.650  19.223  0.00  0.00    +0.022 C 
ATOM     39  C   UNL     1     -11.976  -3.396  18.749  0.00  0.00    +0.022 C 
ENDBRANCH   6  37
TORSDOF 4
