REMARK  Name = =
REMARK  11 active torsions:
REMARK  status: ('A' for Active; 'I' for Inactive)
REMARK    1  A    between atoms: N_1  and  P_2
REMARK    2  A    between atoms: N_1  and  N_6
REMARK    3  A    between atoms: P_2  and  N_4
REMARK    4  A    between atoms: P_2  and  N_5
REMARK    5  A    between atoms: N_6  and  C_9
REMARK    6  A    between atoms: N_6  and  N_16
REMARK    7  A    between atoms: N_20  and  C_21
REMARK    8  A    between atoms: N_20  and  C_23
REMARK    9  A    between atoms: C_21  and  C_28
REMARK   10  A    between atoms: C_26  and  O_31
REMARK   11  A    between atoms: C_28  and  O_30
REMARK                            x       y       z     vdW  Elec       q    Type
REMARK                         _______ _______ _______ _____ _____    ______ ____
ROOT
ATOM      1  N   UNL     1     -10.819 -42.745  31.675  0.00  0.00    -0.095 N 
ENDROOT
BRANCH   1   4
ATOM      2  C   UNL     1      -8.054 -44.113  32.599  0.00  0.00    +0.182 C 
ATOM      3  N   UNL     1      -8.978 -43.354  33.073  0.00  0.00    -0.208 NA
ATOM      4  C   UNL     1     -10.217 -43.775  32.491  0.00  0.00    +0.323 C 
ATOM      5  N   UNL     1      -9.842 -44.871  31.630  0.00  0.00    -0.223 NA
ATOM      6  C   UNL     1      -8.585 -45.028  31.726  0.00  0.00    +0.134 C 
ATOM      7  C   UNL     1      -7.716 -45.940  31.112  0.00  0.00    +0.122 C 
ATOM      8  N   UNL     1      -6.395 -45.952  31.344  0.00  0.00    -0.221 NA
ATOM      9  C   UNL     1      -5.911 -45.038  32.207  0.00  0.00    +0.200 C 
ATOM     10  N   UNL     1      -6.710 -44.156  32.808  0.00  0.00    -0.204 NA
ENDBRANCH   1   4
BRANCH   1  11
ATOM     11  N   UNL     1     -11.029 -42.990  30.333  0.00  0.00    +0.034 NA
ATOM     12  O   UNL     1     -11.544 -44.178  30.035  0.00  0.00    -0.089 OA
BRANCH  11  13
ATOM     13  P   UNL     1      -9.689 -42.512  29.341  0.00  0.00    +0.322 P 
ATOM     14  O   UNL     1      -9.082 -43.649  28.562  0.00  0.00    -0.266 OA
BRANCH  13  15
ATOM     15  N   UNL     1      -8.427 -41.923  30.433  0.00  0.00    -0.254 NA
ATOM     16  H   UNL     1      -8.169 -42.664  31.085  0.00  0.00    +0.128 HD
ATOM     17  H   UNL     1      -8.776 -41.118  30.954  0.00  0.00    +0.128 HD
ENDBRANCH  13  15
BRANCH  13  18
ATOM     18  N   UNL     1     -10.080 -41.204  28.261  0.00  0.00    -0.254 NA
ATOM     19  H   UNL     1     -10.491 -40.436  28.792  0.00  0.00    +0.128 HD
ATOM     20  H   UNL     1     -10.747 -41.529  27.561  0.00  0.00    +0.128 HD
ENDBRANCH  13  18
ENDBRANCH  11  13
ENDBRANCH   1  11
BRANCH   1  21
ATOM     21  N   UNL     1     -11.162 -41.548  32.311  0.00  0.00    -0.158 NA
ATOM     22  C   UNL     1     -11.546 -41.524  33.538  0.00  0.00    +0.141 C 
ENDBRANCH   1  21
TORSDOF 6
REMARK  Name = =
REMARK  11 active torsions:
REMARK  status: ('A' for Active; 'I' for Inactive)
REMARK    1  A    between atoms: N_1  and  P_2
REMARK    2  A    between atoms: N_1  and  N_6
REMARK    3  A    between atoms: P_2  and  N_4
REMARK    4  A    between atoms: P_2  and  N_5
REMARK    5  A    between atoms: N_6  and  C_9
REMARK    6  A    between atoms: N_6  and  N_16
REMARK    7  A    between atoms: N_20  and  C_21
REMARK    8  A    between atoms: N_20  and  C_23
REMARK    9  A    between atoms: C_21  and  C_28
REMARK   10  A    between atoms: C_26  and  O_31
REMARK   11  A    between atoms: C_28  and  O_30
REMARK                            x       y       z     vdW  Elec       q    Type
REMARK                         _______ _______ _______ _____ _____    ______ ____
ROOT
ATOM      1  I   UNL     1     -13.172 -44.697  31.070  0.00  0.00    -0.107 I 
ATOM      2  H   UNL     1     -11.611 -44.697  31.070  0.00  0.00    +0.107 HD
ENDROOT
TORSDOF 0
REMARK  Name = =
REMARK  11 active torsions:
REMARK  status: ('A' for Active; 'I' for Inactive)
REMARK    1  A    between atoms: N_1  and  P_2
REMARK    2  A    between atoms: N_1  and  N_6
REMARK    3  A    between atoms: P_2  and  N_4
REMARK    4  A    between atoms: P_2  and  N_5
REMARK    5  A    between atoms: N_6  and  C_9
REMARK    6  A    between atoms: N_6  and  N_16
REMARK    7  A    between atoms: N_20  and  C_21
REMARK    8  A    between atoms: N_20  and  C_23
REMARK    9  A    between atoms: C_21  and  C_28
REMARK   10  A    between atoms: C_26  and  O_31
REMARK   11  A    between atoms: C_28  and  O_30
REMARK                            x       y       z     vdW  Elec       q    Type
REMARK                         _______ _______ _______ _____ _____    ______ ____
ROOT
ATOM      1  C   UNL     1     -15.211 -42.459  31.503  0.00  0.00    +0.335 C 
ATOM      2  O   UNL     1     -16.103 -41.605  31.356  0.00  0.00    -0.250 OA
ATOM      3  N   UNL     1     -14.669 -42.522  32.859  0.00  0.00    -0.204 N 
ATOM      4  C   UNL     1     -15.149 -41.659  33.883  0.00  0.00    +0.405 C 
ATOM      5  O   UNL     1     -16.048 -40.835  33.636  0.00  0.00    -0.226 OA
ATOM      6  H   UNL     1     -13.960 -43.173  33.067  0.00  0.00    +0.163 HD
ENDROOT
BRANCH   4   7
ATOM      7  O   UNL     1     -14.650 -41.695  35.180  0.00  0.00    -0.466 OA
ATOM      8  H   UNL     1     -13.972 -42.302  35.405  0.00  0.00    +0.297 HD
ENDBRANCH   4   7
BRANCH   1   9
ATOM      9  N   UNL     1     -14.709 -43.329  30.514  0.00  0.00    -0.118 NA
BRANCH   9  10
ATOM     10  C   UNL     1     -15.140 -43.364  29.188  0.00  0.00    +0.348 C 
ATOM     11  O   UNL     1     -14.536 -44.243  28.448  0.00  0.00    -0.261 OA
BRANCH  10  12
ATOM     12  C   UNL     1     -16.140 -42.577  28.534  0.00  0.00    +0.394 C 
ATOM     13  O   UNL     1     -17.186 -42.168  29.049  0.00  0.00    -0.240 OA
BRANCH  12  14
ATOM     14  O   UNL     1     -15.946 -42.222  27.183  0.00  0.00    -0.474 OA
ATOM     15  H   UNL     1     -15.173 -42.500  26.732  0.00  0.00    +0.296 HD
ENDBRANCH  12  14
ENDBRANCH  10  12
ENDBRANCH   9  10
ENDBRANCH   1   9
TORSDOF 5
