REMARK  Name = =
REMARK  2 active torsions:
REMARK  status: ('A' for Active; 'I' for Inactive)
REMARK    1  A    between atoms: N_1  and  N_19
REMARK    2  A    between atoms: N_19  and  C_20
REMARK                            x       y       z     vdW  Elec       q    Type
REMARK                         _______ _______ _______ _____ _____    ______ ____
ROOT
ATOM      1  N   UNL     1      52.375 154.213  26.315  0.00  0.00    -0.161 N 
ATOM      2  C   UNL     1      53.354 154.898  25.521  0.00  0.00    +0.107 C 
ATOM      3  C   UNL     1      54.579 154.408  25.094  0.00  0.00    +0.157 C 
ATOM      4  N   UNL     1      55.398 155.190  24.375  0.00  0.00    -0.227 NA
ATOM      5  C   UNL     1      55.040 156.440  24.068  0.00  0.00    +0.100 C 
ATOM      6  C   UNL     1      53.837 156.946  24.476  0.00  0.00    +0.022 C 
ATOM      7  C   UNL     1      52.974 156.185  25.210  0.00  0.00    +0.021 C 
ATOM      8  N   UNL     1      55.127 153.087  25.328  0.00  0.00    -0.214 N 
ATOM      9  C   UNL     1      54.355 151.926  25.409  0.00  0.00    +0.064 C 
ATOM     10  C   UNL     1      53.052 151.780  25.911  0.00  0.00    +0.069 C 
ATOM     11  C   UNL     1      52.508 150.530  25.901  0.00  0.00    +0.006 C 
ATOM     12  C   UNL     1      53.212 149.450  25.415  0.00  0.00    +0.000 C 
ATOM     13  C   UNL     1      54.484 149.587  24.922  0.00  0.00    +0.001 C 
ATOM     14  C   UNL     1      55.051 150.839  24.923  0.00  0.00    +0.015 C 
ATOM     15  C   UNL     1      52.151 152.804  26.425  0.00  0.00    +0.271 C 
ATOM     16  O   UNL     1      51.101 152.410  27.004  0.00  0.00    -0.268 OA
ATOM     17  C   UNL     1      56.516 153.024  25.465  0.00  0.00    +0.312 C 
ATOM     18  O   UNL     1      57.189 152.015  25.743  0.00  0.00    -0.264 OA
ENDROOT
BRANCH   1  19
ATOM     19  N   UNL     1      51.553 155.037  27.077  0.00  0.00    -0.139 NA
BRANCH  19  20
ATOM     20  C   UNL     1      52.196 155.250  28.328  0.00  0.00    +0.104 C 
ATOM     21  C   UNL     1      52.418 154.213  29.112  0.00  0.00    +0.021 C 
ENDBRANCH  19  20
ENDBRANCH   1  19
TORSDOF 2
REMARK  Name = =
REMARK  2 active torsions:
REMARK  status: ('A' for Active; 'I' for Inactive)
REMARK    1  A    between atoms: N_1  and  N_19
REMARK    2  A    between atoms: N_19  and  C_20
REMARK                            x       y       z     vdW  Elec       q    Type
REMARK                         _______ _______ _______ _____ _____    ______ ____
ROOT
ATOM      1  I   UNL     1      52.764 157.205  28.849  0.00  0.00    -0.107 I 
ATOM      2  H   UNL     1      54.325 157.205  28.849  0.00  0.00    +0.107 HD
ENDROOT
TORSDOF 0
REMARK  Name = =
REMARK  2 active torsions:
REMARK  status: ('A' for Active; 'I' for Inactive)
REMARK    1  A    between atoms: N_1  and  N_19
REMARK    2  A    between atoms: N_19  and  C_20
REMARK                            x       y       z     vdW  Elec       q    Type
REMARK                         _______ _______ _______ _____ _____    ______ ____
ROOT
ATOM      1  C   UNL     1      51.147 158.080  29.848  0.00  0.00    +0.096 C 
ATOM      2  N   UNL     1      51.277 159.327  30.376  0.00  0.00    -0.226 NA
ATOM      3  C   UNL     1      50.290 159.965  31.020  0.00  0.00    +0.158 C 
ATOM      4  C   UNL     1      49.048 159.391  31.193  0.00  0.00    +0.014 C 
ATOM      5  C   UNL     1      48.897 158.125  30.665  0.00  0.00    +0.057 C 
ATOM      6  C   UNL     1      49.919 157.477  30.003  0.00  0.00    -0.001 C 
ATOM      7  C   UNL     1      48.027 160.058  31.858  0.00  0.00    -0.021 C 
ATOM      8  C   UNL     1      48.238 161.325  32.364  0.00  0.00    +0.073 C 
ATOM      9  C   UNL     1      49.489 161.875  32.175  0.00  0.00    +0.079 C 
ATOM     10  N   UNL     1      50.463 161.213  31.530  0.00  0.00    -0.230 NA
ENDROOT
TORSDOF 0
