REMARK  Name = =
REMARK  0 active torsions:
REMARK  status: ('A' for Active; 'I' for Inactive)
REMARK                            x       y       z     vdW  Elec       q    Type
REMARK                         _______ _______ _______ _____ _____    ______ ____
ROOT
ATOM      1  C   UNL     1      -3.045  -6.833  32.048  0.00  0.00    -0.031 C 
ATOM      2  C   UNL     1      -2.467  -5.628  31.390  0.00  0.00    +0.026 C 
ATOM      3  C   UNL     1      -3.008  -5.406  29.996  0.00  0.00    +0.012 C 
ATOM      4  C   UNL     1      -1.888  -5.689  28.994  0.00  0.00    +0.065 C 
ATOM      5  C   UNL     1      -0.787  -4.736  29.314  0.00  0.00    +0.155 C 
ATOM      6  O   UNL     1      -0.923  -3.804  30.099  0.00  0.00    -0.296 OA
ATOM      7  C   UNL     1       0.551  -4.921  28.649  0.00  0.00    +0.090 C 
ATOM      8  C   UNL     1       1.527  -3.910  29.151  0.00  0.00    -0.019 C 
ATOM      9  C   UNL     1       2.178  -4.245  30.441  0.00  0.00    +0.017 C 
ATOM     10  C   UNL     1       1.906  -5.609  30.963  0.00  0.00    +0.235 C 
ATOM     11  O   UNL     1       2.014  -5.564  32.394  0.00  0.00    -0.444 OA
ATOM     12  C   UNL     1       1.446  -6.507  33.216  0.00  0.00    +0.318 C 
ATOM     13  O   UNL     1       2.033  -6.710  34.333  0.00  0.00    -0.250 OA
ATOM     14  C   UNL     1       0.241  -7.289  32.926  0.00  0.00    +0.114 C 
ATOM     15  C   UNL     1      -1.019  -6.663  33.529  0.00  0.00    +0.037 C 
ATOM     16  C   UNL     1      -2.205  -7.444  33.106  0.00  0.00    -0.030 C 
ENDROOT
TORSDOF 0
