REMARK  Name = =
REMARK  1 active torsions:
REMARK  status: ('A' for Active; 'I' for Inactive)
REMARK    1  A    between atoms: C_15  and  C_17
REMARK                            x       y       z     vdW  Elec       q    Type
REMARK                         _______ _______ _______ _____ _____    ______ ____
ROOT
ATOM      1  C   UNL     1      -1.778  -7.032  32.032  0.00  0.00    +0.000 C 
ATOM      2  C   UNL     1      -2.956  -6.665  31.121  0.00  0.00    +0.000 C 
ATOM      3  C   UNL     1      -2.602  -5.439  30.298  0.00  0.00    +0.008 C 
ATOM      4  C   UNL     1      -1.595  -5.753  29.232  0.00  0.00    +0.065 C 
ATOM      5  C   UNL     1      -0.707  -4.566  29.014  0.00  0.00    +0.151 C 
ATOM      6  O   UNL     1      -1.120  -3.481  29.359  0.00  0.00    -0.296 OA
ATOM      7  C   UNL     1       0.637  -4.692  28.398  0.00  0.00    +0.065 C 
ATOM      8  C   UNL     1       1.767  -4.338  29.329  0.00  0.00    +0.012 C 
ATOM      9  C   UNL     1       1.223  -4.178  30.727  0.00  0.00    +0.048 C 
ATOM     10  C   UNL     1       2.139  -4.782  31.772  0.00  0.00    +0.208 C 
ATOM     11  O   UNL     1       1.946  -6.153  31.955  0.00  0.00    -0.448 OA
ATOM     12  C   UNL     1       1.125  -6.763  32.858  0.00  0.00    +0.317 C 
ATOM     13  O   UNL     1       1.069  -8.018  32.894  0.00  0.00    -0.250 OA
ATOM     14  C   UNL     1       0.312  -5.937  33.779  0.00  0.00    +0.110 C 
ATOM     15  C   UNL     1      -0.880  -6.685  34.362  0.00  0.00    +0.015 C 
ATOM     16  C   UNL     1      -2.027  -6.477  33.419  0.00  0.00    +0.001 C 
ENDROOT
BRANCH  15  17
ATOM     17  C   UNL     1      -1.224  -6.200  35.736  0.00  0.00    +0.019 C 
ATOM     18  C   UNL     1      -2.481  -6.852  36.254  0.00  0.00    +0.004 C 
ATOM     19  C   UNL     1      -3.740  -6.107  36.003  0.00  0.00    +0.000 C 
ATOM     20  C   UNL     1      -4.421  -5.559  37.237  0.00  0.00    +0.000 C 
ATOM     21  C   UNL     1      -4.659  -6.572  38.310  0.00  0.00    +0.000 C 
ATOM     22  C   UNL     1      -3.720  -7.756  38.212  0.00  0.00    +0.000 C 
ATOM     23  C   UNL     1      -2.359  -7.305  37.674  0.00  0.00    +0.001 C 
ATOM     24  C   UNL     1      -1.623  -6.482  38.636  0.00  0.00    +0.004 C 
ATOM     25  C   UNL     1      -0.409  -5.827  38.089  0.00  0.00    +0.022 C 
ATOM     26  C   UNL     1      -0.139  -6.399  36.739  0.00  0.00    -0.045 C 
ATOM     27  C   UNL     1       0.963  -7.049  36.531  0.00  0.00    -0.009 C 
ENDBRANCH  15  17
TORSDOF 1
