REMARK  Name = =
REMARK  2 active torsions:
REMARK  status: ('A' for Active; 'I' for Inactive)
REMARK    1  A    between atoms: C_4  and  C_28
REMARK    2  A    between atoms: C_15  and  C_17
REMARK                            x       y       z     vdW  Elec       q    Type
REMARK                         _______ _______ _______ _____ _____    ______ ____
ROOT
ATOM      1  C   UNL     1      -2.691  -7.258  20.900  0.00  0.00    +0.000 C 
ATOM      2  C   UNL     1      -1.512  -7.136  19.962  0.00  0.00    +0.000 C 
ATOM      3  C   UNL     1      -0.605  -8.306  19.944  0.00  0.00    +0.007 C 
ATOM      4  C   UNL     1      -1.196  -9.627  19.625  0.00  0.00    +0.058 C 
ATOM      5  C   UNL     1      -1.680  -9.821  18.262  0.00  0.00    +0.150 C 
ATOM      6  O   UNL     1      -2.502 -10.686  18.040  0.00  0.00    -0.296 OA
ATOM      7  C   UNL     1      -1.222  -9.014  17.113  0.00  0.00    +0.065 C 
ATOM      8  C   UNL     1      -2.366  -8.765  16.128  0.00  0.00    +0.012 C 
ATOM      9  C   UNL     1      -3.153  -7.537  16.439  0.00  0.00    +0.048 C 
ATOM     10  C   UNL     1      -4.192  -7.748  17.530  0.00  0.00    +0.208 C 
ATOM     11  O   UNL     1      -4.643  -6.476  17.929  0.00  0.00    -0.448 OA
ATOM     12  C   UNL     1      -5.712  -6.193  18.731  0.00  0.00    +0.317 C 
ATOM     13  O   UNL     1      -6.611  -5.351  18.371  0.00  0.00    -0.250 OA
ATOM     14  C   UNL     1      -5.892  -6.828  20.033  0.00  0.00    +0.110 C 
ATOM     15  C   UNL     1      -5.016  -6.375  21.137  0.00  0.00    +0.015 C 
ATOM     16  C   UNL     1      -3.593  -6.056  20.741  0.00  0.00    +0.001 C 
ENDROOT
BRANCH  15  17
ATOM     17  C   UNL     1      -5.591  -5.264  21.995  0.00  0.00    +0.019 C 
ATOM     18  C   UNL     1      -5.396  -3.898  21.443  0.00  0.00    +0.004 C 
ATOM     19  C   UNL     1      -4.719  -2.952  22.426  0.00  0.00    +0.000 C 
ATOM     20  C   UNL     1      -4.390  -1.655  21.722  0.00  0.00    +0.000 C 
ATOM     21  C   UNL     1      -5.665  -1.006  21.221  0.00  0.00    +0.000 C 
ATOM     22  C   UNL     1      -6.391  -1.931  20.301  0.00  0.00    +0.000 C 
ATOM     23  C   UNL     1      -6.629  -3.251  20.934  0.00  0.00    +0.001 C 
ATOM     24  C   UNL     1      -7.812  -3.302  21.837  0.00  0.00    +0.004 C 
ATOM     25  C   UNL     1      -8.155  -4.751  22.090  0.00  0.00    +0.022 C 
ATOM     26  C   UNL     1      -6.985  -5.572  22.415  0.00  0.00    -0.045 C 
ATOM     27  C   UNL     1      -7.150  -6.670  23.135  0.00  0.00    -0.009 C 
ENDBRANCH  15  17
BRANCH   4  28
ATOM     28  C   UNL     1      -0.165 -10.726  19.889  0.00  0.00    +0.007 C 
ATOM     29  C   UNL     1       1.016 -10.192  20.658  0.00  0.00    +0.000 C 
ENDBRANCH   4  28
TORSDOF 2
