REMARK  Name = =
REMARK  3 active torsions:
REMARK  status: ('A' for Active; 'I' for Inactive)
REMARK    1  A    between atoms: C_1  and  C_26
REMARK    2  A    between atoms: C_8  and  C_30
REMARK    3  A    between atoms: C_15  and  C_28
REMARK                            x       y       z     vdW  Elec       q    Type
REMARK                         _______ _______ _______ _____ _____    ______ ____
ROOT
ATOM      1  C   UNL     1      -5.720  -4.706  20.992  0.00  0.00    +0.019 C 
ATOM      2  C   UNL     1      -6.685  -3.573  21.362  0.00  0.00    +0.004 C 
ATOM      3  C   UNL     1      -6.153  -2.711  22.483  0.00  0.00    +0.000 C 
ATOM      4  C   UNL     1      -7.041  -1.455  22.572  0.00  0.00    +0.000 C 
ATOM      5  C   UNL     1      -8.471  -1.806  22.196  0.00  0.00    +0.000 C 
ATOM      6  C   UNL     1      -8.685  -3.242  22.714  0.00  0.00    +0.000 C 
ATOM      7  C   UNL     1      -7.960  -4.150  21.847  0.00  0.00    +0.001 C 
ATOM      8  C   UNL     1      -8.587  -5.194  21.066  0.00  0.00    +0.008 C 
ATOM      9  C   UNL     1      -7.593  -6.306  20.632  0.00  0.00    +0.022 C 
ATOM     10  C   UNL     1      -6.467  -5.509  20.020  0.00  0.00    -0.045 C 
ATOM     11  C   UNL     1      -6.289  -5.580  18.735  0.00  0.00    -0.009 C 
ENDROOT
BRANCH   1  26
ATOM     12  C   UNL     1      -3.149  -2.382  19.547  0.00  0.00    +0.000 C 
ATOM     13  C   UNL     1      -2.632  -1.951  18.172  0.00  0.00    +0.000 C 
ATOM     14  C   UNL     1      -1.495  -2.847  17.814  0.00  0.00    +0.007 C 
ATOM     15  C   UNL     1      -1.386  -3.150  16.332  0.00  0.00    +0.058 C 
ATOM     16  C   UNL     1      -1.585  -4.572  16.080  0.00  0.00    +0.150 C 
ATOM     17  O   UNL     1      -2.758  -4.902  15.773  0.00  0.00    -0.296 OA
ATOM     18  C   UNL     1      -0.606  -5.661  16.135  0.00  0.00    +0.065 C 
ATOM     19  C   UNL     1      -0.529  -6.337  17.492  0.00  0.00    +0.012 C 
ATOM     20  C   UNL     1      -1.872  -6.820  17.983  0.00  0.00    +0.048 C 
ATOM     21  C   UNL     1      -1.749  -7.283  19.417  0.00  0.00    +0.208 C 
ATOM     22  O   UNL     1      -3.034  -7.466  19.945  0.00  0.00    -0.448 OA
ATOM     23  C   UNL     1      -3.586  -6.651  20.927  0.00  0.00    +0.317 C 
ATOM     24  O   UNL     1      -4.328  -7.165  21.792  0.00  0.00    -0.250 OA
ATOM     25  C   UNL     1      -3.275  -5.236  20.909  0.00  0.00    +0.110 C 
ATOM     26  C   UNL     1      -4.361  -4.252  20.673  0.00  0.00    +0.015 C 
ATOM     27  C   UNL     1      -4.200  -3.495  19.368  0.00  0.00    +0.001 C 
BRANCH  15  28
ATOM     28  C   UNL     1      -0.133  -2.529  15.814  0.00  0.00    +0.007 C 
ATOM     29  C   UNL     1       1.110  -2.827  16.603  0.00  0.00    +0.000 C 
ENDBRANCH  15  28
ENDBRANCH   1  26
BRANCH   8  30
ATOM     30  C   UNL     1      -9.833  -5.811  21.590  0.00  0.00    +0.022 C 
ATOM     31  C   UNL     1      -9.600  -6.257  23.039  0.00  0.00    +0.005 C 
ATOM     32  C   UNL     1     -10.875  -6.997  23.435  0.00  0.00    +0.005 C 
ATOM     33  C   UNL     1     -11.940  -5.965  23.669  0.00  0.00    +0.026 C 
ATOM     34  C   UNL     1     -12.077  -5.141  22.447  0.00  0.00    -0.026 C 
ATOM     35  C   UNL     1     -11.076  -5.063  21.463  0.00  0.00    -0.026 C 
ATOM     36  C   UNL     1     -11.343  -4.258  20.390  0.00  0.00    -0.005 C 
ATOM     37  C   UNL     1     -12.524  -3.562  20.276  0.00  0.00    -0.000 C 
ATOM     38  C   UNL     1     -13.498  -3.635  21.227  0.00  0.00    -0.000 C 
ATOM     39  C   UNL     1     -13.259  -4.436  22.319  0.00  0.00    -0.005 C 
ENDBRANCH   8  30
TORSDOF 3
