REMARK  Name = =
REMARK  5 active torsions:
REMARK  status: ('A' for Active; 'I' for Inactive)
REMARK    1  A    between atoms: C_1  and  C_26
REMARK    2  A    between atoms: C_8  and  C_30
REMARK    3  A    between atoms: C_9  and  C_40
REMARK    4  A    between atoms: C_15  and  C_28
REMARK    5  A    between atoms: C_40  and  C_42
REMARK                            x       y       z     vdW  Elec       q    Type
REMARK                         _______ _______ _______ _____ _____    ______ ____
ROOT
ATOM      1  C   UNL     1      -5.886  -4.894  20.126  0.00  0.00    +0.019 C 
ATOM      2  C   UNL     1      -6.381  -5.344  21.492  0.00  0.00    +0.004 C 
ATOM      3  C   UNL     1      -5.419  -6.296  22.177  0.00  0.00    +0.000 C 
ATOM      4  C   UNL     1      -6.160  -7.423  22.878  0.00  0.00    +0.000 C 
ATOM      5  C   UNL     1      -6.781  -8.369  21.875  0.00  0.00    +0.000 C 
ATOM      6  C   UNL     1      -7.292  -7.500  20.714  0.00  0.00    +0.000 C 
ATOM      7  C   UNL     1      -7.646  -6.184  21.327  0.00  0.00    +0.001 C 
ATOM      8  C   UNL     1      -8.797  -5.457  20.797  0.00  0.00    +0.015 C 
ATOM      9  C   UNL     1      -8.351  -4.449  19.755  0.00  0.00    +0.084 C 
ATOM     10  C   UNL     1      -7.060  -4.928  19.235  0.00  0.00    -0.038 C 
ATOM     11  C   UNL     1      -6.967  -5.368  18.007  0.00  0.00    -0.009 C 
ENDROOT
BRANCH   1  26
ATOM     12  C   UNL     1      -4.011  -1.960  21.728  0.00  0.00    +0.000 C 
ATOM     13  C   UNL     1      -4.274  -0.608  21.101  0.00  0.00    +0.000 C 
ATOM     14  C   UNL     1      -3.965   0.524  22.059  0.00  0.00    +0.007 C 
ATOM     15  C   UNL     1      -2.837   1.386  21.574  0.00  0.00    +0.058 C 
ATOM     16  C   UNL     1      -1.756   0.660  20.879  0.00  0.00    +0.150 C 
ATOM     17  O   UNL     1      -1.658   0.758  19.676  0.00  0.00    -0.296 OA
ATOM     18  C   UNL     1      -0.795  -0.176  21.606  0.00  0.00    +0.065 C 
ATOM     19  C   UNL     1       0.215  -0.848  20.750  0.00  0.00    +0.012 C 
ATOM     20  C   UNL     1       0.021  -2.322  20.542  0.00  0.00    +0.048 C 
ATOM     21  C   UNL     1      -0.967  -2.680  19.468  0.00  0.00    +0.208 C 
ATOM     22  O   UNL     1      -1.498  -3.947  19.695  0.00  0.00    -0.448 OA
ATOM     23  C   UNL     1      -2.798  -4.269  20.012  0.00  0.00    +0.317 C 
ATOM     24  O   UNL     1      -2.974  -5.171  20.864  0.00  0.00    -0.250 OA
ATOM     25  C   UNL     1      -3.910  -3.588  19.382  0.00  0.00    +0.110 C 
ATOM     26  C   UNL     1      -5.194  -3.549  20.161  0.00  0.00    +0.015 C 
ATOM     27  C   UNL     1      -5.088  -2.963  21.523  0.00  0.00    +0.001 C 
BRANCH  15  28
ATOM     28  C   UNL     1      -3.332   2.606  20.828  0.00  0.00    +0.007 C 
ATOM     29  C   UNL     1      -4.804   2.867  21.023  0.00  0.00    +0.000 C 
ENDBRANCH  15  28
ENDBRANCH   1  26
BRANCH   8  30
ATOM     30  C   UNL     1      -9.694  -4.819  21.822  0.00  0.00    +0.023 C 
ATOM     31  C   UNL     1      -9.131  -3.562  22.386  0.00  0.00    +0.005 C 
ATOM     32  C   UNL     1      -9.870  -3.046  23.576  0.00  0.00    +0.005 C 
ATOM     33  C   UNL     1     -11.292  -3.625  23.647  0.00  0.00    +0.026 C 
ATOM     34  C   UNL     1     -11.054  -5.099  23.815  0.00  0.00    -0.026 C 
ATOM     35  C   UNL     1     -10.219  -5.687  22.864  0.00  0.00    -0.026 C 
ATOM     36  C   UNL     1      -9.948  -7.051  22.959  0.00  0.00    -0.005 C 
ATOM     37  C   UNL     1     -10.527  -7.747  23.996  0.00  0.00    -0.000 C 
ATOM     38  C   UNL     1     -11.344  -7.188  24.931  0.00  0.00    -0.000 C 
ATOM     39  C   UNL     1     -11.601  -5.826  24.818  0.00  0.00    -0.005 C 
ENDBRANCH   8  30
BRANCH   9  40
ATOM     40  C   UNL     1      -9.374  -4.299  18.689  0.00  0.00    +0.218 C 
ATOM     41  O   UNL     1      -9.947  -5.331  18.273  0.00  0.00    -0.287 OA
BRANCH  40  42
ATOM     42  C   UNL     1      -9.675  -2.985  18.170  0.00  0.00    +0.272 C 
ATOM     43  O   UNL     1      -9.354  -1.949  18.795  0.00  0.00    -0.280 OA
ENDBRANCH  40  42
ENDBRANCH   9  40
TORSDOF 5
