REMARK  Name = =
REMARK  0 active torsions:
REMARK  status: ('A' for Active; 'I' for Inactive)
REMARK                            x       y       z     vdW  Elec       q    Type
REMARK                         _______ _______ _______ _____ _____    ______ ____
ROOT
ATOM      1  N   UNL     1      -3.442  -3.709  30.708  0.00  0.00    -0.326 N 
ATOM      2  C   UNL     1      -2.108  -4.005  30.251  0.00  0.00    +0.135 C 
ATOM      3  C   UNL     1      -2.131  -5.419  29.715  0.00  0.00    +0.227 C 
ATOM      4  O   UNL     1      -2.470  -6.321  30.666  0.00  0.00    -0.469 OA
ATOM      5  C   UNL     1      -3.524  -6.054  31.467  0.00  0.00    +0.188 C 
ATOM      6  C   UNL     1      -3.974  -4.669  31.622  0.00  0.00    +0.099 C 
ATOM      7  H   UNL     1      -3.943  -2.914  30.416  0.00  0.00    +0.147 HD
ENDROOT
TORSDOF 0
