MODEL 1
REMARK VINA RESULT:    -8.263      0.000      0.000
REMARK INTER + INTRA:         -12.637
REMARK INTER:                 -11.644
REMARK INTRA:                  -0.992
REMARK UNBOUND:                -0.992
REMARK  Name = =
REMARK  8 active torsions:
REMARK  status: ('A' for Active; 'I' for Inactive)
REMARK    1  A    between atoms: C_1  and  N_9
REMARK    2  A    between atoms: C_2  and  O_19
REMARK    3  A    between atoms: C_7  and  C_10
REMARK    4  A    between atoms: C_11  and  O_18
REMARK    5  A    between atoms: C_13  and  N_17
REMARK    6  A    between atoms: O_19  and  C_20
REMARK    7  A    between atoms: C_20  and  N_21
REMARK    8  A    between atoms: C_26  and  N_27
REMARK                            x       y       z     vdW  Elec       q    Type
REMARK                         _______ _______ _______ _____ _____    ______ ____
ROOT
ATOM      1  C   UNL     1      48.574 163.201  41.084  0.00  0.00    +0.085 C 
ATOM      2  C   UNL     1      48.848 164.394  41.762  0.00  0.00    +0.154 C 
ATOM      3  C   UNL     1      48.140 165.553  41.499  0.00  0.00    +0.038 C 
ATOM      4  C   UNL     1      47.134 165.583  40.558  0.00  0.00    +0.003 C 
ATOM      5  C   UNL     1      46.852 164.419  39.883  0.00  0.00    +0.001 C 
ATOM      6  C   UNL     1      47.574 163.232  40.149  0.00  0.00    +0.018 C 
ENDROOT
BRANCH   1   9
ATOM      7  C   UNL     1      49.046 161.015  42.275  0.00  0.00    +0.253 C 
ATOM      8  O   UNL     1      48.000 161.097  42.943  0.00  0.00    -0.270 OA
ATOM      9  N   UNL     1      49.311 162.047  41.375  0.00  0.00    -0.278 N 
ATOM     10  H   UNL     1      50.147 161.948  40.866  0.00  0.00    +0.155 HD
BRANCH   7  11
ATOM     11  C   UNL     1      49.929 159.855  42.470  0.00  0.00    +0.088 C 
ATOM     12  C   UNL     1      51.302 160.015  42.491  0.00  0.00    +0.139 C 
ATOM     13  C   UNL     1      52.133 158.891  42.679  0.00  0.00    +0.052 C 
ATOM     14  C   UNL     1      51.620 157.646  42.842  0.00  0.00    +0.055 C 
ATOM     15  C   UNL     1      50.258 157.471  42.823  0.00  0.00    +0.071 C 
ATOM     16  C   UNL     1      49.445 158.577  42.637  0.00  0.00    +0.020 C 
ATOM     17 CL   UNL     1      49.588 155.857  43.033  0.00  0.00    -0.081 Cl
BRANCH  14  18
ATOM     18  N   UNL     1      52.496 156.512  43.034  0.00  0.00    -0.356 N 
ATOM     19  H   UNL     1      53.015 156.157  42.277  0.00  0.00    +0.142 HD
ATOM     20  H   UNL     1      52.574 156.094  43.922  0.00  0.00    +0.142 HD
ENDBRANCH  14  18
BRANCH  12  21
ATOM     21  O   UNL     1      51.961 161.207  42.343  0.00  0.00    -0.505 OA
ATOM     22  H   UNL     1      52.365 161.614  43.083  0.00  0.00    +0.292 HD
ENDBRANCH  12  21
ENDBRANCH   7  11
ENDBRANCH   1   9
BRANCH   2  23
ATOM     23  O   UNL     1      49.861 164.343  42.701  0.00  0.00    -0.457 OA
BRANCH  23  24
ATOM     24  C   UNL     1      51.194 164.406  42.316  0.00  0.00    +0.287 C 
BRANCH  24  25
ATOM     25  N   UNL     1      51.531 165.544  41.490  0.00  0.00    -0.202 NA
ATOM     26  C   UNL     1      51.849 165.148  40.148  0.00  0.00    +0.169 C 
ATOM     27  N   UNL     1      53.275 164.850  40.016  0.00  0.00    -0.318 N 
ATOM     28  C   UNL     1      54.067 164.623  41.175  0.00  0.00    +0.057 C 
ATOM     29  C   UNL     1      53.758 165.316  42.259  0.00  0.00    +0.022 C 
ATOM     30  C   UNL     1      52.615 166.253  42.135  0.00  0.00    +0.147 C 
ATOM     31  H   UNL     1      53.687 164.807  39.123  0.00  0.00    +0.148 HD
BRANCH  30  32
ATOM     32  N   UNL     1      53.067 167.351  41.289  0.00  0.00    -0.255 NA
ATOM     33  C   UNL     1      52.110 168.438  41.276  0.00  0.00    +0.091 C 
ATOM     34  C   UNL     1      52.818 169.662  40.732  0.00  0.00    +0.086 C 
ATOM     35  N   UNL     1      54.012 169.282  39.996  0.00  0.00    -0.295 NA
ATOM     36  C   UNL     1      55.005 168.691  40.880  0.00  0.00    +0.086 C 
ATOM     37  C   UNL     1      54.277 167.875  41.926  0.00  0.00    +0.091 C 
ATOM     38  H   UNL     1      54.410 170.111  39.555  0.00  0.00    +0.123 HD
ENDBRANCH  30  32
ENDBRANCH  24  25
ENDBRANCH  23  24
ENDBRANCH   2  23
TORSDOF 8
ENDMDL
