REMARK  Name = =
REMARK  8 active torsions:
REMARK  status: ('A' for Active; 'I' for Inactive)
REMARK    1  A    between atoms: C_1  and  N_9
REMARK    2  A    between atoms: C_2  and  O_19
REMARK    3  A    between atoms: C_7  and  C_10
REMARK    4  A    between atoms: C_11  and  O_18
REMARK    5  A    between atoms: C_13  and  N_17
REMARK    6  A    between atoms: O_19  and  C_20
REMARK    7  A    between atoms: C_20  and  N_21
REMARK    8  A    between atoms: C_26  and  N_27
REMARK                            x       y       z     vdW  Elec       q    Type
REMARK                         _______ _______ _______ _____ _____    ______ ____
ROOT
ATOM      1  C   UNL     1      52.045 156.504  28.787  0.00  0.00    +0.085 C 
ATOM      2  C   UNL     1      52.479 155.571  27.838  0.00  0.00    +0.154 C 
ATOM      3  C   UNL     1      51.801 154.383  27.631  0.00  0.00    +0.038 C 
ATOM      4  C   UNL     1      50.669 154.067  28.350  0.00  0.00    +0.003 C 
ATOM      5  C   UNL     1      50.229 154.973  29.286  0.00  0.00    +0.001 C 
ATOM      6  C   UNL     1      50.920 156.188  29.501  0.00  0.00    +0.018 C 
ENDROOT
BRANCH   1   9
ATOM      7  C   UNL     1      52.531 158.750  29.855  0.00  0.00    +0.253 C 
ATOM      8  O   UNL     1      51.553 158.653  30.617  0.00  0.00    -0.270 OA
ATOM      9  N   UNL     1      52.756 157.696  28.970  0.00  0.00    -0.278 N 
ATOM     10  H   UNL     1      53.537 157.808  28.382  0.00  0.00    +0.155 HD
BRANCH   7  11
ATOM     11  C   UNL     1      53.378 159.950  29.928  0.00  0.00    +0.088 C 
ATOM     12  C   UNL     1      52.995 161.032  30.700  0.00  0.00    +0.139 C 
ATOM     13  C   UNL     1      53.821 162.174  30.758  0.00  0.00    +0.052 C 
ATOM     14  C   UNL     1      54.990 162.243  30.073  0.00  0.00    +0.055 C 
ATOM     15  C   UNL     1      55.382 161.177  29.302  0.00  0.00    +0.071 C 
ATOM     16  C   UNL     1      54.569 160.057  29.246  0.00  0.00    +0.020 C 
ATOM     17 CL   UNL     1      56.898 161.263  28.411  0.00  0.00    -0.081 Cl
BRANCH  14  18
ATOM     18  N   UNL     1      55.816 163.427  30.152  0.00  0.00    -0.356 N 
ATOM     19  H   UNL     1      55.532 164.190  30.706  0.00  0.00    +0.142 HD
ATOM     20  H   UNL     1      56.663 163.471  29.652  0.00  0.00    +0.142 HD
ENDBRANCH  14  18
BRANCH  12  21
ATOM     21  O   UNL     1      51.848 161.105  31.445  0.00  0.00    -0.505 OA
ATOM     22  H   UNL     1      51.250 160.384  31.456  0.00  0.00    +0.292 HD
ENDBRANCH  12  21
ENDBRANCH   7  11
ENDBRANCH   1   9
BRANCH   2  23
ATOM     23  O   UNL     1      53.616 155.907  27.128  0.00  0.00    -0.457 OA
BRANCH  23  24
ATOM     24  C   UNL     1      54.137 155.047  26.169  0.00  0.00    +0.287 C 
BRANCH  24  25
ATOM     25  N   UNL     1      53.871 153.646  26.405  0.00  0.00    -0.202 NA
ATOM     26  C   UNL     1      54.690 153.123  27.461  0.00  0.00    +0.169 C 
ATOM     27  N   UNL     1      55.957 152.615  26.935  0.00  0.00    -0.318 N 
ATOM     28  C   UNL     1      56.392 152.990  25.634  0.00  0.00    +0.057 C 
ATOM     29  C   UNL     1      55.456 153.163  24.715  0.00  0.00    +0.022 C 
ATOM     30  C   UNL     1      54.056 152.943  25.154  0.00  0.00    +0.147 C 
ATOM     31  H   UNL     1      56.510 152.012  27.483  0.00  0.00    +0.148 HD
BRANCH  30  32
ATOM     32  N   UNL     1      53.905 151.508  25.360  0.00  0.00    -0.255 NA
ATOM     33  C   UNL     1      52.611 151.188  25.927  0.00  0.00    +0.091 C 
ATOM     34  C   UNL     1      52.381 149.704  25.728  0.00  0.00    +0.086 C 
ATOM     35  N   UNL     1      53.637 149.016  25.479  0.00  0.00    -0.295 NA
ATOM     36  C   UNL     1      54.219 149.434  24.213  0.00  0.00    +0.086 C 
ATOM     37  C   UNL     1      53.930 150.907  24.025  0.00  0.00    +0.091 C 
ATOM     38  H   UNL     1      53.467 148.011  25.452  0.00  0.00    +0.123 HD
ENDBRANCH  30  32
ENDBRANCH  24  25
ENDBRANCH  23  24
ENDBRANCH   2  23
TORSDOF 8
