MODEL 1
REMARK VINA RESULT:    -7.821      0.000      0.000
REMARK INTER + INTRA:         -10.337
REMARK INTER:                 -10.793
REMARK INTRA:                   0.456
REMARK UNBOUND:                 0.456
REMARK  Name = =
REMARK  8 active torsions:
REMARK  status: ('A' for Active; 'I' for Inactive)
REMARK    1  A    between atoms: C_1  and  N_24
REMARK    2  A    between atoms: C_13  and  C_17
REMARK    3  A    between atoms: N_24  and  N_25
REMARK    4  A    between atoms: N_25  and  N_26
REMARK    5  A    between atoms: N_25  and  P_34
REMARK    6  A    between atoms: C_28  and  O_33
REMARK    7  A    between atoms: P_34  and  N_36
REMARK    8  A    between atoms: P_34  and  O_37
REMARK                            x       y       z     vdW  Elec       q    Type
REMARK                         _______ _______ _______ _____ _____    ______ ____
ROOT
ATOM      1  C   UNL     1      53.598 164.963  42.353  0.00  0.00    +0.063 C 
ATOM      2  C   UNL     1      53.993 166.302  42.275  0.00  0.00    +0.016 C 
ATOM      3  C   UNL     1      55.288 166.597  41.915  0.00  0.00    +0.001 C 
ATOM      4  C   UNL     1      56.230 165.610  41.630  0.00  0.00    +0.003 C 
ATOM      5  C   UNL     1      55.829 164.299  41.712  0.00  0.00    +0.043 C 
ATOM      6  C   UNL     1      54.538 163.999  42.066  0.00  0.00    +0.056 C 
ATOM      7  C   UNL     1      54.176 162.589  42.142  0.00  0.00    +0.197 C 
ATOM      8  O   UNL     1      52.998 162.296  42.452  0.00  0.00    -0.287 OA
ATOM      9  C   UNL     1      55.135 161.524  41.869  0.00  0.00    +0.042 C 
ATOM     10  C   UNL     1      54.777 160.203  42.042  0.00  0.00    +0.003 C 
ATOM     11  C   UNL     1      55.701 159.229  41.872  0.00  0.00    -0.000 C 
ATOM     12  C   UNL     1      56.980 159.583  41.531  0.00  0.00    -0.004 C 
ATOM     13  C   UNL     1      57.447 160.897  41.326  0.00  0.00    -0.017 C 
ATOM     14  C   UNL     1      56.448 161.859  41.516  0.00  0.00    +0.038 C 
ATOM     15  C   UNL     1      56.868 163.275  41.415  0.00  0.00    +0.195 C 
ATOM     16  O   UNL     1      57.993 163.557  41.104  0.00  0.00    -0.287 OA
ENDROOT
BRANCH  13  17
ATOM     17  C   UNL     1      58.747 161.274  40.901  0.00  0.00    +0.052 C 
ATOM     18  C   UNL     1      59.885 161.575  41.811  0.00  0.00    +0.036 C 
ATOM     19  C   UNL     1      61.008 161.656  40.801  0.00  0.00    +0.116 C 
ATOM     20  O   UNL     1      60.411 162.348  39.738  0.00  0.00    -0.358 OA
ATOM     21  C   UNL     1      59.252 161.529  39.535  0.00  0.00    +0.119 C 
ATOM     22  C   UNL     1      60.100 160.336  39.002  0.00  0.00    +0.032 C 
ATOM     23  C   UNL     1      61.179 160.330  40.063  0.00  0.00    +0.032 C 
ENDBRANCH  13  17
BRANCH   1  24
ATOM     24  N   UNL     1      52.260 164.689  42.719  0.00  0.00    -0.252 N 
ATOM     25  H   UNL     1      52.119 164.343  43.630  0.00  0.00    +0.169 HD
BRANCH  24  26
ATOM     26  N   UNL     1      51.137 164.853  41.948  0.00  0.00    -0.049 NA
BRANCH  26  27
ATOM     27  N   UNL     1      50.111 163.912  42.020  0.00  0.00    -0.201 N 
ATOM     28  C   UNL     1      50.114 162.761  41.361  0.00  0.00    +0.124 C 
ATOM     29  C   UNL     1      49.084 161.869  41.470  0.00  0.00    +0.189 C 
ATOM     30  C   UNL     1      47.978 162.150  42.289  0.00  0.00    +0.232 C 
ATOM     31  O   UNL     1      47.035 161.335  42.385  0.00  0.00    -0.283 OA
ATOM     32  C   UNL     1      48.010 163.355  42.958  0.00  0.00    +0.063 C 
ATOM     33  C   UNL     1      49.063 164.203  42.812  0.00  0.00    +0.087 C 
BRANCH  29  34
ATOM     34  O   UNL     1      49.117 160.677  40.773  0.00  0.00    -0.502 OA
ATOM     35  H   UNL     1      48.588 159.956  41.052  0.00  0.00    +0.292 HD
ENDBRANCH  29  34
ENDBRANCH  26  27
BRANCH  26  36
ATOM     36  P   UNL     1      50.885 166.171  40.800  0.00  0.00    +0.373 P 
ATOM     37  O   UNL     1      50.832 167.511  41.448  0.00  0.00    -0.252 OA
BRANCH  36  38
ATOM     38  N   UNL     1      49.325 165.877  40.011  0.00  0.00    -0.244 NA
ATOM     39  H   UNL     1      48.571 166.015  40.684  0.00  0.00    +0.129 HD
ATOM     40  H   UNL     1      49.297 164.920  39.659  0.00  0.00    +0.129 HD
ENDBRANCH  36  38
BRANCH  36  41
ATOM     41  O   UNL     1      52.120 166.114  39.609  0.00  0.00    -0.320 OA
ATOM     42  H   UNL     1      51.717 166.106  38.727  0.00  0.00    +0.220 HD
ENDBRANCH  36  41
ENDBRANCH  26  36
ENDBRANCH  24  26
ENDBRANCH   1  24
TORSDOF 8
ENDMDL
