REMARK  Name = =
REMARK  7 active torsions:
REMARK  status: ('A' for Active; 'I' for Inactive)
REMARK    1  A    between atoms: C_7  and  S_16
REMARK    2  A    between atoms: C_10  and  S_11
REMARK    3  A    between atoms: S_11  and  P_12
REMARK    4  A    between atoms: P_12  and  O_14
REMARK    5  A    between atoms: P_12  and  O_15
REMARK    6  A    between atoms: S_16  and  C_17
REMARK    7  A    between atoms: C_17  and  N_19
REMARK                            x       y       z     vdW  Elec       q    Type
REMARK                         _______ _______ _______ _____ _____    ______ ____
ROOT
ATOM      1  C   UNL     1      -4.041  -2.248  31.320  0.00  0.00    +0.158 C 
ATOM      2  C   UNL     1      -3.334  -3.344  30.864  0.00  0.00    +0.086 C 
ATOM      3  N   UNL     1      -3.372  -4.580  31.562  0.00  0.00    -0.327 N 
ATOM      4  C   UNL     1      -4.146  -4.711  32.768  0.00  0.00    +0.135 C 
ATOM      5  C   UNL     1      -5.177  -3.641  32.928  0.00  0.00    +0.227 C 
ATOM      6  O   UNL     1      -4.805  -2.370  32.490  0.00  0.00    -0.472 OA
ATOM      7  C   UNL     1      -2.554  -3.265  29.697  0.00  0.00    +0.047 C 
ATOM      8  C   UNL     1      -2.547  -2.052  29.057  0.00  0.00    +0.008 C 
ATOM      9  C   UNL     1      -3.273  -0.950  29.535  0.00  0.00    +0.010 C 
ATOM     10  C   UNL     1      -4.033  -1.034  30.680  0.00  0.00    +0.069 C 
ATOM     11  H   UNL     1      -2.866  -5.352  31.219  0.00  0.00    +0.147 HD
ENDROOT
BRANCH  10  12
ATOM     12  S   UNL     1      -4.953   0.377  31.279  0.00  0.00    -0.034 S 
BRANCH  12  13
ATOM     13  P   UNL     1      -6.868  -0.140  31.942  0.00  0.00    +0.229 P 
ATOM     14  S   UNL     1      -7.943   1.172  31.570  0.00  0.00    +0.003 S 
BRANCH  13  15
ATOM     15  O   UNL     1      -6.840  -0.332  33.614  0.00  0.00    -0.339 OA
ATOM     16  H   UNL     1      -6.489   0.473  34.026  0.00  0.00    +0.218 HD
ENDBRANCH  13  15
BRANCH  13  17
ATOM     17  O   UNL     1      -7.469  -1.511  31.191  0.00  0.00    -0.339 OA
ATOM     18  H   UNL     1      -6.888  -2.264  31.381  0.00  0.00    +0.218 HD
ENDBRANCH  13  17
ENDBRANCH  12  13
ENDBRANCH  10  12
BRANCH   7  19
ATOM     19  S   UNL     1      -1.671  -4.716  29.172  0.00  0.00    -0.064 S 
BRANCH  19  20
ATOM     20  C   UNL     1      -0.445  -4.469  27.960  0.00  0.00    +0.109 C 
ATOM     21  S   UNL     1       0.485  -5.784  27.541  0.00  0.00    -0.028 S 
BRANCH  20  22
ATOM     22  N   UNL     1      -0.197  -3.241  27.323  0.00  0.00    -0.347 N 
ATOM     23  H   UNL     1      -0.734  -2.449  27.554  0.00  0.00    +0.143 HD
ATOM     24  H   UNL     1       0.514  -3.173  26.645  0.00  0.00    +0.143 HD
ENDBRANCH  20  22
ENDBRANCH  19  20
ENDBRANCH   7  19
TORSDOF 7
