MODEL 1
REMARK VINA RESULT:    -6.613      0.000      0.000
REMARK INTER + INTRA:          -8.811
REMARK INTER:                  -8.353
REMARK INTRA:                  -0.459
REMARK UNBOUND:                -0.459
REMARK  Name = =
REMARK  5 active torsions:
REMARK  status: ('A' for Active; 'I' for Inactive)
REMARK    1  A    between atoms: C_1  and  O_13
REMARK    2  A    between atoms: C_2  and  O_21
REMARK    3  A    between atoms: O_13  and  C_18
REMARK    4  A    between atoms: O_21  and  S_22
REMARK    5  A    between atoms: S_22  and  S_23
REMARK                            x       y       z     vdW  Elec       q    Type
REMARK                         _______ _______ _______ _____ _____    ______ ____
ROOT
ATOM      1  C   UNL     1      50.629 166.144  41.989  0.00  0.00    +0.222 C 
ATOM      2  C   UNL     1      51.222 164.941  41.996  0.00  0.00    +0.232 C 
ATOM      3  C   UNL     1      50.529 163.737  41.589  0.00  0.00    +0.234 C 
ATOM      4  O   UNL     1      51.136 162.622  41.616  0.00  0.00    -0.283 OA
ATOM      5  C   UNL     1      49.139 163.843  41.157  0.00  0.00    +0.045 C 
ATOM      6  C   UNL     1      48.500 165.082  41.139  0.00  0.00    +0.045 C 
ATOM      7  C   UNL     1      47.190 165.216  40.738  0.00  0.00    +0.003 C 
ATOM      8  C   UNL     1      46.512 164.101  40.348  0.00  0.00    +0.000 C 
ATOM      9  C   UNL     1      47.125 162.856  40.356  0.00  0.00    +0.000 C 
ATOM     10  C   UNL     1      48.432 162.727  40.758  0.00  0.00    +0.003 C 
ATOM     11  C   UNL     1      49.239 166.269  41.559  0.00  0.00    +0.233 C 
ATOM     12  O   UNL     1      48.701 167.426  41.563  0.00  0.00    -0.283 OA
ENDROOT
BRANCH   1  13
ATOM     13  O   UNL     1      51.297 167.285  42.379  0.00  0.00    -0.447 OA
BRANCH  13  18
ATOM     14  F   UNL     1      53.459 170.879  38.781  0.00  0.00    -0.204 F 
ATOM     15  C   UNL     1      52.923 170.000  39.682  0.00  0.00    +0.140 C 
ATOM     16  C   UNL     1      52.639 170.374  40.978  0.00  0.00    +0.033 C 
ATOM     17  C   UNL     1      52.090 169.479  41.902  0.00  0.00    +0.040 C 
ATOM     18  C   UNL     1      51.839 168.190  41.479  0.00  0.00    +0.146 C 
ATOM     19  C   UNL     1      52.110 167.777  40.190  0.00  0.00    +0.040 C 
ATOM     20  C   UNL     1      52.647 168.697  39.321  0.00  0.00    +0.033 C 
ENDBRANCH  13  18
ENDBRANCH   1  13
BRANCH   2  21
ATOM     21  O   UNL     1      52.548 164.869  42.414  0.00  0.00    -0.406 OA
BRANCH  21  22
ATOM     22  S   UNL     1      53.873 164.731  41.296  0.00  0.00    +0.124 S 
BRANCH  22  23
ATOM     23  S   UNL     1      54.797 162.829  41.584  0.00  0.00    -0.068 S 
ATOM     24  H   UNL     1      56.147 162.984  41.634  0.00  0.00    +0.117 HD
ENDBRANCH  22  23
ENDBRANCH  21  22
ENDBRANCH   2  21
TORSDOF 5
ENDMDL
