MODEL 1
REMARK VINA RESULT:    -7.519      0.000      0.000
REMARK INTER + INTRA:         -10.421
REMARK INTER:                  -9.277
REMARK INTRA:                  -1.145
REMARK UNBOUND:                -1.145
REMARK  Name = =
REMARK  4 active torsions:
REMARK  status: ('A' for Active; 'I' for Inactive)
REMARK    1  A    between atoms: C_1  and  C_17
REMARK    2  A    between atoms: N_2  and  N_24
REMARK    3  A    between atoms: C_35  and  O_37
REMARK    4  A    between atoms: O_37  and  S_38
REMARK                            x       y       z     vdW  Elec       q    Type
REMARK                         _______ _______ _______ _____ _____    ______ ____
ROOT
ATOM      1  C   UNL     1      63.146 166.871  37.046  0.00  0.00    +0.112 C 
ATOM      2  N   UNL     1      64.439 166.624  37.679  0.00  0.00    -0.198 NA
ATOM      3  C   UNL     1      65.453 166.655  36.678  0.00  0.00    +0.160 C 
ATOM      4  N   UNL     1      65.187 165.929  35.482  0.00  0.00    -0.283 NA
ATOM      5  C   UNL     1      63.952 166.245  34.839  0.00  0.00    +0.071 C 
ATOM      6  C   UNL     1      63.326 167.385  35.657  0.00  0.00    +0.040 C 
ATOM      7  H   UNL     1      65.177 164.936  35.712  0.00  0.00    +0.125 HD
ENDROOT
BRANCH   1  18
ATOM      8  N   UNL     1      60.084 166.700  35.640  0.00  0.00    -0.210 NA
ATOM      9  C   UNL     1      60.364 166.447  36.931  0.00  0.00    +0.232 C 
ATOM     10  N   UNL     1      60.102 165.177  37.359  0.00  0.00    -0.193 NA
ATOM     11  C   UNL     1      59.595 164.226  36.555  0.00  0.00    +0.182 C 
ATOM     12  C   UNL     1      59.313 164.500  35.234  0.00  0.00    +0.105 C 
ATOM     13  C   UNL     1      59.576 165.784  34.791  0.00  0.00    +0.120 C 
ATOM     14  N   UNL     1      58.816 163.409  34.616  0.00  0.00    -0.292 N 
ATOM     15  C   UNL     1      58.784 162.442  35.558  0.00  0.00    +0.166 C 
ATOM     16  N   UNL     1      59.251 162.926  36.723  0.00  0.00    -0.208 NA
ATOM     17  N   UNL     1      60.890 167.428  37.811  0.00  0.00    -0.192 N 
ATOM     18  C   UNL     1      62.203 167.616  37.864  0.00  0.00    +0.058 C 
ATOM     19  C   UNL     1      62.681 168.589  38.753  0.00  0.00    +0.044 C 
ATOM     20  C   UNL     1      61.821 169.320  39.541  0.00  0.00    +0.120 C 
ATOM     21  N   UNL     1      60.495 169.096  39.455  0.00  0.00    -0.147 NA
ATOM     22  C   UNL     1      60.047 168.162  38.600  0.00  0.00    +0.338 C 
ATOM     23  O   UNL     1      58.812 167.930  38.498  0.00  0.00    -0.250 OA
ATOM     24  N   UNL     1      62.266 170.312  40.455  0.00  0.00    -0.344 N 
ATOM     25  H   UNL     1      58.534 163.334  33.675  0.00  0.00    +0.154 HD
ATOM     26  H   UNL     1      63.227 170.503  40.544  0.00  0.00    +0.144 HD
ATOM     27  H   UNL     1      61.612 170.809  40.998  0.00  0.00    +0.144 HD
ENDBRANCH   1  18
BRANCH   2  28
ATOM     28  N   UNL     1      64.426 165.472  38.431  0.00  0.00    -0.218 NA
ATOM     29  C   UNL     1      65.555 165.249  39.276  0.00  0.00    +0.089 C 
ATOM     30  C   UNL     1      65.320 163.965  40.043  0.00  0.00    +0.023 C 
ATOM     31  C   UNL     1      65.353 162.746  39.152  0.00  0.00    +0.025 C 
ATOM     32  C   UNL     1      65.240 163.277  37.710  0.00  0.00    +0.022 C 
ATOM     33  C   UNL     1      64.104 164.265  37.698  0.00  0.00    +0.077 C 
ATOM     34  C   UNL     1      62.837 163.711  38.272  0.00  0.00    +0.044 C 
ATOM     35  C   UNL     1      62.936 162.394  38.886  0.00  0.00    -0.022 C 
ATOM     36  C   UNL     1      64.143 161.905  39.330  0.00  0.00    -0.026 C 
ATOM     37  C   UNL     1      64.236 160.675  39.913  0.00  0.00    -0.001 C 
ATOM     38  C   UNL     1      63.064 159.928  40.042  0.00  0.00    +0.039 C 
ATOM     39  C   UNL     1      61.841 160.392  39.607  0.00  0.00    +0.171 C 
ATOM     40  C   UNL     1      61.767 161.631  39.026  0.00  0.00    +0.035 C 
BRANCH  39  41
ATOM     41  O   UNL     1      60.682 159.613  39.755  0.00  0.00    -0.363 OA
BRANCH  41  42
ATOM     42  S   UNL     1      59.489 159.687  38.545  0.00  0.00    +0.009 S 
ATOM     43  O   UNL     1      58.282 160.381  39.107  0.00  0.00    -0.065 OA
ATOM     44  O   UNL     1      59.103 158.297  38.105  0.00  0.00    -0.065 OA
ATOM     45  H   UNL     1      59.972 160.367  37.471  0.00  0.00    +0.227 HD
ENDBRANCH  41  42
ENDBRANCH  39  41
ENDBRANCH   2  28
TORSDOF 4
ENDMDL
