REMARK  Name = =
REMARK  0 active torsions:
REMARK  status: ('A' for Active; 'I' for Inactive)
REMARK                            x       y       z     vdW  Elec       q    Type
REMARK                         _______ _______ _______ _____ _____    ______ ____
ROOT
ATOM      1  C   UNL     1      -4.264  -4.222  30.845  0.00  0.00    -0.004 C 
ATOM      2  C   UNL     1      -3.050  -4.186  30.190  0.00  0.00    -0.021 C 
ATOM      3  C   UNL     1      -2.480  -2.978  29.826  0.00  0.00    -0.021 C 
ATOM      4  C   UNL     1      -3.153  -1.830  30.135  0.00  0.00    -0.004 C 
ATOM      5  C   UNL     1      -4.377  -1.869  30.795  0.00  0.00    -0.000 C 
ATOM      6  C   UNL     1      -4.935  -3.058  31.151  0.00  0.00    -0.000 C 
ATOM      7  C   UNL     1      -1.156  -2.937  29.120  0.00  0.00    +0.052 C 
ATOM      8  C   UNL     1      -0.339  -4.023  29.784  0.00  0.00    -0.021 C 
ATOM      9  C   UNL     1      -0.900  -5.225  30.152  0.00  0.00    -0.021 C 
ATOM     10  C   UNL     1      -0.163  -6.235  30.769  0.00  0.00    -0.004 C 
ATOM     11  C   UNL     1       1.165  -6.013  31.014  0.00  0.00    -0.000 C 
ATOM     12  C   UNL     1       1.762  -4.817  30.658  0.00  0.00    -0.000 C 
ATOM     13  C   UNL     1       0.997  -3.835  30.045  0.00  0.00    -0.004 C 
ATOM     14  C   UNL     1      -2.354  -5.449  29.867  0.00  0.00    +0.052 C 
ENDROOT
TORSDOF 0
