REMARK  Name = =
REMARK  1 active torsions:
REMARK  status: ('A' for Active; 'I' for Inactive)
REMARK    1  A    between atoms: C_12  and  N_15
REMARK                            x       y       z     vdW  Elec       q    Type
REMARK                         _______ _______ _______ _____ _____    ______ ____
ROOT
ATOM      1  C   UNL     1      -4.062  -4.539  30.871  0.00  0.00    -0.004 C 
ATOM      2  C   UNL     1      -2.848  -5.193  30.727  0.00  0.00    -0.021 C 
ATOM      3  C   UNL     1      -1.800  -4.466  30.201  0.00  0.00    -0.021 C 
ATOM      4  C   UNL     1      -1.939  -3.133  29.825  0.00  0.00    -0.004 C 
ATOM      5  C   UNL     1      -3.154  -2.509  29.979  0.00  0.00    -0.000 C 
ATOM      6  C   UNL     1      -4.218  -3.211  30.502  0.00  0.00    -0.000 C 
ATOM      7  C   UNL     1      -0.502  -5.149  30.043  0.00  0.00    +0.052 C 
ATOM      8  C   UNL     1      -0.658  -6.580  29.687  0.00  0.00    -0.020 C 
ATOM      9  C   UNL     1      -1.711  -7.300  30.209  0.00  0.00    -0.021 C 
ATOM     10  C   UNL     1      -1.893  -8.640  29.903  0.00  0.00    -0.003 C 
ATOM     11  C   UNL     1      -1.013  -9.303  29.055  0.00  0.00    +0.014 C 
ATOM     12  C   UNL     1       0.046  -8.598  28.524  0.00  0.00    +0.048 C 
ATOM     13  C   UNL     1       0.199  -7.251  28.854  0.00  0.00    +0.010 C 
ATOM     14  C   UNL     1      -2.665  -6.614  31.117  0.00  0.00    +0.052 C 
ENDROOT
BRANCH  12  15
ATOM     15  N   UNL     1       0.950  -9.247  27.661  0.00  0.00    -0.303 N 
ATOM     16  C   UNL     1       0.741 -10.600  27.204  0.00  0.00    +0.123 C 
ATOM     17  C   UNL     1       1.461 -10.900  25.926  0.00  0.00    +0.164 C 
ATOM     18  O   UNL     1       2.775 -10.525  25.873  0.00  0.00    -0.350 OA
ATOM     19  C   UNL     1       3.207  -9.686  26.861  0.00  0.00    +0.164 C 
ATOM     20  C   UNL     1       2.169  -8.603  27.171  0.00  0.00    +0.123 C 
ENDBRANCH  12  15
TORSDOF 1
