REMARK  Name = =
REMARK  4 active torsions:
REMARK  status: ('A' for Active; 'I' for Inactive)
REMARK    1  A    between atoms: C_1  and  C_21
REMARK    2  A    between atoms: C_12  and  N_15
REMARK    3  A    between atoms: C_23  and  O_28
REMARK    4  A    between atoms: C_24  and  O_27
REMARK                            x       y       z     vdW  Elec       q    Type
REMARK                         _______ _______ _______ _____ _____    ______ ____
ROOT
ATOM      1  C   UNL     1      -1.622  -3.945  29.482  0.00  0.00    -0.004 C 
ATOM      2  C   UNL     1      -0.618  -4.833  29.306  0.00  0.00    -0.021 C 
ATOM      3  C   UNL     1       0.233  -4.650  28.207  0.00  0.00    -0.021 C 
ATOM      4  C   UNL     1       0.062  -3.606  27.329  0.00  0.00    -0.004 C 
ATOM      5  C   UNL     1      -0.955  -2.698  27.501  0.00  0.00    -0.000 C 
ATOM      6  C   UNL     1      -1.786  -2.882  28.580  0.00  0.00    -0.000 C 
ATOM      7  C   UNL     1       1.324  -5.648  28.043  0.00  0.00    +0.052 C 
ATOM      8  C   UNL     1       0.761  -6.996  28.262  0.00  0.00    -0.020 C 
ATOM      9  C   UNL     1      -0.082  -7.145  29.363  0.00  0.00    -0.021 C 
ATOM     10  C   UNL     1      -0.606  -8.393  29.581  0.00  0.00    -0.003 C 
ATOM     11  C   UNL     1      -0.316  -9.463  28.750  0.00  0.00    +0.014 C 
ATOM     12  C   UNL     1       0.512  -9.282  27.682  0.00  0.00    +0.048 C 
ATOM     13  C   UNL     1       1.063  -8.031  27.429  0.00  0.00    +0.010 C 
ATOM     14  C   UNL     1      -0.377  -5.961  30.239  0.00  0.00    +0.052 C 
ENDROOT
BRANCH  12  15
ATOM     15  N   UNL     1       0.852 -10.337  26.776  0.00  0.00    -0.303 N 
ATOM     16  C   UNL     1       1.905 -10.187  25.790  0.00  0.00    +0.123 C 
ATOM     17  C   UNL     1       2.382 -11.600  25.452  0.00  0.00    +0.164 C 
ATOM     18  O   UNL     1       1.391 -12.336  24.854  0.00  0.00    -0.350 OA
ATOM     19  C   UNL     1       0.129 -12.078  25.321  0.00  0.00    +0.164 C 
ATOM     20  C   UNL     1       0.161 -11.612  26.786  0.00  0.00    +0.123 C 
ENDBRANCH  12  15
BRANCH   1  21
ATOM     21  C   UNL     1      -2.603  -4.050  30.567  0.00  0.00    +0.003 C 
ATOM     22  C   UNL     1      -3.397  -2.976  30.916  0.00  0.00    +0.040 C 
ATOM     23  C   UNL     1      -4.346  -3.057  31.919  0.00  0.00    +0.167 C 
ATOM     24  C   UNL     1      -4.533  -4.232  32.614  0.00  0.00    +0.167 C 
ATOM     25  C   UNL     1      -3.749  -5.311  32.276  0.00  0.00    +0.040 C 
ATOM     26  C   UNL     1      -2.788  -5.222  31.258  0.00  0.00    +0.003 C 
BRANCH  24  27
ATOM     27  O   UNL     1      -5.495  -4.320  33.632  0.00  0.00    -0.503 OA
ATOM     28  H   UNL     1      -6.019  -3.574  33.847  0.00  0.00    +0.292 HD
ENDBRANCH  24  27
BRANCH  23  29
ATOM     29  O   UNL     1      -5.146  -1.976  32.272  0.00  0.00    -0.503 OA
ATOM     30  H   UNL     1      -5.052  -1.158  31.825  0.00  0.00    +0.292 HD
ENDBRANCH  23  29
ENDBRANCH   1  21
TORSDOF 4
