REMARK  Name = =
REMARK  6 active torsions:
REMARK  status: ('A' for Active; 'I' for Inactive)
REMARK    1  A    between atoms: C_7  and  S_23
REMARK    2  A    between atoms: C_10  and  O_22
REMARK    3  A    between atoms: C_18  and  N_24
REMARK    4  A    between atoms: N_24  and  C_25
REMARK    5  A    between atoms: N_24  and  O_28
REMARK    6  A    between atoms: C_25  and  N_27
REMARK                            x       y       z     vdW  Elec       q    Type
REMARK                         _______ _______ _______ _____ _____    ______ ____
ROOT
ATOM      1  C   UNL     1      -1.478  -3.022  29.411  0.00  0.00    +0.019 C 
ATOM      2  C   UNL     1      -2.213  -3.492  30.462  0.00  0.00    +0.097 C 
ATOM      3  N   UNL     1      -1.840  -4.659  31.012  0.00  0.00    -0.247 NA
ATOM      4  C   UNL     1      -0.799  -5.334  30.554  0.00  0.00    +0.073 C 
ATOM      5  C   UNL     1      -0.012  -4.925  29.500  0.00  0.00    +0.003 C 
ATOM      6  C   UNL     1      -0.378  -3.728  28.921  0.00  0.00    -0.001 C 
ATOM      7  C   UNL     1       0.918  -6.119  29.572  0.00  0.00    +0.076 C 
ATOM      8  C   UNL     1       0.062  -6.548  30.651  0.00  0.00    +0.110 C 
ATOM      9  N   UNL     1       0.447  -6.937  31.944  0.00  0.00    -0.243 N 
ATOM     10  C   UNL     1       1.614  -7.083  32.708  0.00  0.00    +0.402 C 
ATOM     11  O   UNL     1       2.739  -6.837  32.236  0.00  0.00    -0.226 OA
ATOM     12  C   UNL     1      -0.879  -7.272  32.553  0.00  0.00    +0.097 C 
ATOM     13  C   UNL     1      -1.535  -8.084  31.454  0.00  0.00    +0.024 C 
ATOM     14  C   UNL     1      -0.734  -7.799  30.224  0.00  0.00    +0.025 C 
ATOM     15  C   UNL     1       0.796  -6.996  28.344  0.00  0.00    +0.016 C 
ATOM     16  C   UNL     1      -0.626  -7.176  27.892  0.00  0.00    +0.001 C 
ATOM     17  C   UNL     1      -1.575  -7.337  29.061  0.00  0.00    +0.002 C 
ATOM     18  C   UNL     1      -3.328  -2.826  30.997  0.00  0.00    +0.097 C 
ATOM     19  C   UNL     1      -3.645  -1.648  30.387  0.00  0.00    +0.019 C 
ATOM     20  C   UNL     1      -2.913  -1.140  29.309  0.00  0.00    +0.001 C 
ATOM     21  C   UNL     1      -1.842  -1.824  28.830  0.00  0.00    +0.002 C 
ENDROOT
BRANCH  10  22
ATOM     22  O   UNL     1       1.600  -7.510  34.038  0.00  0.00    -0.466 OA
ATOM     23  H   UNL     1       0.786  -7.713  34.456  0.00  0.00    +0.297 HD
ENDBRANCH  10  22
BRANCH   7  24
ATOM     24  S   UNL     1       2.626  -5.651  29.828  0.00  0.00    -0.163 S 
ATOM     25  H   UNL     1       2.720  -4.864  30.933  0.00  0.00    +0.103 HD
ENDBRANCH   7  24
BRANCH  18  26
ATOM     26  N   UNL     1      -4.041  -3.366  32.080  0.00  0.00    -0.161 N 
BRANCH  26  27
ATOM     27  C   UNL     1      -5.305  -3.068  32.580  0.00  0.00    +0.159 C 
ATOM     28  S   UNL     1      -6.475  -2.313  31.753  0.00  0.00    -0.017 S 
BRANCH  27  29
ATOM     29  N   UNL     1      -5.644  -3.444  33.934  0.00  0.00    -0.339 N 
ATOM     30  H   UNL     1      -4.982  -3.907  34.497  0.00  0.00    +0.144 HD
ATOM     31  H   UNL     1      -6.537  -3.237  34.293  0.00  0.00    +0.144 HD
ENDBRANCH  27  29
ENDBRANCH  26  27
BRANCH  26  32
ATOM     32  O   UNL     1      -3.360  -4.370  32.766  0.00  0.00    -0.288 OA
ATOM     33  H   UNL     1      -2.494  -4.513  32.354  0.00  0.00    +0.242 HD
ENDBRANCH  26  32
ENDBRANCH  18  26
TORSDOF 6
