REMARK  Name = =
REMARK  7 active torsions:
REMARK  status: ('A' for Active; 'I' for Inactive)
REMARK    1  A    between atoms: C_1  and  C_21
REMARK    2  A    between atoms: C_6  and  S_29
REMARK    3  A    between atoms: C_12  and  N_15
REMARK    4  A    between atoms: C_23  and  O_28
REMARK    5  A    between atoms: C_24  and  O_27
REMARK    6  A    between atoms: S_29  and  S_30
REMARK    7  A    between atoms: S_30  and  S_31
REMARK                            x       y       z     vdW  Elec       q    Type
REMARK                         _______ _______ _______ _____ _____    ______ ____
ROOT
ATOM      1  C   UNL     1      -1.862  -3.808  29.197  0.00  0.00    +0.003 C 
ATOM      2  C   UNL     1      -0.801  -4.390  28.518  0.00  0.00    -0.021 C 
ATOM      3  C   UNL     1      -0.111  -3.659  27.577  0.00  0.00    -0.021 C 
ATOM      4  C   UNL     1      -0.474  -2.337  27.305  0.00  0.00    -0.004 C 
ATOM      5  C   UNL     1      -1.533  -1.744  27.977  0.00  0.00    +0.007 C 
ATOM      6  C   UNL     1      -2.212  -2.506  28.923  0.00  0.00    +0.036 C 
ATOM      7  C   UNL     1       1.016  -4.248  26.851  0.00  0.00    +0.052 C 
ATOM      8  C   UNL     1       0.974  -5.723  26.763  0.00  0.00    -0.020 C 
ATOM      9  C   UNL     1       0.274  -6.424  27.713  0.00  0.00    -0.021 C 
ATOM     10  C   UNL     1       0.244  -7.795  27.619  0.00  0.00    -0.003 C 
ATOM     11  C   UNL     1       0.898  -8.466  26.598  0.00  0.00    +0.014 C 
ATOM     12  C   UNL     1       1.611  -7.774  25.627  0.00  0.00    +0.048 C 
ATOM     13  C   UNL     1       1.619  -6.404  25.752  0.00  0.00    +0.010 C 
ATOM     14  C   UNL     1      -0.437  -5.780  28.817  0.00  0.00    +0.052 C 
ENDROOT
BRANCH  12  15
ATOM     15  N   UNL     1       2.297  -8.457  24.559  0.00  0.00    -0.303 N 
ATOM     16  C   UNL     1       2.250  -9.874  24.397  0.00  0.00    +0.123 C 
ATOM     17  C   UNL     1       2.494 -10.224  22.947  0.00  0.00    +0.164 C 
ATOM     18  O   UNL     1       3.774  -9.716  22.653  0.00  0.00    -0.350 OA
ATOM     19  C   UNL     1       3.633  -8.351  22.497  0.00  0.00    +0.164 C 
ATOM     20  C   UNL     1       3.049  -7.631  23.656  0.00  0.00    +0.123 C 
ENDBRANCH  12  15
BRANCH   1  21
ATOM     21  C   UNL     1      -2.626  -4.533  30.201  0.00  0.00    +0.003 C 
ATOM     22  C   UNL     1      -1.998  -5.022  31.321  0.00  0.00    +0.040 C 
ATOM     23  C   UNL     1      -2.682  -5.725  32.315  0.00  0.00    +0.167 C 
ATOM     24  C   UNL     1      -4.033  -5.957  32.209  0.00  0.00    +0.167 C 
ATOM     25  C   UNL     1      -4.671  -5.463  31.076  0.00  0.00    +0.040 C 
ATOM     26  C   UNL     1      -3.982  -4.773  30.107  0.00  0.00    +0.003 C 
BRANCH  24  27
ATOM     27  O   UNL     1      -4.775  -6.656  33.172  0.00  0.00    -0.503 OA
ATOM     28  H   UNL     1      -4.351  -6.991  33.937  0.00  0.00    +0.292 HD
ENDBRANCH  24  27
BRANCH  23  29
ATOM     29  O   UNL     1      -2.011  -6.203  33.427  0.00  0.00    -0.503 OA
ATOM     30  H   UNL     1      -1.090  -6.055  33.518  0.00  0.00    +0.292 HD
ENDBRANCH  23  29
ENDBRANCH   1  21
BRANCH   6  31
ATOM     31  S   UNL     1      -3.583  -1.799  29.821  0.00  0.00    -0.045 S 
BRANCH  31  32
ATOM     32  S   UNL     1      -3.302   0.279  30.148  0.00  0.00    -0.022 S 
BRANCH  32  33
ATOM     33  S   UNL     1      -4.474   1.444  28.812  0.00  0.00    -0.099 S 
ATOM     34  H   UNL     1      -4.263   2.765  29.057  0.00  0.00    +0.115 HD
ENDBRANCH  32  33
ENDBRANCH  31  32
ENDBRANCH   6  31
TORSDOF 7
