REMARK  Name = =
REMARK  6 active torsions:
REMARK  status: ('A' for Active; 'I' for Inactive)
REMARK    1  A    between atoms: C_8  and  S_24
REMARK    2  A    between atoms: C_11  and  O_23
REMARK    3  A    between atoms: C_19  and  N_25
REMARK    4  A    between atoms: N_25  and  C_26
REMARK    5  A    between atoms: N_25  and  O_29
REMARK    6  A    between atoms: C_26  and  N_28
REMARK                            x       y       z     vdW  Elec       q    Type
REMARK                         _______ _______ _______ _____ _____    ______ ____
ROOT
ATOM      1  C   UNL     1      -1.384  -3.272  29.326  0.00  0.00    +0.024 A 
ATOM      2  C   UNL     1      -2.162  -3.477  30.430  0.00  0.00    +0.097 A 
ATOM      3  N   UNL     1      -1.962  -4.547  31.205  0.00  0.00    -0.247 NA
ATOM      4  C   UNL     1      -0.979  -5.435  30.893  0.00  0.00    +0.074 A 
ATOM      5  C   UNL     1      -0.158  -5.296  29.805  0.00  0.00    +0.009 A 
ATOM      6  C   UNL     1      -0.372  -4.174  28.997  0.00  0.00    +0.030 A 
ATOM      7  I   UNL     1       0.810  -3.827  27.297  0.00  0.00    -0.043 I 
ATOM      8  C   UNL     1       0.618  -6.533  30.079  0.00  0.00    +0.076 C 
ATOM      9  C   UNL     1      -0.273  -6.697  31.224  0.00  0.00    +0.110 C 
ATOM     10  N   UNL     1      -1.159  -7.862  31.154  0.00  0.00    -0.243 N 
ATOM     11  C   UNL     1      -2.258  -8.066  30.293  0.00  0.00    +0.402 C 
ATOM     12  O   UNL     1      -2.574  -7.180  29.462  0.00  0.00    -0.226 OA
ATOM     13  C   UNL     1      -0.708  -8.815  32.150  0.00  0.00    +0.097 C 
ATOM     14  C   UNL     1      -0.403  -7.882  33.308  0.00  0.00    +0.024 C 
ATOM     15  C   UNL     1       0.288  -6.747  32.584  0.00  0.00    +0.025 C 
ATOM     16  C   UNL     1       2.046  -6.210  30.329  0.00  0.00    +0.016 C 
ATOM     17  C   UNL     1       2.410  -5.956  31.752  0.00  0.00    +0.001 C 
ATOM     18  C   UNL     1       1.767  -7.048  32.587  0.00  0.00    +0.002 C 
ATOM     19  C   UNL     1      -3.169  -2.561  30.762  0.00  0.00    +0.097 C 
ATOM     20  C   UNL     1      -3.342  -1.467  29.945  0.00  0.00    +0.019 C 
ATOM     21  C   UNL     1      -2.547  -1.289  28.841  0.00  0.00    +0.001 C 
ATOM     22  C   UNL     1      -1.548  -2.165  28.484  0.00  0.00    +0.002 C 
ENDROOT
BRANCH  11  23
ATOM     23  O   UNL     1      -3.014  -9.222  30.333  0.00  0.00    -0.466 OA
ATOM     24  H   UNL     1      -2.801  -9.900  30.943  0.00  0.00    +0.297 HD
ENDBRANCH  11  23
BRANCH   8  25
ATOM     25  S   UNL     1       0.388  -7.836  28.812  0.00  0.00    -0.163 S 
ATOM     26  H   UNL     1       1.247  -7.621  27.779  0.00  0.00    +0.103 HD
ENDBRANCH   8  25
BRANCH  19  27
ATOM     27  N   UNL     1      -3.969  -2.769  31.919  0.00  0.00    -0.161 N 
BRANCH  27  28
ATOM     28  C   UNL     1      -5.379  -2.749  31.915  0.00  0.00    +0.159 C 
ATOM     29  S   UNL     1      -6.154  -2.933  33.352  0.00  0.00    -0.017 S 
BRANCH  28  30
ATOM     30  N   UNL     1      -6.181  -2.577  30.749  0.00  0.00    -0.339 N 
ATOM     31  H   UNL     1      -5.753  -2.464  29.870  0.00  0.00    +0.144 HD
ATOM     32  H   UNL     1      -7.163  -2.572  30.823  0.00  0.00    +0.144 HD
ENDBRANCH  28  30
ENDBRANCH  27  28
BRANCH  27  33
ATOM     33  O   UNL     1      -3.306  -3.000  33.067  0.00  0.00    -0.288 OA
ATOM     34  H   UNL     1      -2.351  -2.980  32.898  0.00  0.00    +0.242 HD
ENDBRANCH  27  33
ENDBRANCH  19  27
TORSDOF 6
