MODEL 1
REMARK VINA RESULT:   -10.966      0.000      0.000
REMARK INTER + INTRA:         -19.497
REMARK INTER:                 -17.697
REMARK INTRA:                  -1.800
REMARK UNBOUND:                -1.800
REMARK  Name = =
REMARK  13 active torsions:
REMARK  status: ('A' for Active; 'I' for Inactive)
REMARK    1  A    between atoms: C_14  and  O_24
REMARK    2  A    between atoms: O_24  and  P_25
REMARK    3  A    between atoms: P_25  and  O_27
REMARK    4  A    between atoms: P_25  and  O_28
REMARK    5  A    between atoms: O_28  and  P_29
REMARK    6  A    between atoms: P_29  and  O_31
REMARK    7  A    between atoms: P_29  and  O_32
REMARK    8  A    between atoms: O_32  and  P_33
REMARK    9  A    between atoms: P_33  and  O_35
REMARK   10  A    between atoms: P_33  and  O_36
REMARK   11  A    between atoms: O_36  and  P_37
REMARK   12  A    between atoms: P_37  and  O_39
REMARK   13  A    between atoms: P_37  and  O_40
REMARK                            x       y       z     vdW  Elec       q    Type
REMARK                         _______ _______ _______ _____ _____    ______ ____
ROOT
ATOM      1  N   UNL     1     -12.515 -42.536  31.988  0.00  0.00    -0.264 N 
ATOM      2  C   UNL     1     -13.082 -41.494  32.871  0.00  0.00    +0.095 C 
ATOM      3  C   UNL     1     -13.574 -42.222  34.125  0.00  0.00    +0.022 C 
ATOM      4  C   UNL     1     -14.034 -43.623  33.750  0.00  0.00    +0.004 C 
ATOM      5  C   UNL     1     -14.638 -43.564  32.361  0.00  0.00    +0.022 C 
ATOM      6  C   UNL     1     -13.491 -43.333  31.326  0.00  0.00    +0.095 C 
ATOM      7  C   UNL     1     -11.125 -42.735  32.011  0.00  0.00    +0.315 C 
ATOM      8  O   UNL     1     -10.545 -42.095  33.009  0.00  0.00    -0.252 OA
ATOM      9  N   UNL     1     -10.278 -43.459  31.215  0.00  0.00    -0.222 N 
ATOM     10  C   UNL     1     -10.723 -43.976  29.934  0.00  0.00    +0.063 C 
ATOM     11  C   UNL     1     -10.423 -45.178  29.356  0.00  0.00    +0.014 C 
ATOM     12  C   UNL     1     -10.952 -45.499  28.079  0.00  0.00    +0.004 C 
ATOM     13  C   UNL     1     -11.750 -44.558  27.484  0.00  0.00    +0.038 C 
ATOM     14  C   UNL     1     -12.049 -43.332  28.077  0.00  0.00    +0.150 C 
ATOM     15  C   UNL     1     -11.527 -43.046  29.309  0.00  0.00    +0.053 C 
ATOM     16  C   UNL     1      -9.538 -46.278  29.740  0.00  0.00    +0.001 C 
ATOM     17  C   UNL     1      -8.985 -46.290  31.109  0.00  0.00    +0.001 C 
ATOM     18  C   UNL     1      -8.409 -45.051  31.663  0.00  0.00    +0.014 C 
ATOM     19  C   UNL     1      -8.962 -43.778  31.734  0.00  0.00    +0.060 C 
ATOM     20  C   UNL     1      -8.401 -42.687  32.292  0.00  0.00    +0.015 C 
ATOM     21  C   UNL     1      -7.146 -42.859  32.850  0.00  0.00    +0.001 C 
ATOM     22  C   UNL     1      -6.549 -44.123  32.800  0.00  0.00    +0.000 C 
ATOM     23  C   UNL     1      -7.144 -45.213  32.225  0.00  0.00    +0.001 C 
ENDROOT
BRANCH  14  24
ATOM     24  O   UNL     1     -12.859 -42.422  27.431  0.00  0.00    -0.402 OA
BRANCH  24  25
ATOM     25  P   UNL     1     -14.515 -42.838  27.180  0.00  0.00    +0.539 P 
ATOM     26  O   UNL     1     -15.019 -43.713  28.320  0.00  0.00    -0.215 OA
BRANCH  25  27
ATOM     27  O   UNL     1     -15.453 -41.454  27.104  0.00  0.00    -0.293 OA
ATOM     28  H   UNL     1     -14.998 -40.730  27.563  0.00  0.00    +0.223 HD
ENDBRANCH  25  27
BRANCH  25  29
ATOM     29  O   UNL     1     -14.594 -43.744  25.760  0.00  0.00    -0.176 OA
BRANCH  29  30
ATOM     30  P   UNL     1     -15.088 -42.791  24.457  0.00  0.00    +0.493 P 
ATOM     31  O   UNL     1     -15.152 -43.664  23.232  0.00  0.00    -0.226 OA
BRANCH  30  32
ATOM     32  O   UNL     1     -14.056 -41.510  24.159  0.00  0.00    -0.302 OA
ATOM     33  H   UNL     1     -13.945 -41.400  23.201  0.00  0.00    +0.222 HD
ENDBRANCH  30  32
BRANCH  30  34
ATOM     34  O   UNL     1     -16.649 -42.162  24.713  0.00  0.00    -0.185 OA
BRANCH  34  35
ATOM     35  P   UNL     1     -17.215 -41.600  23.222  0.00  0.00    +0.492 P 
ATOM     36  O   UNL     1     -16.124 -40.755  22.599  0.00  0.00    -0.226 OA
BRANCH  35  37
ATOM     37  O   UNL     1     -17.558 -42.943  22.240  0.00  0.00    -0.302 OA
ATOM     38  H   UNL     1     -18.498 -42.938  22.002  0.00  0.00    +0.222 HD
ENDBRANCH  35  37
BRANCH  35  39
ATOM     39  O   UNL     1     -18.569 -40.608  23.410  0.00  0.00    -0.186 OA
BRANCH  39  40
ATOM     40  P   UNL     1     -19.186 -40.281  21.868  0.00  0.00    +0.481 P 
ATOM     41  O   UNL     1     -20.330 -39.300  22.038  0.00  0.00    -0.227 OA
BRANCH  40  42
ATOM     42  O   UNL     1     -19.726 -41.699  21.120  0.00  0.00    -0.302 OA
ATOM     43  H   UNL     1     -20.390 -41.477  20.449  0.00  0.00    +0.222 HD
ENDBRANCH  40  42
BRANCH  40  44
ATOM     44  O   UNL     1     -17.952 -39.633  20.938  0.00  0.00    -0.302 OA
ATOM     45  H   UNL     1     -17.104 -40.018  21.211  0.00  0.00    +0.222 HD
ENDBRANCH  40  44
ENDBRANCH  39  40
ENDBRANCH  35  39
ENDBRANCH  34  35
ENDBRANCH  30  34
ENDBRANCH  29  30
ENDBRANCH  25  29
ENDBRANCH  24  25
ENDBRANCH  14  24
TORSDOF 13
ENDMDL
