REMARK  Name = =
REMARK  13 active torsions:
REMARK  status: ('A' for Active; 'I' for Inactive)
REMARK    1  A    between atoms: C_14  and  O_24
REMARK    2  A    between atoms: O_24  and  P_25
REMARK    3  A    between atoms: P_25  and  O_27
REMARK    4  A    between atoms: P_25  and  O_28
REMARK    5  A    between atoms: O_28  and  P_29
REMARK    6  A    between atoms: P_29  and  O_31
REMARK    7  A    between atoms: P_29  and  O_32
REMARK    8  A    between atoms: O_32  and  P_33
REMARK    9  A    between atoms: P_33  and  O_35
REMARK   10  A    between atoms: P_33  and  O_36
REMARK   11  A    between atoms: O_36  and  P_37
REMARK   12  A    between atoms: P_37  and  O_39
REMARK   13  A    between atoms: P_37  and  O_40
REMARK                            x       y       z     vdW  Elec       q    Type
REMARK                         _______ _______ _______ _____ _____    ______ ____
ROOT
ATOM      1  N   UNL     1     -10.191 -45.703  29.771  0.00  0.00    -0.264 N 
ATOM      2  C   UNL     1     -10.482 -47.058  30.289  0.00  0.00    +0.095 C 
ATOM      3  C   UNL     1      -9.418 -47.979  29.686  0.00  0.00    +0.022 C 
ATOM      4  C   UNL     1      -9.017 -47.461  28.313  0.00  0.00    +0.004 C 
ATOM      5  C   UNL     1     -10.240 -46.837  27.670  0.00  0.00    +0.022 C 
ATOM      6  C   UNL     1     -10.572 -45.504  28.414  0.00  0.00    +0.095 C 
ATOM      7  C   UNL     1      -9.453 -44.830  30.586  0.00  0.00    +0.315 C 
ATOM      8  O   UNL     1      -8.925 -45.445  31.627  0.00  0.00    -0.252 OA
ATOM      9  N   UNL     1      -9.176 -43.491  30.500  0.00  0.00    -0.222 N 
ATOM     10  C   UNL     1      -9.909 -42.639  29.582  0.00  0.00    +0.063 C 
ATOM     11  C   UNL     1      -9.434 -41.602  28.829  0.00  0.00    +0.014 C 
ATOM     12  C   UNL     1     -10.319 -40.874  27.991  0.00  0.00    +0.004 C 
ATOM     13  C   UNL     1     -11.632 -41.263  27.991  0.00  0.00    +0.038 C 
ATOM     14  C   UNL     1     -12.111 -42.320  28.764  0.00  0.00    +0.150 C 
ATOM     15  C   UNL     1     -11.238 -43.006  29.563  0.00  0.00    +0.053 C 
ATOM     16  C   UNL     1      -8.127 -40.951  28.735  0.00  0.00    +0.001 C 
ATOM     17  C   UNL     1      -6.968 -41.607  29.373  0.00  0.00    +0.001 C 
ATOM     18  C   UNL     1      -7.101 -42.127  30.746  0.00  0.00    +0.014 C 
ATOM     19  C   UNL     1      -8.066 -42.974  31.277  0.00  0.00    +0.060 C 
ATOM     20  C   UNL     1      -8.114 -43.451  32.537  0.00  0.00    +0.015 C 
ATOM     21  C   UNL     1      -7.094 -43.052  33.383  0.00  0.00    +0.001 C 
ATOM     22  C   UNL     1      -6.101 -42.197  32.893  0.00  0.00    +0.000 C 
ATOM     23  C   UNL     1      -6.080 -41.729  31.607  0.00  0.00    +0.001 C 
ENDROOT
BRANCH  14  24
ATOM     24  O   UNL     1     -13.445 -42.668  28.724  0.00  0.00    -0.402 OA
BRANCH  24  25
ATOM     25  P   UNL     1     -14.327 -42.351  27.275  0.00  0.00    +0.539 P 
ATOM     26  O   UNL     1     -15.797 -42.700  27.464  0.00  0.00    -0.215 OA
BRANCH  25  27
ATOM     27  O   UNL     1     -14.202 -40.733  26.866  0.00  0.00    -0.293 OA
ATOM     28  H   UNL     1     -14.571 -40.190  27.580  0.00  0.00    +0.223 HD
ENDBRANCH  25  27
BRANCH  25  29
ATOM     29  O   UNL     1     -13.705 -43.364  26.079  0.00  0.00    -0.176 OA
BRANCH  29  30
ATOM     30  P   UNL     1     -14.621 -43.268  24.663  0.00  0.00    +0.493 P 
ATOM     31  O   UNL     1     -15.901 -44.030  24.878  0.00  0.00    -0.226 OA
BRANCH  30  32
ATOM     32  O   UNL     1     -13.829 -43.898  23.332  0.00  0.00    -0.302 OA
ATOM     33  H   UNL     1     -13.579 -44.818  23.510  0.00  0.00    +0.222 HD
ENDBRANCH  30  32
BRANCH  30  34
ATOM     34  O   UNL     1     -15.043 -41.657  24.312  0.00  0.00    -0.185 OA
BRANCH  34  35
ATOM     35  P   UNL     1     -16.521 -41.692  23.493  0.00  0.00    +0.492 P 
ATOM     36  O   UNL     1     -16.530 -42.915  22.600  0.00  0.00    -0.226 OA
BRANCH  35  37
ATOM     37  O   UNL     1     -17.768 -41.790  24.644  0.00  0.00    -0.302 OA
ATOM     38  H   UNL     1     -17.634 -42.573  25.200  0.00  0.00    +0.222 HD
ENDBRANCH  35  37
BRANCH  35  39
ATOM     39  O   UNL     1     -16.706 -40.342  22.494  0.00  0.00    -0.186 OA
BRANCH  39  40
ATOM     40  P   UNL     1     -18.314 -40.308  21.967  0.00  0.00    +0.481 P 
ATOM     41  O   UNL     1     -18.822 -41.737  21.976  0.00  0.00    -0.227 OA
BRANCH  40  42
ATOM     42  O   UNL     1     -18.427 -39.648  20.414  0.00  0.00    -0.302 OA
ATOM     43  H   UNL     1     -17.926 -40.198  19.792  0.00  0.00    +0.222 HD
ENDBRANCH  40  42
BRANCH  40  44
ATOM     44  O   UNL     1     -19.188 -39.337  23.016  0.00  0.00    -0.302 OA
ATOM     45  H   UNL     1     -19.135 -39.701  23.914  0.00  0.00    +0.222 HD
ENDBRANCH  40  44
ENDBRANCH  39  40
ENDBRANCH  35  39
ENDBRANCH  34  35
ENDBRANCH  30  34
ENDBRANCH  29  30
ENDBRANCH  25  29
ENDBRANCH  24  25
ENDBRANCH  14  24
TORSDOF 13
