REMARK  Name = =
REMARK  0 active torsions:
REMARK  status: ('A' for Active; 'I' for Inactive)
REMARK                            x       y       z     vdW  Elec       q    Type
REMARK                         _______ _______ _______ _____ _____    ______ ____
ROOT
ATOM      1  C   UNL     1       5.877  -0.938  38.200  0.00  0.00    +0.099 C 
ATOM      2  N   UNL     1       5.653  -1.973  37.370  0.00  0.00    -0.244 NA
ATOM      3  C   UNL     1       4.485  -2.075  36.670  0.00  0.00    +0.081 C 
ATOM      4  C   UNL     1       4.252  -3.136  35.819  0.00  0.00    +0.018 C 
ATOM      5  C   UNL     1       3.090  -3.283  35.090  0.00  0.00    +0.001 C 
ATOM      6  C   UNL     1       2.107  -2.306  35.228  0.00  0.00    +0.000 C 
ATOM      7  C   UNL     1       2.308  -1.229  36.073  0.00  0.00    +0.001 C 
ATOM      8  C   UNL     1       3.497  -1.121  36.790  0.00  0.00    +0.018 C 
ATOM      9  C   UNL     1       3.740  -0.066  37.643  0.00  0.00    +0.003 C 
ATOM     10  C   UNL     1       4.924   0.050  38.361  0.00  0.00    +0.021 C 
ATOM     11  C   UNL     1       2.896  -4.365  34.245  0.00  0.00    +0.000 C 
ATOM     12  C   UNL     1       3.855  -5.344  34.094  0.00  0.00    +0.000 C 
ATOM     13  C   UNL     1       5.013  -5.188  34.826  0.00  0.00    +0.000 C 
ATOM     14  C   UNL     1       5.217  -4.115  35.669  0.00  0.00    +0.001 C 
ENDROOT
TORSDOF 0
