MODEL 1
REMARK VINA RESULT:    -8.963      0.000      0.000
REMARK INTER + INTRA:          -9.899
REMARK INTER:                  -9.487
REMARK INTRA:                  -0.412
REMARK UNBOUND:                -0.412
REMARK  Name = =
REMARK  1 active torsions:
REMARK  status: ('A' for Active; 'I' for Inactive)
REMARK    1  A    between atoms: C_1  and  C_23
REMARK                            x       y       z     vdW  Elec       q    Type
REMARK                         _______ _______ _______ _____ _____    ______ ____
ROOT
ATOM      1  C   UNL     1      51.162 156.770  29.838  0.00  0.00    +0.058 C 
ATOM      2  C   UNL     1      49.677 156.785  29.790  0.00  0.00    +0.010 C 
ATOM      3  C   UNL     1      49.019 158.115  29.777  0.00  0.00    +0.005 C 
ATOM      4  C   UNL     1      48.545 158.558  31.147  0.00  0.00    +0.001 C 
ATOM      5  C   UNL     1      48.981 160.012  31.375  0.00  0.00    +0.005 C 
ATOM      6  C   UNL     1      47.899 160.656  32.200  0.00  0.00    +0.057 C 
ATOM      7  C   UNL     1      48.325 161.948  32.843  0.00  0.00    +0.120 C 
ATOM      8  O   UNL     1      48.165 162.573  31.617  0.00  0.00    -0.356 OA
ATOM      9  C   UNL     1      47.103 161.672  31.374  0.00  0.00    +0.142 C 
ATOM     10  C   UNL     1      49.702 161.919  33.415  0.00  0.00    +0.030 C 
ATOM     11  C   UNL     1      50.125 160.446  33.510  0.00  0.00    +0.003 C 
ATOM     12  C   UNL     1      50.309 159.992  32.058  0.00  0.00    +0.001 C 
ATOM     13  C   UNL     1      51.300 160.995  31.452  0.00  0.00    +0.004 C 
ATOM     14  C   UNL     1      52.082 160.307  30.324  0.00  0.00    +0.022 C 
ATOM     15  C   UNL     1      51.187 159.229  29.831  0.00  0.00    -0.048 C 
ATOM     16  C   UNL     1      51.791 158.088  30.119  0.00  0.00    -0.029 C 
ATOM     17  C   UNL     1      49.861 159.200  29.147  0.00  0.00    +0.022 C 
ENDROOT
BRANCH   1  23
ATOM     18  N   UNL     1      52.107 153.072  26.690  0.00  0.00    -0.203 NA
ATOM     19  C   UNL     1      52.148 154.254  27.197  0.00  0.00    +0.181 C 
ATOM     20  C   UNL     1      53.006 155.051  26.337  0.00  0.00    +0.115 C 
ATOM     21  C   UNL     1      53.223 156.302  26.627  0.00  0.00    +0.002 C 
ATOM     22  C   UNL     1      52.641 156.983  27.796  0.00  0.00    +0.069 C 
ATOM     23  C   UNL     1      51.777 156.118  28.632  0.00  0.00    +0.047 C 
ATOM     24  N   UNL     1      51.565 154.878  28.344  0.00  0.00    -0.233 NA
ATOM     25  N   UNL     1      53.425 154.163  25.302  0.00  0.00    -0.221 NA
ATOM     26  C   UNL     1      52.897 153.008  25.511  0.00  0.00    +0.200 C 
ENDBRANCH   1  23
TORSDOF 1
ENDMDL
