REMARK  Name = =
REMARK  11 active torsions:
REMARK  status: ('A' for Active; 'I' for Inactive)
REMARK    1  A    between atoms: P_1  and  O_15
REMARK    2  A    between atoms: P_6  and  O_8
REMARK    3  A    between atoms: P_6  and  O_9
REMARK    4  A    between atoms: P_11  and  O_13
REMARK    5  A    between atoms: P_11  and  O_14
REMARK    6  A    between atoms: O_15  and  N_16
REMARK    7  A    between atoms: N_16  and  S_17
REMARK    8  A    between atoms: S_17  and  C_18
REMARK    9  A    between atoms: S_17  and  C_20
REMARK   10  A    between atoms: C_20  and  C_21
REMARK   11  A    between atoms: C_20  and  N_31
REMARK                            x       y       z     vdW  Elec       q    Type
REMARK                         _______ _______ _______ _____ _____    ______ ____
ROOT
ATOM      1  C   UNL     1      51.157 158.226  30.282  0.00  0.00    +0.167 C 
ENDROOT
BRANCH   1   2
ATOM      2  C   UNL     1      49.907 158.829  30.796  0.00  0.00    +0.089 C 
ATOM      3  N   UNL     1      48.718 158.210  30.556  0.00  0.00    -0.226 NA
ATOM      4  C   UNL     1      47.574 158.724  31.026  0.00  0.00    +0.199 C 
ATOM      5  N   UNL     1      47.526 159.857  31.745  0.00  0.00    -0.222 NA
ATOM      6  C   UNL     1      48.678 160.503  32.007  0.00  0.00    +0.103 C 
ATOM      7  C   UNL     1      48.606 161.664  32.742  0.00  0.00    +0.118 C 
ATOM      8  N   UNL     1      49.747 162.316  33.003  0.00  0.00    -0.241 NA
ATOM      9  C   UNL     1      50.929 161.860  32.565  0.00  0.00    +0.099 C 
ATOM     10  C   UNL     1      51.006 160.699  31.828  0.00  0.00    +0.023 C 
ATOM     11  C   UNL     1      49.874 159.988  31.531  0.00  0.00    +0.037 C 
ENDBRANCH   1   2
BRANCH   1  12
ATOM     12  S   UNL     1      50.806 156.790  29.418  0.00  0.00    -0.057 S 
ATOM     13  H   UNL     1      49.566 156.901  28.870  0.00  0.00    +0.116 HD
BRANCH  12  14
ATOM     14  N   UNL     1      51.692 156.548  28.141  0.00  0.00    -0.143 NA
ATOM     15  H   UNL     1      51.126 155.981  27.510  0.00  0.00    +0.167 HD
BRANCH  14  16
ATOM     16  O   UNL     1      52.879 155.968  28.184  0.00  0.00    -0.219 OA
BRANCH  16  17
ATOM     17  P   UNL     1      53.028 154.427  27.643  0.00  0.00    +0.306 P 
ATOM     18  O   UNL     1      51.664 153.975  27.247  0.00  0.00    -0.132 OA
ATOM     19  H   UNL     1      54.378 154.792  27.917  0.00  0.00    +0.148 HD
ATOM     20  O   UNL     1      52.368 154.919  26.215  0.00  0.00    -0.132 OA
ATOM     21  O   UNL     1      52.250 153.413  26.538  0.00  0.00    -0.052 OA
ENDBRANCH  16  17
ENDBRANCH  14  16
ENDBRANCH  12  14
BRANCH  12  22
ATOM     22  C   UNL     1      50.837 155.506  30.531  0.00  0.00    +0.128 C 
ATOM     23  N   UNL     1      50.848 154.637  31.304  0.00  0.00    -0.184 NA
ENDBRANCH  12  22
ENDBRANCH   1  12
BRANCH   1  24
ATOM     24  N   UNL     1      51.868 159.151  29.426  0.00  0.00    -0.201 NA
ATOM     25  C   UNL     1      51.030 159.915  28.547  0.00  0.00    +0.109 C 
ENDBRANCH   1  24
TORSDOF 7
REMARK  Name = =
REMARK  11 active torsions:
REMARK  status: ('A' for Active; 'I' for Inactive)
REMARK    1  A    between atoms: P_1  and  O_15
REMARK    2  A    between atoms: P_6  and  O_8
REMARK    3  A    between atoms: P_6  and  O_9
REMARK    4  A    between atoms: P_11  and  O_13
REMARK    5  A    between atoms: P_11  and  O_14
REMARK    6  A    between atoms: O_15  and  N_16
REMARK    7  A    between atoms: N_16  and  S_17
REMARK    8  A    between atoms: S_17  and  C_18
REMARK    9  A    between atoms: S_17  and  C_20
REMARK   10  A    between atoms: C_20  and  C_21
REMARK   11  A    between atoms: C_20  and  N_31
REMARK                            x       y       z     vdW  Elec       q    Type
REMARK                         _______ _______ _______ _____ _____    ______ ____
ROOT
ATOM      1  N   UNL     1      53.492 153.469  28.985  0.00  0.00    -0.273 NA
ATOM      2  H   UNL     1      54.512 153.469  28.985  0.00  0.00    +0.137 HD
ATOM      3  H   UNL     1      53.152 154.255  28.431  0.00  0.00    +0.137 HD
ENDROOT
TORSDOF 0
REMARK  Name = =
REMARK  11 active torsions:
REMARK  status: ('A' for Active; 'I' for Inactive)
REMARK    1  A    between atoms: P_1  and  O_15
REMARK    2  A    between atoms: P_6  and  O_8
REMARK    3  A    between atoms: P_6  and  O_9
REMARK    4  A    between atoms: P_11  and  O_13
REMARK    5  A    between atoms: P_11  and  O_14
REMARK    6  A    between atoms: O_15  and  N_16
REMARK    7  A    between atoms: N_16  and  S_17
REMARK    8  A    between atoms: S_17  and  C_18
REMARK    9  A    between atoms: S_17  and  C_20
REMARK   10  A    between atoms: C_20  and  C_21
REMARK   11  A    between atoms: C_20  and  N_31
REMARK                            x       y       z     vdW  Elec       q    Type
REMARK                         _______ _______ _______ _____ _____    ______ ____
ROOT
ATOM      1  P   UNL     1      53.556 155.855  25.450  0.00  0.00    +0.359 P 
ATOM      2  O   UNL     1      54.650 154.985  24.896  0.00  0.00    -0.145 OA
ENDROOT
BRANCH   1   3
ATOM      3  O   UNL     1      52.808 156.629  24.125  0.00  0.00    -0.326 OA
ATOM      4  H   UNL     1      52.094 157.201  24.446  0.00  0.00    +0.219 HD
ENDBRANCH   1   3
BRANCH   1   5
ATOM      5  O   UNL     1      54.208 157.013  26.498  0.00  0.00    -0.326 OA
ATOM      6  H   UNL     1      54.631 156.568  27.249  0.00  0.00    +0.219 HD
ENDBRANCH   1   5
TORSDOF 2
REMARK  Name = =
REMARK  11 active torsions:
REMARK  status: ('A' for Active; 'I' for Inactive)
REMARK    1  A    between atoms: P_1  and  O_15
REMARK    2  A    between atoms: P_6  and  O_8
REMARK    3  A    between atoms: P_6  and  O_9
REMARK    4  A    between atoms: P_11  and  O_13
REMARK    5  A    between atoms: P_11  and  O_14
REMARK    6  A    between atoms: O_15  and  N_16
REMARK    7  A    between atoms: N_16  and  S_17
REMARK    8  A    between atoms: S_17  and  C_18
REMARK    9  A    between atoms: S_17  and  C_20
REMARK   10  A    between atoms: C_20  and  C_21
REMARK   11  A    between atoms: C_20  and  N_31
REMARK                            x       y       z     vdW  Elec       q    Type
REMARK                         _______ _______ _______ _____ _____    ______ ____
ROOT
ATOM      1  P   UNL     1      53.411 152.335  26.004  0.00  0.00    +0.359 P 
ATOM      2  O   UNL     1      52.910 150.904  26.225  0.00  0.00    -0.145 OA
ENDROOT
BRANCH   1   3
ATOM      3  O   UNL     1      53.565 152.512  24.324  0.00  0.00    -0.326 OA
ATOM      4  H   UNL     1      52.692 152.428  23.909  0.00  0.00    +0.219 HD
ENDBRANCH   1   3
BRANCH   1   5
ATOM      5  O   UNL     1      54.875 152.466  26.805  0.00  0.00    -0.326 OA
ATOM      6  H   UNL     1      54.733 152.358  27.758  0.00  0.00    +0.219 HD
ENDBRANCH   1   5
TORSDOF 2
