MODEL 1
REMARK VINA RESULT:    -6.245      0.000      0.000
REMARK INTER + INTRA:          -9.010
REMARK INTER:                  -8.801
REMARK INTRA:                  -0.209
REMARK UNBOUND:                -0.209
REMARK  Name = =
REMARK  9 active torsions:
REMARK  status: ('A' for Active; 'I' for Inactive)
REMARK    1  A    between atoms: C_3  and  C_29
REMARK    2  A    between atoms: C_5  and  C_26
REMARK    3  A    between atoms: C_6  and  S_32
REMARK    4  A    between atoms: C_13  and  S_16
REMARK    5  A    between atoms: C_26  and  O_28
REMARK    6  A    between atoms: C_29  and  O_31
REMARK    7  A    between atoms: S_32  and  P_33
REMARK    8  A    between atoms: P_33  and  O_35
REMARK    9  A    between atoms: P_33  and  O_36
REMARK                            x       y       z     vdW  Elec       q    Type
REMARK                         _______ _______ _______ _____ _____    ______ ____
ROOT
ATOM      1  N   UNL     1      60.529 163.444  37.944  0.00  0.00    -0.226 N 
ATOM      2  C   UNL     1      59.994 163.596  36.605  0.00  0.00    +0.179 C 
ATOM      3  C   UNL     1      59.208 162.652  36.121  0.00  0.00    +0.088 C 
ATOM      4  C   UNL     1      58.818 161.434  36.867  0.00  0.00    +0.013 C 
ATOM      5  C   UNL     1      59.372 161.328  38.196  0.00  0.00    +0.096 C 
ATOM      6  C   UNL     1      60.167 162.255  38.694  0.00  0.00    +0.103 C 
ATOM      7  N   UNL     1      61.363 164.368  38.474  0.00  0.00    -0.194 NA
ATOM      8  C   UNL     1      60.736 165.330  39.329  0.00  0.00    +0.119 C 
ATOM      9  C   UNL     1      61.751 166.446  39.485  0.00  0.00    -0.007 C 
ATOM     10  C   UNL     1      62.615 166.327  38.456  0.00  0.00    -0.007 C 
ATOM     11  C   UNL     1      62.234 165.106  37.633  0.00  0.00    +0.113 C 
ATOM     12  C   UNL     1      63.624 167.255  38.361  0.00  0.00    +0.001 C 
ATOM     13  C   UNL     1      63.729 168.259  39.296  0.00  0.00    +0.007 C 
ATOM     14  C   UNL     1      62.842 168.373  40.347  0.00  0.00    +0.004 C 
ATOM     15  C   UNL     1      61.830 167.436  40.437  0.00  0.00    -0.003 C 
ATOM     16  N   UNL     1      60.291 164.751  35.795  0.00  0.00    -0.253 NA
ATOM     17  C   UNL     1      59.521 165.441  34.812  0.00  0.00    +0.074 C 
ATOM     18  C   UNL     1      60.501 166.313  34.051  0.00  0.00    +0.019 C 
ATOM     19  C   UNL     1      61.647 166.554  34.991  0.00  0.00    +0.019 C 
ATOM     20  C   UNL     1      61.594 165.373  35.892  0.00  0.00    +0.080 C 
ENDROOT
BRANCH  13  21
ATOM     21  S   UNL     1      65.069 169.477  39.153  0.00  0.00    -0.191 S 
ATOM     22  C   UNL     1      66.249 169.084  37.760  0.00  0.00    +0.061 C 
ATOM     23  C   UNL     1      65.499 169.866  36.700  0.00  0.00    +0.100 C 
ATOM     24  N   UNL     1      65.289 171.171  37.238  0.00  0.00    -0.207 NA
ATOM     25  C   UNL     1      64.584 171.084  38.475  0.00  0.00    +0.130 C 
ATOM     26  H   UNL     1      65.529 169.469  40.432  0.00  0.00    +0.089 HD
ENDBRANCH  13  21
BRANCH   5  27
ATOM     27  C   UNL     1      58.950 160.201  39.035  0.00  0.00    +0.340 C 
ATOM     28  O   UNL     1      57.952 160.304  39.823  0.00  0.00    -0.245 OA
BRANCH  27  29
ATOM     29  O   UNL     1      59.581 158.977  39.043  0.00  0.00    -0.477 OA
ATOM     30  H   UNL     1      60.055 158.690  38.287  0.00  0.00    +0.295 HD
ENDBRANCH  27  29
ENDBRANCH   5  27
BRANCH   3  31
ATOM     31  C   UNL     1      58.717 162.693  34.722  0.00  0.00    +0.337 C 
ATOM     32  O   UNL     1      59.061 161.762  33.922  0.00  0.00    -0.245 OA
BRANCH  31  33
ATOM     33  O   UNL     1      57.919 163.667  34.219  0.00  0.00    -0.477 OA
ATOM     34  H   UNL     1      58.263 164.527  34.077  0.00  0.00    +0.295 HD
ENDBRANCH  31  33
ENDBRANCH   3  31
BRANCH   6  35
ATOM     35  S   UNL     1      60.820 161.899  40.317  0.00  0.00    -0.021 S 
BRANCH  35  36
ATOM     36  P   UNL     1      62.641 160.820  40.036  0.00  0.00    +0.230 P 
ATOM     37  S   UNL     1      63.887 161.397  41.044  0.00  0.00    +0.003 S 
BRANCH  36  38
ATOM     38  O   UNL     1      63.129 161.003  38.398  0.00  0.00    -0.339 OA
ATOM     39  H   UNL     1      63.010 160.162  37.929  0.00  0.00    +0.218 HD
ENDBRANCH  36  38
BRANCH  36  40
ATOM     40  O   UNL     1      62.428 159.171  40.267  0.00  0.00    -0.339 OA
ATOM     41  H   UNL     1      62.261 158.996  41.206  0.00  0.00    +0.218 HD
ENDBRANCH  36  40
ENDBRANCH  35  36
ENDBRANCH   6  35
TORSDOF 9
ENDMDL
