REMARK  Name = =
REMARK  0 active torsions:
REMARK  status: ('A' for Active; 'I' for Inactive)
REMARK                            x       y       z     vdW  Elec       q    Type
REMARK                         _______ _______ _______ _____ _____    ______ ____
ROOT
ATOM      1  N   UNL     1      52.481 156.223  28.375  0.00  0.00    -0.032 NA
ATOM      2  N   UNL     1      51.688 155.541  29.070  0.00  0.00    -0.072 NA
ATOM      3  C   UNL     1      51.839 154.172  28.671  0.00  0.00    +0.233 C 
ATOM      4  N   UNL     1      52.845 154.229  27.646  0.00  0.00    -0.106 NA
ATOM      5  N   UNL     1      53.188 155.426  27.505  0.00  0.00    -0.023 NA
ENDROOT
TORSDOF 0
