REMARK  Name = =
REMARK  1 active torsions:
REMARK  status: ('A' for Active; 'I' for Inactive)
REMARK    1  A    between atoms: C_1  and  C_19
REMARK                            x       y       z     vdW  Elec       q    Type
REMARK                         _______ _______ _______ _____ _____    ______ ____
ROOT
ATOM      1  C   UNL     1      52.678 153.996  27.818  0.00  0.00    +0.074 C 
ATOM      2  C   UNL     1      53.270 154.493  26.563  0.00  0.00    -0.019 C 
ATOM      3  C   UNL     1      53.251 153.748  25.414  0.00  0.00    -0.023 C 
ATOM      4  C   UNL     1      53.808 154.234  24.263  0.00  0.00    +0.036 C 
ATOM      5  C   UNL     1      54.410 155.484  24.209  0.00  0.00    +0.176 C 
ATOM      6  C   UNL     1      54.436 156.246  25.362  0.00  0.00    +0.176 C 
ATOM      7  C   UNL     1      53.868 155.734  26.507  0.00  0.00    +0.036 C 
ATOM      8  O   UNL     1      55.089 157.450  25.055  0.00  0.00    -0.435 OA
ATOM      9  C   UNL     1      54.975 157.588  23.651  0.00  0.00    +0.429 C 
ATOM     10  O   UNL     1      55.042 156.239  23.232  0.00  0.00    -0.435 OA
ATOM     11  C   UNL     1      52.614 152.418  25.460  0.00  0.00    +0.029 C 
ATOM     12  C   UNL     1      52.831 151.710  26.770  0.00  0.00    +0.037 C 
ATOM     13  C   UNL     1      52.638 152.532  27.972  0.00  0.00    +0.040 C 
ATOM     14  C   UNL     1      51.415 151.980  28.620  0.00  0.00    +0.143 C 
ATOM     15  O   UNL     1      51.433 150.630  28.269  0.00  0.00    -0.354 OA
ATOM     16  C   UNL     1      51.696 150.683  26.889  0.00  0.00    +0.143 C 
ENDROOT
BRANCH   1  19
ATOM     17  N   UNL     1      51.320 156.590  29.177  0.00  0.00    -0.026 NA
ATOM     18  N   UNL     1      51.559 156.097  28.044  0.00  0.00    -0.129 NA
ATOM     19  C   UNL     1      51.326 154.667  28.057  0.00  0.00    +0.255 C 
ATOM     20  N   UNL     1      50.911 154.480  29.432  0.00  0.00    -0.129 NA
ATOM     21  N   UNL     1      50.918 155.585  30.038  0.00  0.00    -0.026 NA
ENDBRANCH   1  19
TORSDOF 1
