REMARK  Name = =
REMARK  5 active torsions:
REMARK  status: ('A' for Active; 'I' for Inactive)
REMARK    1  A    between atoms: C_1  and  C_18
REMARK    2  A    between atoms: C_7  and  C_23
REMARK    3  A    between atoms: C_19  and  C_20
REMARK    4  A    between atoms: C_20  and  O_22
REMARK    5  A    between atoms: C_23  and  O_25
REMARK                            x       y       z     vdW  Elec       q    Type
REMARK                         _______ _______ _______ _____ _____    ______ ____
ROOT
ATOM      1  C   UNL     1      59.611 159.059  24.901  0.00  0.00    +0.019 C 
ATOM      2  C   UNL     1      59.335 160.525  24.785  0.00  0.00    +0.008 C 
ATOM      3  C   UNL     1      60.347 161.331  25.496  0.00  0.00    +0.005 C 
ATOM      4  C   UNL     1      60.311 162.780  25.259  0.00  0.00    +0.022 C 
ATOM      5  C   UNL     1      61.073 163.316  24.108  0.00  0.00    +0.009 C 
ATOM      6  C   UNL     1      60.888 164.764  23.889  0.00  0.00    +0.033 C 
ATOM      7  C   UNL     1      59.693 165.399  24.438  0.00  0.00    +0.053 C 
ATOM      8  C   UNL     1      58.745 164.683  25.000  0.00  0.00    -0.002 C 
ATOM      9  C   UNL     1      58.894 163.233  25.074  0.00  0.00    -0.027 C 
ATOM     10  C   UNL     1      57.855 162.459  24.972  0.00  0.00    -0.030 C 
ATOM     11  C   UNL     1      57.932 160.938  25.027  0.00  0.00    +0.026 C 
ATOM     12  C   UNL     1      60.428 161.015  26.980  0.00  0.00    +0.000 C 
ATOM     13  C   UNL     1      60.562 159.523  27.201  0.00  0.00    +0.000 C 
ATOM     14  C   UNL     1      60.675 158.784  25.894  0.00  0.00    +0.004 C 
ATOM     15  C   UNL     1      61.992 158.967  25.233  0.00  0.00    +0.000 C 
ATOM     16  C   UNL     1      61.734 158.603  23.788  0.00  0.00    +0.000 C 
ATOM     17  C   UNL     1      60.246 158.579  23.593  0.00  0.00    +0.004 C 
ENDROOT
BRANCH   1  18
ATOM     18  C   UNL     1      58.377 158.284  25.082  0.00  0.00    -0.020 C 
ATOM     19  C   UNL     1      58.230 157.021  25.361  0.00  0.00    +0.077 C 
BRANCH  19  20
ATOM     20  C   UNL     1      59.222 156.004  25.573  0.00  0.00    +0.338 C 
ATOM     21  O   UNL     1      60.459 156.184  25.519  0.00  0.00    -0.245 OA
BRANCH  20  22
ATOM     22  O   UNL     1      58.843 154.671  25.872  0.00  0.00    -0.477 OA
ATOM     23  H   UNL     1      57.936 154.444  25.933  0.00  0.00    +0.295 HD
ENDBRANCH  20  22
ENDBRANCH  19  20
ENDBRANCH   1  18
BRANCH   7  24
ATOM     24  C   UNL     1      59.509 166.858  24.384  0.00  0.00    +0.334 C 
ATOM     25  O   UNL     1      60.421 167.536  23.845  0.00  0.00    -0.245 OA
BRANCH  24  26
ATOM     26  O   UNL     1      58.389 167.447  24.899  0.00  0.00    -0.477 OA
ATOM     27  H   UNL     1      57.723 166.921  25.296  0.00  0.00    +0.295 HD
ENDBRANCH  24  26
ENDBRANCH   7  24
TORSDOF 5
