REMARK  Name = =
REMARK  2 active torsions:
REMARK  status: ('A' for Active; 'I' for Inactive)
REMARK    1  A    between atoms: C_1  and  N_17
REMARK    2  A    between atoms: C_1  and  C_25
REMARK                            x       y       z     vdW  Elec       q    Type
REMARK                         _______ _______ _______ _____ _____    ______ ____
ROOT
ATOM      1  C   UNL     1      53.069 155.519  26.011  0.00  0.00    +0.114 C 
ATOM      2  C   UNL     1      52.596 154.334  26.719  0.00  0.00    -0.006 C 
ATOM      3  C   UNL     1      51.940 154.420  27.922  0.00  0.00    -0.022 C 
ATOM      4  C   UNL     1      51.507 153.253  28.563  0.00  0.00    +0.036 C 
ATOM      5  C   UNL     1      51.714 152.003  28.029  0.00  0.00    +0.176 C 
ATOM      6  C   UNL     1      52.365 151.897  26.828  0.00  0.00    +0.176 C 
ATOM      7  C   UNL     1      52.779 153.039  26.216  0.00  0.00    +0.037 C 
ATOM      8  O   UNL     1      52.435 150.541  26.527  0.00  0.00    -0.435 OA
ATOM      9  C   UNL     1      51.546 149.838  27.373  0.00  0.00    +0.429 C 
ATOM     10  O   UNL     1      51.382 150.712  28.469  0.00  0.00    -0.435 OA
ATOM     11  C   UNL     1      51.605 155.689  28.631  0.00  0.00    +0.029 C 
ATOM     12  C   UNL     1      51.717 156.872  27.673  0.00  0.00    +0.038 C 
ATOM     13  C   UNL     1      53.036 156.724  26.893  0.00  0.00    +0.054 C 
ATOM     14  C   UNL     1      53.984 156.750  28.038  0.00  0.00    +0.144 C 
ATOM     15  O   UNL     1      53.445 157.615  28.994  0.00  0.00    -0.354 OA
ATOM     16  C   UNL     1      52.199 158.023  28.585  0.00  0.00    +0.143 C 
ENDROOT
BRANCH   1  17
ATOM     17  N   UNL     1      52.198 155.862  24.897  0.00  0.00    -0.255 NA
ATOM     18  C   UNL     1      52.704 156.887  24.050  0.00  0.00    +0.146 C 
ATOM     19  N   UNL     1      51.539 157.671  23.610  0.00  0.00    -0.284 NA
ATOM     20  C   UNL     1      50.398 156.858  23.339  0.00  0.00    +0.071 C 
ATOM     21  C   UNL     1      50.712 155.404  23.115  0.00  0.00    +0.034 C 
ATOM     22  C   UNL     1      51.521 154.812  24.262  0.00  0.00    +0.075 C 
ATOM     23  H   UNL     1      51.788 158.177  22.760  0.00  0.00    +0.125 HD
ENDBRANCH   1  17
BRANCH   1  26
ATOM     24  N   UNL     1      55.649 153.780  24.689  0.00  0.00    -0.026 NA
ATOM     25  N   UNL     1      55.136 154.170  25.772  0.00  0.00    -0.127 NA
ATOM     26  C   UNL     1      54.516 155.442  25.523  0.00  0.00    +0.268 C 
ATOM     27  N   UNL     1      54.745 155.709  24.163  0.00  0.00    -0.127 NA
ATOM     28  N   UNL     1      55.418 154.718  23.681  0.00  0.00    -0.026 NA
ENDBRANCH   1  26
TORSDOF 2
