REMARK  Name = =
REMARK  8 active torsions:
REMARK  status: ('A' for Active; 'I' for Inactive)
REMARK    1  A    between atoms: C_7  and  C_30
REMARK    2  A    between atoms: C_19  and  C_27
REMARK    3  A    between atoms: C_20  and  S_25
REMARK    4  A    between atoms: C_21  and  C_22
REMARK    5  A    between atoms: C_22  and  O_24
REMARK    6  A    between atoms: S_25  and  S_26
REMARK    7  A    between atoms: C_27  and  O_29
REMARK    8  A    between atoms: C_30  and  O_32
REMARK                            x       y       z     vdW  Elec       q    Type
REMARK                         _______ _______ _______ _____ _____    ______ ____
ROOT
ATOM      1  C   UNL     1      52.757 156.190  26.890  0.00  0.00    +0.020 C 
ATOM      2  C   UNL     1      51.469 156.588  27.616  0.00  0.00    +0.012 C 
ATOM      3  C   UNL     1      51.421 158.021  27.987  0.00  0.00    +0.005 C 
ATOM      4  C   UNL     1      50.139 158.239  28.772  0.00  0.00    +0.022 C 
ATOM      5  C   UNL     1      49.809 159.701  28.972  0.00  0.00    +0.009 C 
ATOM      6  C   UNL     1      48.709 159.777  30.006  0.00  0.00    +0.033 C 
ATOM      7  C   UNL     1      49.252 159.306  31.294  0.00  0.00    +0.053 C 
ATOM      8  C   UNL     1      50.045 158.250  31.298  0.00  0.00    -0.002 C 
ATOM      9  C   UNL     1      50.380 157.562  30.069  0.00  0.00    -0.027 C 
ATOM     10  C   UNL     1      50.896 156.366  30.057  0.00  0.00    -0.026 C 
ATOM     11  C   UNL     1      51.233 155.702  28.777  0.00  0.00    +0.051 C 
ATOM     12  C   UNL     1      52.628 158.488  28.764  0.00  0.00    +0.000 C 
ATOM     13  C   UNL     1      53.739 157.500  28.815  0.00  0.00    +0.000 C 
ATOM     14  C   UNL     1      53.942 156.768  27.500  0.00  0.00    +0.004 C 
ATOM     15  C   UNL     1      54.688 157.643  26.521  0.00  0.00    +0.000 C 
ATOM     16  C   UNL     1      54.161 157.221  25.194  0.00  0.00    +0.000 C 
ATOM     17  C   UNL     1      52.741 156.791  25.472  0.00  0.00    +0.004 C 
ATOM     18  C   UNL     1      52.769 154.732  26.726  0.00  0.00    -0.010 C 
ATOM     19  C   UNL     1      53.286 154.141  25.655  0.00  0.00    +0.078 C 
ATOM     20  C   UNL     1      52.270 153.758  27.739  0.00  0.00    +0.034 C 
ATOM     21  C   UNL     1      51.471 153.994  28.726  0.00  0.00    +0.063 C 
ENDROOT
BRANCH  21  22
ATOM     22  C   UNL     1      51.105 153.091  29.816  0.00  0.00    +0.335 C 
ATOM     23  O   UNL     1      51.037 151.860  29.708  0.00  0.00    -0.245 OA
BRANCH  22  24
ATOM     24  O   UNL     1      50.799 153.594  31.098  0.00  0.00    -0.477 OA
ATOM     25  H   UNL     1      50.828 154.517  31.259  0.00  0.00    +0.295 HD
ENDBRANCH  22  24
ENDBRANCH  21  22
BRANCH  19  26
ATOM     26  C   UNL     1      53.856 154.728  24.502  0.00  0.00    +0.338 C 
ATOM     27  O   UNL     1      54.778 155.577  24.394  0.00  0.00    -0.245 OA
BRANCH  26  28
ATOM     28  O   UNL     1      53.344 154.336  23.220  0.00  0.00    -0.477 OA
ATOM     29  H   UNL     1      52.652 153.707  23.164  0.00  0.00    +0.295 HD
ENDBRANCH  26  28
ENDBRANCH  19  26
BRANCH   7  30
ATOM     30  C   UNL     1      48.934 159.978  32.551  0.00  0.00    +0.334 C 
ATOM     31  O   UNL     1      49.596 159.746  33.570  0.00  0.00    -0.245 OA
BRANCH  30  32
ATOM     32  O   UNL     1      47.886 160.883  32.612  0.00  0.00    -0.477 OA
ATOM     33  H   UNL     1      47.379 161.065  31.845  0.00  0.00    +0.295 HD
ENDBRANCH  30  32
ENDBRANCH   7  30
BRANCH  20  34
ATOM     34  S   UNL     1      53.048 152.120  27.631  0.00  0.00    -0.059 S 
BRANCH  34  35
ATOM     35  S   UNL     1      53.403 151.642  25.600  0.00  0.00    -0.105 S 
ATOM     36  H   UNL     1      53.985 150.416  25.518  0.00  0.00    +0.114 HD
ENDBRANCH  34  35
ENDBRANCH  20  34
TORSDOF 8
