REMARK  Name = =
REMARK  3 active torsions:
REMARK  status: ('A' for Active; 'I' for Inactive)
REMARK    1  A    between atoms: C_1  and  N_17
REMARK    2  A    between atoms: C_1  and  C_25
REMARK    3  A    between atoms: C_9  and  N_28
REMARK                            x       y       z     vdW  Elec       q    Type
REMARK                         _______ _______ _______ _____ _____    ______ ____
ROOT
ATOM      1  C   UNL     1      52.751 155.987  27.386  0.00  0.00    +0.114 C 
ATOM      2  C   UNL     1      52.822 154.552  27.133  0.00  0.00    -0.006 C 
ATOM      3  C   UNL     1      52.027 153.674  27.826  0.00  0.00    -0.022 C 
ATOM      4  C   UNL     1      52.094 152.327  27.588  0.00  0.00    +0.036 C 
ATOM      5  C   UNL     1      52.952 151.772  26.651  0.00  0.00    +0.177 C 
ATOM      6  C   UNL     1      53.741 152.668  25.967  0.00  0.00    +0.177 C 
ATOM      7  C   UNL     1      53.701 154.026  26.179  0.00  0.00    +0.037 C 
ATOM      8  O   UNL     1      54.499 151.856  25.099  0.00  0.00    -0.427 OA
ATOM      9  C   UNL     1      54.525 150.538  25.653  0.00  0.00    +0.419 C 
ATOM     10  O   UNL     1      53.216 150.476  26.221  0.00  0.00    -0.427 OA
ATOM     11  C   UNL     1      51.032 154.056  28.893  0.00  0.00    +0.029 C 
ATOM     12  C   UNL     1      51.227 155.459  29.354  0.00  0.00    +0.038 C 
ATOM     13  C   UNL     1      51.567 156.387  28.239  0.00  0.00    +0.054 C 
ATOM     14  C   UNL     1      50.263 156.636  27.642  0.00  0.00    +0.144 C 
ATOM     15  O   UNL     1      49.525 156.995  28.824  0.00  0.00    -0.354 OA
ATOM     16  C   UNL     1      49.838 155.998  29.739  0.00  0.00    +0.143 C 
ENDROOT
BRANCH   1  17
ATOM     17  N   UNL     1      52.734 156.889  26.279  0.00  0.00    -0.255 NA
ATOM     18  C   UNL     1      53.992 157.487  25.899  0.00  0.00    +0.146 C 
ATOM     19  N   UNL     1      54.350 157.335  24.513  0.00  0.00    -0.284 NA
ATOM     20  C   UNL     1      53.356 157.955  23.615  0.00  0.00    +0.071 C 
ATOM     21  C   UNL     1      52.030 157.310  24.023  0.00  0.00    +0.034 C 
ATOM     22  C   UNL     1      52.327 156.211  25.037  0.00  0.00    +0.075 C 
ATOM     23  H   UNL     1      54.414 156.340  24.297  0.00  0.00    +0.125 HD
ENDBRANCH   1  17
BRANCH   1  26
ATOM     24  N   UNL     1      53.649 158.039  29.757  0.00  0.00    -0.026 NA
ATOM     25  N   UNL     1      53.281 156.840  29.565  0.00  0.00    -0.127 NA
ATOM     26  C   UNL     1      53.901 156.357  28.357  0.00  0.00    +0.268 C 
ATOM     27  N   UNL     1      54.652 157.482  27.935  0.00  0.00    -0.127 NA
ATOM     28  N   UNL     1      54.505 158.441  28.739  0.00  0.00    -0.026 NA
ENDBRANCH   1  26
BRANCH   9  29
ATOM     29  N   UNL     1      54.711 149.522  24.659  0.00  0.00    -0.202 NA
ATOM     30  C   UNL     1      53.857 149.672  23.510  0.00  0.00    +0.080 C 
ATOM     31  C   UNL     1      53.357 148.239  23.671  0.00  0.00    +0.035 C 
ATOM     32  C   UNL     1      54.040 148.297  25.026  0.00  0.00    +0.080 C 
ENDBRANCH   9  29
TORSDOF 3
