REMARK  Name = =
REMARK  3 active torsions:
REMARK  status: ('A' for Active; 'I' for Inactive)
REMARK    1  A    between atoms: C_1  and  N_17
REMARK    2  A    between atoms: C_1  and  C_37
REMARK    3  A    between atoms: C_9  and  N_40
REMARK                            x       y       z     vdW  Elec       q    Type
REMARK                         _______ _______ _______ _____ _____    ______ ____
ROOT
ATOM      1  C   UNL     1      52.118 155.574  28.103  0.00  0.00    +0.114 C 
ATOM      2  C   UNL     1      53.155 156.668  27.911  0.00  0.00    -0.006 C 
ATOM      3  C   UNL     1      53.758 156.963  26.722  0.00  0.00    -0.022 C 
ATOM      4  C   UNL     1      54.701 158.009  26.716  0.00  0.00    +0.036 C 
ATOM      5  C   UNL     1      55.033 158.733  27.829  0.00  0.00    +0.177 C 
ATOM      6  C   UNL     1      54.412 158.420  29.028  0.00  0.00    +0.177 C 
ATOM      7  C   UNL     1      53.487 157.403  29.061  0.00  0.00    +0.037 C 
ATOM      8  O   UNL     1      54.917 159.288  29.987  0.00  0.00    -0.427 OA
ATOM      9  C   UNL     1      56.143 159.853  29.501  0.00  0.00    +0.419 C 
ATOM     10  O   UNL     1      55.901 159.787  28.110  0.00  0.00    -0.427 OA
ATOM     11  C   UNL     1      53.477 156.254  25.435  0.00  0.00    +0.029 C 
ATOM     12  C   UNL     1      52.484 155.244  25.621  0.00  0.00    +0.038 C 
ATOM     13  C   UNL     1      51.540 155.273  26.758  0.00  0.00    +0.054 C 
ATOM     14  C   UNL     1      50.952 153.919  26.564  0.00  0.00    +0.144 C 
ATOM     15  O   UNL     1      52.074 153.114  26.449  0.00  0.00    -0.354 OA
ATOM     16  C   UNL     1      52.863 153.813  25.532  0.00  0.00    +0.143 C 
ENDROOT
BRANCH   1  17
ATOM     17  N   UNL     1      51.105 156.116  28.936  0.00  0.00    -0.251 NA
ATOM     18  C   UNL     1      51.063 157.513  29.197  0.00  0.00    +0.170 C 
ATOM     19  N   UNL     1      49.730 157.811  29.679  0.00  0.00    -0.279 N 
ATOM     20  C   UNL     1      49.330 159.145  29.859  0.00  0.00    +0.129 C 
ATOM     21  N   UNL     1      49.273 159.924  28.824  0.00  0.00    -0.246 NA
ATOM     22  C   UNL     1      48.910 161.307  28.669  0.00  0.00    +0.212 C 
ATOM     23  C   UNL     1      47.731 161.732  29.427  0.00  0.00    +0.251 C 
ATOM     24  O   UNL     1      46.878 162.408  28.827  0.00  0.00    -0.273 OA
ATOM     25  N   UNL     1      47.422 161.464  30.810  0.00  0.00    -0.282 N 
ATOM     26  C   UNL     1      48.141 160.570  31.645  0.00  0.00    +0.053 C 
ATOM     27  C   UNL     1      48.996 159.549  31.207  0.00  0.00    +0.045 C 
ATOM     28  C   UNL     1      49.634 158.777  32.139  0.00  0.00    +0.004 C 
ATOM     29  C   UNL     1      49.433 159.003  33.489  0.00  0.00    +0.000 C 
ATOM     30  C   UNL     1      48.585 160.012  33.866  0.00  0.00    +0.001 C 
ATOM     31  C   UNL     1      47.920 160.820  32.979  0.00  0.00    +0.015 C 
ATOM     32  C   UNL     1      48.822 156.743  29.921  0.00  0.00    +0.095 C 
ATOM     33  C   UNL     1      49.470 155.605  30.621  0.00  0.00    +0.039 C 
ATOM     34  C   UNL     1      50.900 155.454  30.187  0.00  0.00    +0.076 C 
ATOM     35  H   UNL     1      46.654 161.937  31.205  0.00  0.00    +0.155 HD
ENDBRANCH   1  17
BRANCH   1  38
ATOM     36  N   UNL     1      53.615 152.527  28.123  0.00  0.00    -0.026 NA
ATOM     37  N   UNL     1      53.854 153.761  28.087  0.00  0.00    -0.127 NA
ATOM     38  C   UNL     1      52.841 154.459  28.748  0.00  0.00    +0.268 C 
ATOM     39  N   UNL     1      51.951 153.413  29.179  0.00  0.00    -0.127 NA
ATOM     40  N   UNL     1      52.426 152.321  28.807  0.00  0.00    -0.026 NA
ENDBRANCH   1  38
BRANCH   9  41
ATOM     41  N   UNL     1      56.329 161.175  30.005  0.00  0.00    -0.202 NA
ATOM     42  C   UNL     1      55.574 162.148  29.258  0.00  0.00    +0.080 C 
ATOM     43  C   UNL     1      55.095 162.706  30.582  0.00  0.00    +0.035 C 
ATOM     44  C   UNL     1      55.564 161.413  31.212  0.00  0.00    +0.080 C 
ENDBRANCH   9  41
TORSDOF 3
