REMARK  Name = =
REMARK  0 active torsions:
REMARK  status: ('A' for Active; 'I' for Inactive)
REMARK                            x       y       z     vdW  Elec       q    Type
REMARK                         _______ _______ _______ _____ _____    ______ ____
ROOT
ATOM      1  C   UNL     1      -4.072  -4.559  31.212  0.00  0.00    +0.209 C 
ATOM      2  O   UNL     1      -3.024  -5.482  30.940  0.00  0.00    -0.448 OA
ATOM      3  C   UNL     1      -2.241  -4.976  29.891  0.00  0.00    +0.317 C 
ATOM      4  O   UNL     1      -1.665  -5.646  29.026  0.00  0.00    -0.250 OA
ATOM      5  C   UNL     1      -2.302  -3.497  30.103  0.00  0.00    +0.113 C 
ATOM      6  C   UNL     1      -3.797  -3.338  30.372  0.00  0.00    +0.059 C 
ENDROOT
TORSDOF 0
