REMARK  Name = =
REMARK  2 active torsions:
REMARK  status: ('A' for Active; 'I' for Inactive)
REMARK    1  A    between atoms: N_1  and  C_12
REMARK    2  A    between atoms: C_3  and  O_14
REMARK                            x       y       z     vdW  Elec       q    Type
REMARK                         _______ _______ _______ _____ _____    ______ ____
ROOT
ATOM      1  N   UNL     1      -1.964  -3.227  29.663  0.00  0.00    -0.274 N 
ATOM      2  C   UNL     1      -2.488  -3.228  28.433  0.00  0.00    +0.106 C 
ATOM      3  C   UNL     1      -1.851  -2.613  27.380  0.00  0.00    +0.188 C 
ATOM      4  C   UNL     1      -0.629  -1.975  27.598  0.00  0.00    +0.232 C 
ATOM      5  O   UNL     1      -0.041  -1.412  26.642  0.00  0.00    -0.283 OA
ATOM      6  C   UNL     1      -0.113  -1.990  28.878  0.00  0.00    +0.061 C 
ATOM      7  C   UNL     1      -0.789  -2.622  29.911  0.00  0.00    +0.069 C 
ENDROOT
BRANCH   1  12
ATOM      8  C   UNL     1      -4.657  -4.702  31.600  0.00  0.00    +0.211 C 
ATOM      9  O   UNL     1      -3.857  -5.784  31.174  0.00  0.00    -0.447 OA
ATOM     10  C   UNL     1      -2.643  -5.332  30.676  0.00  0.00    +0.336 C 
ATOM     11  O   UNL     1      -1.748  -6.121  30.274  0.00  0.00    -0.248 OA
ATOM     12  C   UNL     1      -2.651  -3.871  30.727  0.00  0.00    +0.180 C 
ATOM     13  C   UNL     1      -4.145  -3.561  30.741  0.00  0.00    +0.079 C 
ENDBRANCH   1  12
BRANCH   3  14
ATOM     14  O   UNL     1      -2.354  -2.587  26.089  0.00  0.00    -0.502 OA
ATOM     15  H   UNL     1      -1.877  -2.153  25.409  0.00  0.00    +0.292 HD
ENDBRANCH   3  14
TORSDOF 2
