REMARK  Name = =
REMARK  6 active torsions:
REMARK  status: ('A' for Active; 'I' for Inactive)
REMARK    1  A    between atoms: C_5  and  N_7
REMARK    2  A    between atoms: C_5  and  O_15
REMARK    3  A    between atoms: C_9  and  O_14
REMARK    4  A    between atoms: O_15  and  C_16
REMARK    5  A    between atoms: C_16  and  C_18
REMARK    6  A    between atoms: C_21  and  O_24
REMARK                            x       y       z     vdW  Elec       q    Type
REMARK                         _______ _______ _______ _____ _____    ______ ____
ROOT
ATOM      1  C   UNL     1      -1.854  -1.504  27.419  0.00  0.00    +0.215 C 
ATOM      2  O   UNL     1      -0.586  -1.309  28.018  0.00  0.00    -0.445 OA
ATOM      3  C   UNL     1      -0.405  -2.393  28.861  0.00  0.00    +0.373 C 
ATOM      4  O   UNL     1       0.265  -2.312  29.929  0.00  0.00    -0.244 OA
ATOM      5  C   UNL     1      -1.111  -3.578  28.289  0.00  0.00    +0.294 C 
ATOM      6  C   UNL     1      -1.814  -2.992  27.134  0.00  0.00    +0.119 C 
ENDROOT
BRANCH   5   7
ATOM      7  N   UNL     1      -1.952  -4.100  29.331  0.00  0.00    -0.245 N 
ATOM      8  C   UNL     1      -3.184  -3.671  29.633  0.00  0.00    +0.109 C 
ATOM      9  C   UNL     1      -3.948  -4.227  30.662  0.00  0.00    +0.188 C 
ATOM     10  C   UNL     1      -3.433  -5.261  31.409  0.00  0.00    +0.232 C 
ATOM     11  O   UNL     1      -4.121  -5.769  32.343  0.00  0.00    -0.283 OA
ATOM     12  C   UNL     1      -2.179  -5.705  31.108  0.00  0.00    +0.061 C 
ATOM     13  C   UNL     1      -1.481  -5.129  30.098  0.00  0.00    +0.072 C 
BRANCH   9  14
ATOM     14  O   UNL     1      -5.194  -3.714  30.889  0.00  0.00    -0.502 OA
ATOM     15  H   UNL     1      -5.514  -3.009  30.361  0.00  0.00    +0.292 HD
ENDBRANCH   9  14
ENDBRANCH   5   7
BRANCH   5  16
ATOM     16  O   UNL     1      -0.126  -4.525  28.043  0.00  0.00    -0.424 OA
BRANCH  16  17
ATOM     17  C   UNL     1      -0.320  -5.865  27.800  0.00  0.00    +0.343 C 
ATOM     18  O   UNL     1      -1.497  -6.167  27.592  0.00  0.00    -0.245 OA
BRANCH  17  19
ATOM     19  C   UNL     1       0.803  -6.793  27.805  0.00  0.00    +0.076 C 
ATOM     20  C   UNL     1       2.097  -6.358  27.971  0.00  0.00    +0.010 C 
ATOM     21  C   UNL     1       3.183  -7.216  27.979  0.00  0.00    +0.037 C 
ATOM     22  C   UNL     1       2.965  -8.559  27.814  0.00  0.00    +0.134 C 
ATOM     23  C   UNL     1       1.683  -9.037  27.645  0.00  0.00    +0.037 C 
ATOM     24  C   UNL     1       0.609  -8.148  27.641  0.00  0.00    +0.010 C 
BRANCH  22  25
ATOM     25  O   UNL     1       4.071  -9.417  27.825  0.00  0.00    -0.506 OA
ATOM     26  H   UNL     1       4.933  -9.069  27.941  0.00  0.00    +0.292 HD
ENDBRANCH  22  25
ENDBRANCH  17  19
ENDBRANCH  16  17
ENDBRANCH   5  16
TORSDOF 6
