REMARK  Name = =
REMARK  8 active torsions:
REMARK  status: ('A' for Active; 'I' for Inactive)
REMARK    1  A    between atoms: C_5  and  N_7
REMARK    2  A    between atoms: C_5  and  O_21
REMARK    3  A    between atoms: C_8  and  N_14
REMARK    4  A    between atoms: C_9  and  O_20
REMARK    5  A    between atoms: N_14  and  N_18
REMARK    6  A    between atoms: O_21  and  C_22
REMARK    7  A    between atoms: C_22  and  C_24
REMARK    8  A    between atoms: C_27  and  O_30
REMARK                            x       y       z     vdW  Elec       q    Type
REMARK                         _______ _______ _______ _____ _____    ______ ____
ROOT
ATOM      1  C   UNL     1       2.732  -2.800  28.346  0.00  0.00    +0.215 C 
ATOM      2  O   UNL     1       1.658  -2.797  27.459  0.00  0.00    -0.445 OA
ATOM      3  C   UNL     1       0.979  -4.042  27.491  0.00  0.00    +0.373 C 
ATOM      4  O   UNL     1      -0.113  -4.155  26.899  0.00  0.00    -0.244 OA
ATOM      5  C   UNL     1       1.712  -5.003  28.247  0.00  0.00    +0.295 C 
ATOM      6  C   UNL     1       2.713  -4.134  29.054  0.00  0.00    +0.119 C 
ENDROOT
BRANCH   5   7
ATOM      7  N   UNL     1       2.489  -6.021  27.635  0.00  0.00    -0.233 N 
ATOM      8  C   UNL     1       3.090  -5.975  26.477  0.00  0.00    +0.169 C 
ATOM      9  C   UNL     1       3.796  -7.123  26.060  0.00  0.00    +0.203 C 
ATOM     10  C   UNL     1       3.876  -8.264  26.808  0.00  0.00    +0.233 C 
ATOM     11  O   UNL     1       4.500  -9.289  26.448  0.00  0.00    -0.283 OA
ATOM     12  C   UNL     1       3.236  -8.288  28.022  0.00  0.00    +0.062 C 
ATOM     13  C   UNL     1       2.558  -7.174  28.414  0.00  0.00    +0.073 C 
BRANCH   8  14
ATOM     14  N   UNL     1       3.079  -4.872  25.626  0.00  0.00    -0.125 N 
ATOM     15  C   UNL     1       4.080  -3.873  25.637  0.00  0.00    +0.322 C 
ATOM     16  O   UNL     1       5.080  -3.936  26.421  0.00  0.00    -0.251 OA
ATOM     17  N   UNL     1       4.002  -2.746  24.761  0.00  0.00    -0.312 N 
ATOM     18  H   UNL     1       3.245  -2.658  24.138  0.00  0.00    +0.147 HD
ATOM     19  H   UNL     1       4.706  -2.058  24.781  0.00  0.00    +0.147 HD
BRANCH  14  20
ATOM     20  N   UNL     1       2.057  -4.762  24.684  0.00  0.00    +0.060 NA
ATOM     21  O   UNL     1       1.956  -5.501  23.685  0.00  0.00    -0.078 OA
ENDBRANCH  14  20
ENDBRANCH   8  14
BRANCH   9  22
ATOM     22  O   UNL     1       4.441  -7.070  24.814  0.00  0.00    -0.501 OA
ATOM     23  H   UNL     1       4.392  -6.292  24.294  0.00  0.00    +0.292 HD
ENDBRANCH   9  22
ENDBRANCH   5   7
BRANCH   5  24
ATOM     24  O   UNL     1       0.891  -5.596  29.297  0.00  0.00    -0.424 OA
BRANCH  24  25
ATOM     25  C   UNL     1      -0.081  -6.515  29.037  0.00  0.00    +0.343 C 
ATOM     26  O   UNL     1      -0.399  -6.791  27.865  0.00  0.00    -0.245 OA
BRANCH  25  27
ATOM     27  C   UNL     1      -0.766  -7.189  30.128  0.00  0.00    +0.076 C 
ATOM     28  C   UNL     1      -0.409  -6.931  31.432  0.00  0.00    +0.010 C 
ATOM     29  C   UNL     1      -1.028  -7.565  32.506  0.00  0.00    +0.037 C 
ATOM     30  C   UNL     1      -2.042  -8.491  32.272  0.00  0.00    +0.134 C 
ATOM     31  C   UNL     1      -2.370  -8.720  30.961  0.00  0.00    +0.037 C 
ATOM     32  C   UNL     1      -1.784  -8.117  29.875  0.00  0.00    +0.010 C 
BRANCH  30  33
ATOM     33  O   UNL     1      -2.664  -9.128  33.330  0.00  0.00    -0.506 OA
ATOM     34  H   UNL     1      -2.404  -8.937  34.210  0.00  0.00    +0.292 HD
ENDBRANCH  30  33
ENDBRANCH  25  27
ENDBRANCH  24  25
ENDBRANCH   5  24
TORSDOF 8
