REMARK  Name = =
REMARK  10 active torsions:
REMARK  status: ('A' for Active; 'I' for Inactive)
REMARK    1  A    between atoms: C_1  and  S_31
REMARK    2  A    between atoms: C_5  and  N_7
REMARK    3  A    between atoms: C_5  and  O_21
REMARK    4  A    between atoms: C_8  and  N_14
REMARK    5  A    between atoms: C_9  and  O_20
REMARK    6  A    between atoms: N_14  and  N_18
REMARK    7  A    between atoms: O_21  and  C_22
REMARK    8  A    between atoms: C_22  and  C_24
REMARK    9  A    between atoms: C_27  and  O_30
REMARK   10  A    between atoms: S_31  and  C_32
REMARK                            x       y       z     vdW  Elec       q    Type
REMARK                         _______ _______ _______ _____ _____    ______ ____
ROOT
ATOM      1  C   UNL     1       2.217  -3.430  28.224  0.00  0.00    +0.230 C 
ATOM      2  O   UNL     1       0.786  -3.281  28.262  0.00  0.00    -0.437 OA
ATOM      3  C   UNL     1       0.285  -3.931  29.417  0.00  0.00    +0.374 C 
ATOM      4  O   UNL     1      -0.733  -3.491  29.994  0.00  0.00    -0.244 OA
ATOM      5  C   UNL     1       1.203  -5.043  29.614  0.00  0.00    +0.296 C 
ATOM      6  C   UNL     1       2.537  -4.285  29.449  0.00  0.00    +0.128 C 
ENDROOT
BRANCH   5   7
ATOM      7  N   UNL     1       1.202  -5.712  30.856  0.00  0.00    -0.233 N 
ATOM      8  C   UNL     1       0.156  -6.502  31.236  0.00  0.00    +0.169 C 
ATOM      9  C   UNL     1       0.171  -7.165  32.456  0.00  0.00    +0.203 C 
ATOM     10  C   UNL     1       1.247  -7.033  33.301  0.00  0.00    +0.233 C 
ATOM     11  O   UNL     1       1.229  -7.643  34.392  0.00  0.00    -0.283 OA
ATOM     12  C   UNL     1       2.305  -6.243  32.935  0.00  0.00    +0.062 C 
ATOM     13  C   UNL     1       2.256  -5.596  31.709  0.00  0.00    +0.073 C 
BRANCH   8  14
ATOM     14  N   UNL     1      -0.976  -6.693  30.429  0.00  0.00    -0.125 N 
ATOM     15  C   UNL     1      -2.221  -6.158  30.869  0.00  0.00    +0.322 C 
ATOM     16  O   UNL     1      -2.334  -5.508  31.942  0.00  0.00    -0.251 OA
ATOM     17  N   UNL     1      -3.438  -6.321  30.122  0.00  0.00    -0.312 N 
ATOM     18  H   UNL     1      -3.431  -6.818  29.272  0.00  0.00    +0.147 HD
ATOM     19  H   UNL     1      -4.279  -5.936  30.460  0.00  0.00    +0.147 HD
BRANCH  14  20
ATOM     20  N   UNL     1      -0.987  -7.376  29.211  0.00  0.00    +0.060 NA
ATOM     21  O   UNL     1      -1.556  -8.485  29.137  0.00  0.00    -0.078 OA
ENDBRANCH  14  20
ENDBRANCH   8  14
BRANCH   9  22
ATOM     22  O   UNL     1      -0.926  -7.971  32.809  0.00  0.00    -0.501 OA
ATOM     23  H   UNL     1      -1.654  -8.053  32.225  0.00  0.00    +0.292 HD
ENDBRANCH   9  22
ENDBRANCH   5   7
BRANCH   5  24
ATOM     24  O   UNL     1       1.203  -5.948  28.495  0.00  0.00    -0.424 OA
BRANCH  24  25
ATOM     25  C   UNL     1       2.125  -6.952  28.370  0.00  0.00    +0.343 C 
ATOM     26  O   UNL     1       3.051  -7.015  29.203  0.00  0.00    -0.245 OA
BRANCH  25  27
ATOM     27  C   UNL     1       2.082  -7.965  27.306  0.00  0.00    +0.076 C 
ATOM     28  C   UNL     1       2.882  -9.087  27.363  0.00  0.00    +0.010 C 
ATOM     29  C   UNL     1       2.899 -10.079  26.407  0.00  0.00    +0.037 C 
ATOM     30  C   UNL     1       2.058  -9.936  25.325  0.00  0.00    +0.134 C 
ATOM     31  C   UNL     1       1.236  -8.829  25.222  0.00  0.00    +0.037 C 
ATOM     32  C   UNL     1       1.251  -7.852  26.209  0.00  0.00    +0.010 C 
BRANCH  30  33
ATOM     33  O   UNL     1       2.022 -10.904  24.318  0.00  0.00    -0.506 OA
ATOM     34  H   UNL     1       2.573 -11.659  24.374  0.00  0.00    +0.292 HD
ENDBRANCH  30  33
ENDBRANCH  25  27
ENDBRANCH  24  25
ENDBRANCH   5  24
BRANCH   1  35
ATOM     35  S   UNL     1       2.726  -4.190  26.689  0.00  0.00    -0.015 S 
BRANCH  35  36
ATOM     36  C   UNL     1       2.024  -3.242  25.346  0.00  0.00    +0.273 C 
ATOM     37  O   UNL     1       2.308  -3.600  24.162  0.00  0.00    -0.263 OA
ATOM     38  N   UNL     1       1.180  -2.128  25.561  0.00  0.00    -0.320 N 
ATOM     39  H   UNL     1       0.958  -1.848  26.478  0.00  0.00    +0.146 HD
ATOM     40  H   UNL     1       0.814  -1.632  24.793  0.00  0.00    +0.146 HD
ENDBRANCH  35  36
ENDBRANCH   1  35
TORSDOF 10
