REMARK  Name = =
REMARK  11 active torsions:
REMARK  status: ('A' for Active; 'I' for Inactive)
REMARK    1  A    between atoms: C_1  and  S_21
REMARK    2  A    between atoms: C_1  and  S_34
REMARK    3  A    between atoms: C_5  and  N_7
REMARK    4  A    between atoms: C_5  and  O_24
REMARK    5  A    between atoms: C_8  and  N_14
REMARK    6  A    between atoms: C_9  and  O_20
REMARK    7  A    between atoms: N_14  and  N_18
REMARK    8  A    between atoms: O_24  and  C_25
REMARK    9  A    between atoms: C_25  and  C_27
REMARK   10  A    between atoms: C_30  and  O_33
REMARK   11  A    between atoms: S_34  and  C_35
REMARK                            x       y       z     vdW  Elec       q    Type
REMARK                         _______ _______ _______ _____ _____    ______ ____
ROOT
ATOM      1  C   UNL     1       2.120  -3.333  27.142  0.00  0.00    +0.294 C 
ATOM      2  O   UNL     1       1.095  -4.167  26.607  0.00  0.00    -0.422 OA
ATOM      3  C   UNL     1       0.558  -4.936  27.649  0.00  0.00    +0.375 C 
ATOM      4  O   UNL     1      -0.656  -5.154  27.818  0.00  0.00    -0.244 OA
ATOM      5  C   UNL     1       1.772  -5.361  28.408  0.00  0.00    +0.298 C 
ATOM      6  C   UNL     1       2.559  -4.040  28.382  0.00  0.00    +0.147 C 
ENDROOT
BRANCH   5   7
ATOM      7  N   UNL     1       2.455  -6.477  27.846  0.00  0.00    -0.233 N 
ATOM      8  C   UNL     1       1.843  -7.670  27.857  0.00  0.00    +0.175 C 
ATOM      9  C   UNL     1       2.527  -8.764  27.305  0.00  0.00    +0.203 C 
ATOM     10  C   UNL     1       3.781  -8.676  26.758  0.00  0.00    +0.233 C 
ATOM     11  O   UNL     1       4.395  -9.650  26.264  0.00  0.00    -0.283 OA
ATOM     12  C   UNL     1       4.377  -7.438  26.764  0.00  0.00    +0.062 C 
ATOM     13  C   UNL     1       3.706  -6.341  27.310  0.00  0.00    +0.073 C 
BRANCH   8  14
ATOM     14  N   UNL     1       0.550  -7.889  28.383  0.00  0.00    -0.090 N 
ATOM     15  C   UNL     1      -0.472  -8.177  27.423  0.00  0.00    +0.327 C 
ATOM     16  O   UNL     1      -0.254  -8.238  26.185  0.00  0.00    -0.251 OA
ATOM     17  N   UNL     1      -1.805  -8.411  27.851  0.00  0.00    -0.311 N 
ATOM     18  H   UNL     1      -2.028  -8.375  28.809  0.00  0.00    +0.147 HD
ATOM     19  H   UNL     1      -2.507  -8.610  27.190  0.00  0.00    +0.147 HD
BRANCH  14  20
ATOM     20  N   UNL     1       0.179  -7.877  29.716  0.00  0.00    +0.059 NA
ATOM     21  O   UNL     1      -0.972  -7.642  30.064  0.00  0.00    -0.125 OA
ENDBRANCH  14  20
ENDBRANCH   8  14
BRANCH   9  22
ATOM     22  O   UNL     1       1.884  -9.996  27.322  0.00  0.00    -0.501 OA
ATOM     23  H   UNL     1       1.027 -10.072  27.692  0.00  0.00    +0.292 HD
ENDBRANCH   9  22
ENDBRANCH   5   7
BRANCH   1  24
ATOM     24  S   UNL     1       1.344  -1.750  27.513  0.00  0.00    +0.010 S 
ATOM     25  O   UNL     1       0.133  -1.535  26.668  0.00  0.00    -0.172 OA
ATOM     26  O   UNL     1       2.356  -0.636  27.318  0.00  0.00    -0.172 OA
ATOM     27  H   UNL     1       0.932  -1.749  28.809  0.00  0.00    +0.215 HD
ENDBRANCH   1  24
BRANCH   5  28
ATOM     28  O   UNL     1       1.449  -5.556  29.781  0.00  0.00    -0.424 OA
BRANCH  28  29
ATOM     29  C   UNL     1       2.431  -5.216  30.730  0.00  0.00    +0.343 C 
ATOM     30  O   UNL     1       3.527  -4.763  30.320  0.00  0.00    -0.245 OA
BRANCH  29  31
ATOM     31  C   UNL     1       2.147  -5.399  32.148  0.00  0.00    +0.076 C 
ATOM     32  C   UNL     1       2.800  -4.656  33.106  0.00  0.00    +0.010 C 
ATOM     33  C   UNL     1       2.544  -4.816  34.452  0.00  0.00    +0.037 C 
ATOM     34  C   UNL     1       1.611  -5.742  34.862  0.00  0.00    +0.134 C 
ATOM     35  C   UNL     1       0.928  -6.514  33.924  0.00  0.00    +0.037 C 
ATOM     36  C   UNL     1       1.221  -6.315  32.595  0.00  0.00    +0.010 C 
BRANCH  34  37
ATOM     37  O   UNL     1       1.359  -5.897  36.214  0.00  0.00    -0.506 OA
ATOM     38  H   UNL     1       1.822  -5.375  36.840  0.00  0.00    +0.292 HD
ENDBRANCH  34  37
ENDBRANCH  29  31
ENDBRANCH  28  29
ENDBRANCH   5  28
BRANCH   1  39
ATOM     39  S   UNL     1       3.453  -3.003  25.996  0.00  0.00    +0.003 S 
BRANCH  39  40
ATOM     40  C   UNL     1       2.816  -2.486  24.412  0.00  0.00    +0.275 C 
ATOM     41  O   UNL     1       3.570  -2.197  23.453  0.00  0.00    -0.263 OA
ATOM     42  N   UNL     1       1.409  -2.404  24.248  0.00  0.00    -0.320 N 
ATOM     43  H   UNL     1       0.812  -2.630  24.998  0.00  0.00    +0.146 HD
ATOM     44  H   UNL     1       1.030  -2.121  23.385  0.00  0.00    +0.146 HD
ENDBRANCH  39  40
ENDBRANCH   1  39
TORSDOF 11
