REMARK  Name = =
REMARK  1 active torsions:
REMARK  status: ('A' for Active; 'I' for Inactive)
REMARK    1  A    between atoms: C_2  and  O_8
REMARK                            x       y       z     vdW  Elec       q    Type
REMARK                         _______ _______ _______ _____ _____    ______ ____
ROOT
ATOM      1  O   UNL     1      51.763 155.908  28.580  0.00  0.00    -0.421 OA
ATOM      2  C   UNL     1      52.433 157.029  28.439  0.00  0.00    +0.297 C 
ATOM      3  C   UNL     1      51.958 158.134  29.145  0.00  0.00    +0.120 C 
ATOM      4  C   UNL     1      50.841 158.057  29.953  0.00  0.00    +0.205 C 
ATOM      5  O   UNL     1      50.438 159.075  30.578  0.00  0.00    -0.286 OA
ATOM      6  C   UNL     1      50.185 156.851  30.057  0.00  0.00    +0.083 C 
ATOM      7  C   UNL     1      50.700 155.788  29.334  0.00  0.00    +0.186 C 
ENDROOT
BRANCH   2   8
ATOM      8  O   UNL     1      53.563 157.119  27.626  0.00  0.00    -0.479 OA
ATOM      9  H   UNL     1      53.866 156.365  27.160  0.00  0.00    +0.295 HD
ENDBRANCH   2   8
TORSDOF 1
