REMARK  Name = =
REMARK  2 active torsions:
REMARK  status: ('A' for Active; 'I' for Inactive)
REMARK    1  A    between atoms: C_1  and  O_11
REMARK    2  A    between atoms: O_11  and  C_13
REMARK                            x       y       z     vdW  Elec       q    Type
REMARK                         _______ _______ _______ _____ _____    ______ ____
ROOT
ATOM      1  C   UNL     1      52.825 156.043  27.215  0.00  0.00    +0.168 C 
ATOM      2  C   UNL     1      52.142 154.876  27.473  0.00  0.00    +0.138 C 
ATOM      3  N   UNL     1      52.367 153.828  26.649  0.00  0.00    -0.222 NA
ATOM      4  C   UNL     1      53.207 153.859  25.608  0.00  0.00    +0.166 C 
ATOM      5  N   UNL     1      53.405 152.783  24.806  0.00  0.00    -0.205 NA
ATOM      6  C   UNL     1      54.235 152.786  23.763  0.00  0.00    +0.200 C 
ATOM      7  N   UNL     1      54.912 153.908  23.490  0.00  0.00    -0.222 NA
ATOM      8  C   UNL     1      54.772 155.024  24.241  0.00  0.00    +0.104 C 
ATOM      9  C   UNL     1      53.909 155.013  25.320  0.00  0.00    +0.058 C 
ATOM     10  C   UNL     1      53.716 156.106  26.127  0.00  0.00    +0.044 C 
ENDROOT
BRANCH   1  11
ATOM     11  O   UNL     1      52.706 157.179  27.950  0.00  0.00    -0.422 OA
BRANCH  11  13
ATOM     12  O   UNL     1      50.731 156.838  29.255  0.00  0.00    -0.420 OA
ATOM     13  C   UNL     1      51.741 157.546  28.855  0.00  0.00    +0.305 C 
ATOM     14  C   UNL     1      51.879 158.833  29.398  0.00  0.00    +0.120 C 
ATOM     15  C   UNL     1      50.958 159.274  30.306  0.00  0.00    +0.205 C 
ATOM     16  O   UNL     1      51.032 160.436  30.833  0.00  0.00    -0.286 OA
ATOM     17  C   UNL     1      49.926 158.443  30.661  0.00  0.00    +0.083 C 
ATOM     18  C   UNL     1      49.818 157.185  30.110  0.00  0.00    +0.186 C 
ENDBRANCH  11  13
ENDBRANCH   1  11
TORSDOF 2
