REMARK  Name = =
REMARK  2 active torsions:
REMARK  status: ('A' for Active; 'I' for Inactive)
REMARK    1  A    between atoms: C_1  and  O_23
REMARK    2  A    between atoms: O_23  and  C_25
REMARK                            x       y       z     vdW  Elec       q    Type
REMARK                         _______ _______ _______ _____ _____    ______ ____
ROOT
ATOM      1  C   UNL     1      51.876 155.089  27.996  0.00  0.00    +0.172 C 
ATOM      2  C   UNL     1      50.719 154.434  28.413  0.00  0.00    +0.138 C 
ATOM      3  N   UNL     1      49.804 155.072  29.153  0.00  0.00    -0.222 NA
ATOM      4  C   UNL     1      49.925 156.332  29.530  0.00  0.00    +0.162 C 
ATOM      5  N   UNL     1      49.021 156.994  30.272  0.00  0.00    -0.208 NA
ATOM      6  C   UNL     1      49.156 158.277  30.649  0.00  0.00    +0.183 C 
ATOM      7  N   UNL     1      50.261 158.940  30.265  0.00  0.00    -0.213 NA
ATOM      8  C   UNL     1      51.214 158.353  29.522  0.00  0.00    +0.142 C 
ATOM      9  C   UNL     1      51.075 157.024  29.130  0.00  0.00    +0.043 C 
ATOM     10  C   UNL     1      52.039 156.437  28.381  0.00  0.00    +0.090 C 
ATOM     11  C   UNL     1      53.228 157.144  27.965  0.00  0.00    +0.252 C 
ATOM     12  O   UNL     1      53.796 156.778  26.891  0.00  0.00    -0.270 OA
ATOM     13  N   UNL     1      53.794 158.222  28.692  0.00  0.00    -0.271 N 
ATOM     14  C   UNL     1      54.971 158.868  28.213  0.00  0.00    +0.099 C 
ATOM     15  C   UNL     1      55.680 159.676  29.279  0.00  0.00    +0.048 C 
ATOM     16  C   UNL     1      54.712 160.544  29.998  0.00  0.00    -0.023 C 
ATOM     17  C   UNL     1      53.476 160.013  30.299  0.00  0.00    -0.006 C 
ATOM     18  C   UNL     1      52.584 160.831  30.968  0.00  0.00    -0.003 C 
ATOM     19  C   UNL     1      52.923 162.121  31.316  0.00  0.00    -0.000 C 
ATOM     20  C   UNL     1      54.176 162.651  31.008  0.00  0.00    -0.000 C 
ATOM     21  C   UNL     1      55.063 161.833  30.340  0.00  0.00    -0.004 C 
ATOM     22  C   UNL     1      53.108 158.609  29.921  0.00  0.00    +0.122 C 
ENDROOT
BRANCH   1  23
ATOM     23  O   UNL     1      52.805 154.532  27.278  0.00  0.00    -0.422 OA
BRANCH  23  25
ATOM     24  O   UNL     1      54.419 153.823  25.830  0.00  0.00    -0.420 OA
ATOM     25  C   UNL     1      53.324 153.541  26.575  0.00  0.00    +0.305 C 
ATOM     26  C   UNL     1      52.848 152.230  26.527  0.00  0.00    +0.120 C 
ATOM     27  C   UNL     1      53.477 151.282  25.754  0.00  0.00    +0.205 C 
ATOM     28  O   UNL     1      53.023 150.104  25.731  0.00  0.00    -0.286 OA
ATOM     29  C   UNL     1      54.581 151.675  25.038  0.00  0.00    +0.083 C 
ATOM     30  C   UNL     1      55.047 152.978  25.090  0.00  0.00    +0.186 C 
ENDBRANCH  23  25
ENDBRANCH   1  23
TORSDOF 2
