REMARK  Name = =
REMARK  0 active torsions:
REMARK  status: ('A' for Active; 'I' for Inactive)
REMARK                            x       y       z     vdW  Elec       q    Type
REMARK                         _______ _______ _______ _____ _____    ______ ____
ROOT
ATOM      1  C   UNL     1      50.746 155.304  28.293  0.00  0.00    +0.003 C 
ATOM      2  C   UNL     1      50.491 156.376  29.115  0.00  0.00    +0.018 C 
ATOM      3  C   UNL     1      51.292 157.477  29.103  0.00  0.00    +0.081 C 
ATOM      4  N   UNL     1      52.340 157.475  28.258  0.00  0.00    -0.245 NA
ATOM      5  C   UNL     1      52.648 156.462  27.427  0.00  0.00    +0.081 C 
ATOM      6  C   UNL     1      51.843 155.342  27.431  0.00  0.00    +0.018 C 
ATOM      7  C   UNL     1      52.148 154.309  26.593  0.00  0.00    +0.001 C 
ATOM      8  C   UNL     1      53.233 154.345  25.741  0.00  0.00    +0.000 C 
ATOM      9  C   UNL     1      54.031 155.482  25.752  0.00  0.00    +0.002 C 
ATOM     10  C   UNL     1      53.758 156.541  26.579  0.00  0.00    +0.019 C 
ATOM     11  C   UNL     1      51.061 158.579  29.922  0.00  0.00    +0.018 C 
ATOM     12  C   UNL     1      49.974 158.532  30.768  0.00  0.00    +0.001 C 
ATOM     13  C   UNL     1      49.159 157.423  30.787  0.00  0.00    +0.000 C 
ATOM     14  C   UNL     1      49.410 156.330  29.958  0.00  0.00    +0.001 C 
ATOM     15  C   UNL     1      49.754 159.620  31.571  0.00  0.00    +0.000 C 
ATOM     16  C   UNL     1      50.571 160.742  31.559  0.00  0.00    +0.000 C 
ATOM     17  C   UNL     1      51.651 160.752  30.696  0.00  0.00    +0.000 C 
ATOM     18  C   UNL     1      51.896 159.671  29.877  0.00  0.00    +0.001 C 
ENDROOT
TORSDOF 0
