REMARK  Name = =
REMARK  1 active torsions:
REMARK  status: ('A' for Active; 'I' for Inactive)
REMARK    1  A    between atoms: C_18  and  C_19
REMARK                            x       y       z     vdW  Elec       q    Type
REMARK                         _______ _______ _______ _____ _____    ______ ____
ROOT
ATOM      1  C   UNL     1      49.029 157.629  29.663  0.00  0.00    +0.003 C 
ATOM      2  C   UNL     1      49.000 158.883  30.253  0.00  0.00    +0.018 C 
ATOM      3  C   UNL     1      50.164 159.565  30.531  0.00  0.00    +0.081 C 
ATOM      4  N   UNL     1      51.343 159.017  30.235  0.00  0.00    -0.245 NA
ATOM      5  C   UNL     1      51.396 157.810  29.668  0.00  0.00    +0.081 C 
ATOM      6  C   UNL     1      50.259 157.093  29.370  0.00  0.00    +0.018 C 
ATOM      7  C   UNL     1      50.352 155.850  28.784  0.00  0.00    +0.001 C 
ATOM      8  C   UNL     1      51.554 155.276  28.473  0.00  0.00    +0.000 C 
ATOM      9  C   UNL     1      52.709 155.970  28.760  0.00  0.00    +0.002 C 
ATOM     10  C   UNL     1      52.617 157.210  29.346  0.00  0.00    +0.019 C 
ATOM     11  C   UNL     1      50.082 160.788  31.174  0.00  0.00    +0.017 C 
ATOM     12  C   UNL     1      48.824 161.242  31.504  0.00  0.00    +0.001 C 
ATOM     13  C   UNL     1      47.662 160.585  31.240  0.00  0.00    +0.000 C 
ATOM     14  C   UNL     1      47.740 159.371  30.595  0.00  0.00    +0.001 C 
ATOM     15  C   UNL     1      48.692 162.431  32.226  0.00  0.00    +0.000 C 
ATOM     16  C   UNL     1      49.821 163.119  32.586  0.00  0.00    -0.000 C 
ATOM     17  C   UNL     1      51.047 162.633  32.231  0.00  0.00    -0.000 C 
ATOM     18  C   UNL     1      51.224 161.434  31.497  0.00  0.00    -0.003 C 
ENDROOT
BRANCH  18  19
ATOM     19  C   UNL     1      52.558 161.209  30.977  0.00  0.00    -0.026 C 
ATOM     20  C   UNL     1      52.936 160.077  30.462  0.00  0.00    -0.030 C 
ATOM     21  C   UNL     1      54.309 159.810  29.923  0.00  0.00    +0.026 C 
ATOM     22  C   UNL     1      55.318 160.785  30.435  0.00  0.00    +0.005 C 
ATOM     23  C   UNL     1      54.783 162.173  30.358  0.00  0.00    +0.005 C 
ATOM     24  C   UNL     1      53.499 162.380  31.087  0.00  0.00    +0.026 C 
ENDBRANCH  18  19
TORSDOF 1
