REMARK  Name = =
REMARK  2 active torsions:
REMARK  status: ('A' for Active; 'I' for Inactive)
REMARK    1  A    between atoms: N_1  and  C_19
REMARK    2  A    between atoms: C_12  and  O_24
REMARK                            x       y       z     vdW  Elec       q    Type
REMARK                         _______ _______ _______ _____ _____    ______ ____
ROOT
ATOM      1  N   UNL     1     -13.019 -44.083  27.189  0.00  0.00    -0.265 NA
ATOM      2  C   UNL     1     -12.817 -43.151  28.275  0.00  0.00    +0.067 C 
ATOM      3  C   UNL     1     -12.494 -43.845  29.517  0.00  0.00    +0.044 C 
ATOM      4  C   UNL     1     -11.302 -44.743  29.327  0.00  0.00    +0.065 C 
ATOM      5  C   UNL     1     -10.848 -45.572  30.469  0.00  0.00    +0.174 C 
ATOM      6  O   UNL     1      -9.430 -45.354  30.559  0.00  0.00    -0.476 OA
ATOM      7  C   UNL     1      -9.162 -44.129  29.930  0.00  0.00    +0.168 C 
ATOM      8  C   UNL     1     -10.215 -43.743  29.228  0.00  0.00    +0.014 C 
ATOM      9  C   UNL     1     -10.366 -42.628  28.495  0.00  0.00    -0.022 C 
ATOM     10  C   UNL     1      -9.288 -41.754  28.449  0.00  0.00    -0.001 C 
ATOM     11  C   UNL     1      -8.133 -42.092  29.162  0.00  0.00    +0.039 C 
ATOM     12  C   UNL     1      -8.066 -43.275  29.903  0.00  0.00    +0.167 C 
ATOM     13  C   UNL     1     -11.631 -42.286  27.813  0.00  0.00    +0.042 C 
ATOM     14  C   UNL     1     -11.591 -45.340  31.736  0.00  0.00    +0.070 C 
ATOM     15  C   UNL     1     -13.025 -45.010  31.517  0.00  0.00    -0.027 C 
ATOM     16  C   UNL     1     -13.458 -44.294  30.455  0.00  0.00    -0.029 C 
ATOM     17  C   UNL     1     -11.361 -45.549  28.075  0.00  0.00    +0.025 C 
ATOM     18  C   UNL     1     -12.788 -45.443  27.511  0.00  0.00    +0.073 C 
ENDROOT
BRANCH   1  19
ATOM     19  C   UNL     1     -14.130 -43.874  26.366  0.00  0.00    +0.123 C 
ATOM     20  S   UNL     1     -15.440 -42.845  27.144  0.00  0.00    -0.106 S 
ATOM     21  C   UNL     1     -15.874 -41.888  25.630  0.00  0.00    +0.129 C 
ATOM     22  N   UNL     1     -15.133 -42.600  24.636  0.00  0.00    -0.286 NA
ATOM     23  C   UNL     1     -13.853 -42.974  25.163  0.00  0.00    +0.097 C 
ATOM     24  H   UNL     1     -15.647 -43.439  24.366  0.00  0.00    +0.124 HD
ENDBRANCH   1  19
BRANCH  12  25
ATOM     25  O   UNL     1      -6.921 -43.605  30.607  0.00  0.00    -0.503 OA
ATOM     26  H   UNL     1      -6.180 -43.032  30.591  0.00  0.00    +0.292 HD
ENDBRANCH  12  25
TORSDOF 2
