REMARK  Name = =
REMARK  3 active torsions:
REMARK  status: ('A' for Active; 'I' for Inactive)
REMARK    1  A    between atoms: N_1  and  C_19
REMARK    2  A    between atoms: C_12  and  O_29
REMARK    3  A    between atoms: C_19  and  C_24
REMARK                            x       y       z     vdW  Elec       q    Type
REMARK                         _______ _______ _______ _____ _____    ______ ____
ROOT
ATOM      1  N   UNL     1     -12.601 -43.431  26.673  0.00  0.00    -0.261 NA
ATOM      2  C   UNL     1     -12.448 -42.695  27.955  0.00  0.00    +0.067 C 
ATOM      3  C   UNL     1     -12.837 -43.417  29.138  0.00  0.00    +0.044 C 
ATOM      4  C   UNL     1     -11.980 -44.635  29.297  0.00  0.00    +0.065 C 
ATOM      5  C   UNL     1     -12.216 -45.544  30.429  0.00  0.00    +0.174 C 
ATOM      6  O   UNL     1     -10.961 -45.746  31.105  0.00  0.00    -0.476 OA
ATOM      7  C   UNL     1     -10.099 -44.726  30.672  0.00  0.00    +0.168 C 
ATOM      8  C   UNL     1     -10.675 -44.059  29.671  0.00  0.00    +0.014 C 
ATOM      9  C   UNL     1     -10.174 -43.009  29.003  0.00  0.00    -0.022 C 
ATOM     10  C   UNL     1      -8.901 -42.558  29.387  0.00  0.00    -0.001 C 
ATOM     11  C   UNL     1      -8.252 -43.222  30.426  0.00  0.00    +0.039 C 
ATOM     12  C   UNL     1      -8.833 -44.310  31.085  0.00  0.00    +0.167 C 
ATOM     13  C   UNL     1     -10.953 -42.314  27.940  0.00  0.00    +0.042 C 
ATOM     14  C   UNL     1     -13.370 -45.240  31.293  0.00  0.00    +0.070 C 
ATOM     15  C   UNL     1     -14.361 -44.283  30.742  0.00  0.00    -0.027 C 
ATOM     16  C   UNL     1     -14.117 -43.430  29.739  0.00  0.00    -0.029 C 
ATOM     17  C   UNL     1     -11.910 -45.361  27.958  0.00  0.00    +0.025 C 
ATOM     18  C   UNL     1     -12.954 -44.821  27.005  0.00  0.00    +0.074 C 
ENDROOT
BRANCH   1  19
ATOM     19  C   UNL     1     -13.574 -42.803  25.864  0.00  0.00    +0.155 C 
ATOM     20  S   UNL     1     -13.120 -41.315  24.994  0.00  0.00    -0.101 S 
ATOM     21  C   UNL     1     -14.270 -41.561  23.565  0.00  0.00    +0.129 C 
ATOM     22  N   UNL     1     -14.935 -42.747  23.930  0.00  0.00    -0.286 NA
ATOM     23  C   UNL     1     -14.158 -43.622  24.725  0.00  0.00    +0.102 C 
ATOM     24  H   UNL     1     -15.202 -43.240  23.078  0.00  0.00    +0.124 HD
BRANCH  19  25
ATOM     25  C   UNL     1     -14.725 -42.462  26.794  0.00  0.00    +0.178 C 
ATOM     26  O   UNL     1     -14.751 -41.468  27.608  0.00  0.00    -0.356 OA
ATOM     27  N   UNL     1     -15.868 -41.426  28.286  0.00  0.00    -0.076 NA
ATOM     28  C   UNL     1     -16.620 -42.460  27.887  0.00  0.00    +0.144 C 
ATOM     29  C   UNL     1     -15.902 -43.147  26.918  0.00  0.00    +0.062 C 
ENDBRANCH  19  25
ENDBRANCH   1  19
BRANCH  12  30
ATOM     30  O   UNL     1      -8.147 -44.923  32.101  0.00  0.00    -0.503 OA
ATOM     31  H   UNL     1      -8.527 -45.653  32.549  0.00  0.00    +0.292 HD
ENDBRANCH  12  30
TORSDOF 3
