REMARK  Name = =
REMARK  8 active torsions:
REMARK  status: ('A' for Active; 'I' for Inactive)
REMARK    1  A    between atoms: C_1  and  N_6
REMARK    2  A    between atoms: C_1  and  C_25
REMARK    3  A    between atoms: C_17  and  O_24
REMARK    4  A    between atoms: C_28  and  C_30
REMARK    5  A    between atoms: C_30  and  O_35
REMARK    6  A    between atoms: O_35  and  P_36
REMARK    7  A    between atoms: P_36  and  N_38
REMARK    8  A    between atoms: P_36  and  S_39
REMARK                            x       y       z     vdW  Elec       q    Type
REMARK                         _______ _______ _______ _____ _____    ______ ____
ROOT
ATOM      1  C   UNL     1     -14.621 -43.085  26.251  0.00  0.00    +0.155 C 
ATOM      2  S   UNL     1     -13.773 -41.557  25.681  0.00  0.00    -0.101 S 
ATOM      3  C   UNL     1     -13.983 -41.921  23.886  0.00  0.00    +0.129 C 
ATOM      4  N   UNL     1     -13.918 -43.349  23.954  0.00  0.00    -0.286 NA
ATOM      5  C   UNL     1     -14.684 -43.869  24.990  0.00  0.00    +0.102 C 
ATOM      6  H   UNL     1     -12.946 -43.626  24.095  0.00  0.00    +0.124 HD
ENDROOT
BRANCH   1   7
ATOM      7  N   UNL     1     -13.906 -43.733  27.300  0.00  0.00    -0.261 NA
ATOM      8  C   UNL     1     -13.767 -43.055  28.533  0.00  0.00    +0.067 C 
ATOM      9  C   UNL     1     -13.467 -44.128  29.593  0.00  0.00    +0.044 C 
ATOM     10  C   UNL     1     -12.194 -44.767  29.185  0.00  0.00    +0.065 C 
ATOM     11  C   UNL     1     -11.566 -45.703  30.207  0.00  0.00    +0.174 C 
ATOM     12  O   UNL     1     -10.210 -45.699  29.665  0.00  0.00    -0.476 OA
ATOM     13  C   UNL     1      -9.949 -44.352  29.360  0.00  0.00    +0.168 C 
ATOM     14  C   UNL     1     -11.148 -43.753  29.093  0.00  0.00    +0.014 C 
ATOM     15  C   UNL     1     -11.352 -42.463  28.770  0.00  0.00    -0.022 C 
ATOM     16  C   UNL     1     -10.249 -41.658  28.692  0.00  0.00    -0.001 C 
ATOM     17  C   UNL     1      -8.988 -42.187  28.943  0.00  0.00    +0.039 C 
ATOM     18  C   UNL     1      -8.846 -43.522  29.274  0.00  0.00    +0.167 C 
ATOM     19  C   UNL     1     -12.719 -41.988  28.553  0.00  0.00    +0.042 C 
ATOM     20  C   UNL     1     -11.485 -45.028  31.545  0.00  0.00    +0.070 C 
ATOM     21  C   UNL     1     -12.487 -44.014  31.817  0.00  0.00    -0.027 C 
ATOM     22  C   UNL     1     -13.383 -43.597  30.955  0.00  0.00    -0.029 C 
ATOM     23  C   UNL     1     -12.347 -45.450  27.871  0.00  0.00    +0.025 C 
ATOM     24  C   UNL     1     -12.712 -44.402  26.846  0.00  0.00    +0.074 C 
BRANCH  18  25
ATOM     25  O   UNL     1      -7.605 -44.073  29.529  0.00  0.00    -0.503 OA
ATOM     26  H   UNL     1      -6.836 -43.539  29.480  0.00  0.00    +0.292 HD
ENDBRANCH  18  25
ENDBRANCH   1   7
BRANCH   1  27
ATOM     27  C   UNL     1     -15.976 -42.705  26.693  0.00  0.00    +0.178 C 
ATOM     28  O   UNL     1     -16.338 -42.446  27.934  0.00  0.00    -0.356 OA
ATOM     29  N   UNL     1     -17.619 -42.137  28.008  0.00  0.00    -0.079 NA
ATOM     30  C   UNL     1     -18.181 -42.173  26.806  0.00  0.00    +0.125 C 
ATOM     31  C   UNL     1     -17.127 -42.538  25.943  0.00  0.00    +0.058 C 
BRANCH  30  32
ATOM     32  C   UNL     1     -19.575 -42.010  26.311  0.00  0.00    +0.139 C 
ATOM     33  C   UNL     1     -19.769 -42.860  25.119  0.00  0.00    +0.034 C 
ATOM     34  C   UNL     1     -19.933 -42.104  24.028  0.00  0.00    +0.003 C 
ATOM     35  C   UNL     1     -19.868 -40.654  24.360  0.00  0.00    +0.003 C 
ATOM     36  C   UNL     1     -19.838 -40.594  25.868  0.00  0.00    +0.034 C 
BRANCH  32  37
ATOM     37  O   UNL     1     -20.469 -42.345  27.320  0.00  0.00    -0.295 OA
BRANCH  37  38
ATOM     38  P   UNL     1     -22.055 -42.523  26.859  0.00  0.00    +0.324 P 
ATOM     39  O   UNL     1     -22.926 -42.178  28.044  0.00  0.00    -0.261 OA
BRANCH  38  40
ATOM     40  N   UNL     1     -22.575 -41.623  25.496  0.00  0.00    -0.251 NA
ATOM     41  H   UNL     1     -22.395 -40.632  25.654  0.00  0.00    +0.128 HD
ATOM     42  H   UNL     1     -23.575 -41.768  25.354  0.00  0.00    +0.128 HD
ENDBRANCH  38  40
BRANCH  38  43
ATOM     43  S   UNL     1     -22.446 -44.620  26.504  0.00  0.00    -0.071 S 
ATOM     44  H   UNL     1     -22.038 -45.346  27.579  0.00  0.00    +0.113 HD
ENDBRANCH  38  43
ENDBRANCH  37  38
ENDBRANCH  32  37
ENDBRANCH  30  32
ENDBRANCH   1  27
TORSDOF 8
