REMARK  Name = =
REMARK  0 active torsions:
REMARK  status: ('A' for Active; 'I' for Inactive)
REMARK                            x       y       z     vdW  Elec       q    Type
REMARK                         _______ _______ _______ _____ _____    ______ ____
ROOT
ATOM      1  N   UNL     1      -3.749  -3.935  31.145  0.00  0.00    -0.272 N 
ATOM      2  C   UNL     1      -4.897  -3.121  31.473  0.00  0.00    +0.094 C 
ATOM      3  C   UNL     1      -5.157  -3.457  32.922  0.00  0.00    +0.023 C 
ATOM      4  C   UNL     1      -4.344  -4.681  33.236  0.00  0.00    +0.023 C 
ATOM      5  C   UNL     1      -3.924  -5.167  31.881  0.00  0.00    +0.094 C 
ATOM      6  C   UNL     1      -2.656  -3.661  30.301  0.00  0.00    +0.303 C 
ATOM      7  O   UNL     1      -1.724  -4.482  30.116  0.00  0.00    -0.265 OA
ENDROOT
TORSDOF 0
