REMARK  Name = =
REMARK  1 active torsions:
REMARK  status: ('A' for Active; 'I' for Inactive)
REMARK    1  A    between atoms: N_1  and  C_13
REMARK                            x       y       z     vdW  Elec       q    Type
REMARK                         _______ _______ _______ _____ _____    ______ ____
ROOT
ATOM      1  N   UNL     1      -3.123  -6.916  31.706  0.00  0.00    -0.212 N 
ATOM      2  C   UNL     1      -1.789  -6.969  32.197  0.00  0.00    +0.249 C 
ATOM      3  O   UNL     1      -1.289  -5.930  32.702  0.00  0.00    -0.273 OA
ATOM      4  C   UNL     1      -0.944  -8.164  32.154  0.00  0.00    +0.156 C 
ATOM      5  N   UNL     1      -1.517  -9.290  31.494  0.00  0.00    -0.282 NA
ATOM      6  C   UNL     1      -2.503  -9.005  30.516  0.00  0.00    +0.156 C 
ATOM      7  C   UNL     1      -3.544  -8.043  30.954  0.00  0.00    +0.249 C 
ATOM      8  O   UNL     1      -4.767  -8.240  30.655  0.00  0.00    -0.273 OA
ATOM      9  H   UNL     1      -1.945  -9.883  32.205  0.00  0.00    +0.124 HD
ENDROOT
BRANCH   1  14
ATOM     10  N   UNL     1      -3.541  -4.565  31.438  0.00  0.00    -0.257 N 
ATOM     11  C   UNL     1      -3.693  -3.542  32.453  0.00  0.00    +0.095 C 
ATOM     12  C   UNL     1      -4.841  -4.145  33.278  0.00  0.00    +0.025 C 
ATOM     13  C   UNL     1      -4.338  -5.577  33.375  0.00  0.00    +0.043 C 
ATOM     14  C   UNL     1      -4.022  -5.842  31.920  0.00  0.00    +0.161 C 
ATOM     15  C   UNL     1      -2.998  -4.343  30.159  0.00  0.00    +0.304 C 
ATOM     16  O   UNL     1      -2.914  -5.303  29.359  0.00  0.00    -0.265 OA
ENDBRANCH   1  14
TORSDOF 1
