REMARK  Name = =
REMARK  3 active torsions:
REMARK  status: ('A' for Active; 'I' for Inactive)
REMARK    1  A    between atoms: C_3  and  C_27
REMARK    2  A    between atoms: C_5  and  C_8
REMARK    3  A    between atoms: C_5  and  N_19
REMARK                            x       y       z     vdW  Elec       q    Type
REMARK                         _______ _______ _______ _____ _____    ______ ____
ROOT
ATOM      1  N   UNL     1      -0.243  -6.320  29.582  0.00  0.00    -0.255 N 
ATOM      2  C   UNL     1      -1.184  -7.403  29.436  0.00  0.00    +0.096 C 
ATOM      3  C   UNL     1      -0.418  -8.503  28.831  0.00  0.00    +0.024 C 
ATOM      4  C   UNL     1       0.969  -8.256  29.370  0.00  0.00    +0.046 C 
ATOM      5  C   UNL     1       1.159  -6.797  29.615  0.00  0.00    +0.165 C 
ATOM      6  C   UNL     1      -0.649  -4.978  29.689  0.00  0.00    +0.304 C 
ATOM      7  O   UNL     1       0.023  -3.964  29.823  0.00  0.00    -0.265 OA
ENDROOT
BRANCH   5   8
ATOM      8  C   UNL     1       1.841  -6.092  28.531  0.00  0.00    +0.089 C 
ATOM      9  N   UNL     1       1.577  -4.856  28.263  0.00  0.00    -0.270 NA
ATOM     10  C   UNL     1       2.022  -3.886  27.324  0.00  0.00    +0.146 C 
ATOM     11  C   UNL     1       2.064  -4.377  25.898  0.00  0.00    +0.114 C 
ATOM     12  N   UNL     1       3.174  -5.301  25.772  0.00  0.00    -0.331 N 
ATOM     13  C   UNL     1       3.434  -6.492  26.503  0.00  0.00    +0.046 C 
ATOM     14  C   UNL     1       2.842  -6.825  27.719  0.00  0.00    +0.029 C 
ATOM     15  C   UNL     1       3.187  -7.996  28.302  0.00  0.00    +0.002 C 
ATOM     16  C   UNL     1       4.102  -8.843  27.712  0.00  0.00    +0.000 C 
ATOM     17  C   UNL     1       4.699  -8.515  26.494  0.00  0.00    +0.001 C 
ATOM     18  C   UNL     1       4.354  -7.323  25.891  0.00  0.00    +0.014 C 
ATOM     19  H   UNL     1       3.840  -5.072  25.085  0.00  0.00    +0.147 HD
ENDBRANCH   5   8
BRANCH   5  20
ATOM     20  N   UNL     1       1.501  -6.417  30.948  0.00  0.00    -0.210 N 
ATOM     21  C   UNL     1       2.453  -5.373  31.194  0.00  0.00    +0.249 C 
ATOM     22  O   UNL     1       3.399  -5.166  30.410  0.00  0.00    -0.273 OA
ATOM     23  C   UNL     1       2.323  -4.525  32.400  0.00  0.00    +0.156 C 
ATOM     24  N   UNL     1       1.919  -5.256  33.562  0.00  0.00    -0.282 NA
ATOM     25  C   UNL     1       1.726  -6.663  33.364  0.00  0.00    +0.156 C 
ATOM     26  C   UNL     1       0.935  -6.959  32.113  0.00  0.00    +0.249 C 
ATOM     27  O   UNL     1      -0.104  -7.611  32.123  0.00  0.00    -0.273 OA
ATOM     28  H   UNL     1       1.039  -4.861  33.893  0.00  0.00    +0.124 HD
ENDBRANCH   5  20
BRANCH   3  29
ATOM     29  C   UNL     1      -0.455  -8.401  27.333  0.00  0.00    +0.002 C 
ATOM     30  C   UNL     1      -1.809  -8.690  26.774  0.00  0.00    +0.000 C 
ATOM     31  C   UNL     1      -1.518  -8.990  25.321  0.00  0.00    +0.000 C 
ATOM     32  C   UNL     1      -0.174  -9.645  25.322  0.00  0.00    +0.000 C 
ATOM     33  C   UNL     1       0.435  -9.428  26.671  0.00  0.00    +0.000 C 
ENDBRANCH   3  29
TORSDOF 3
