REMARK  Name = =
REMARK  4 active torsions:
REMARK  status: ('A' for Active; 'I' for Inactive)
REMARK    1  A    between atoms: C_3  and  C_35
REMARK    2  A    between atoms: C_5  and  C_8
REMARK    3  A    between atoms: C_5  and  N_19
REMARK    4  A    between atoms: N_23  and  N_27
REMARK                            x       y       z     vdW  Elec       q    Type
REMARK                         _______ _______ _______ _____ _____    ______ ____
ROOT
ATOM      1  N   UNL     1       1.188  -5.061  28.266  0.00  0.00    -0.255 N 
ATOM      2  C   UNL     1       0.914  -5.585  29.584  0.00  0.00    +0.096 C 
ATOM      3  C   UNL     1       1.951  -4.996  30.485  0.00  0.00    +0.024 C 
ATOM      4  C   UNL     1       3.013  -4.806  29.434  0.00  0.00    +0.046 C 
ATOM      5  C   UNL     1       2.644  -4.961  28.101  0.00  0.00    +0.165 C 
ATOM      6  C   UNL     1       0.088  -4.780  27.450  0.00  0.00    +0.304 C 
ATOM      7  O   UNL     1      -1.077  -4.966  27.856  0.00  0.00    -0.265 OA
ENDROOT
BRANCH   5   8
ATOM      8  C   UNL     1       2.748  -4.284  26.876  0.00  0.00    +0.089 C 
ATOM      9  N   UNL     1       3.141  -5.014  25.849  0.00  0.00    -0.270 NA
ATOM     10  C   UNL     1       3.375  -4.743  24.461  0.00  0.00    +0.146 C 
ATOM     11  C   UNL     1       2.269  -4.021  23.768  0.00  0.00    +0.114 C 
ATOM     12  N   UNL     1       2.190  -2.636  24.188  0.00  0.00    -0.331 N 
ATOM     13  C   UNL     1       2.234  -2.136  25.518  0.00  0.00    +0.046 C 
ATOM     14  C   UNL     1       2.480  -2.874  26.685  0.00  0.00    +0.029 C 
ATOM     15  C   UNL     1       2.485  -2.252  27.903  0.00  0.00    +0.002 C 
ATOM     16  C   UNL     1       2.245  -0.871  28.006  0.00  0.00    +0.000 C 
ATOM     17  C   UNL     1       2.008  -0.173  26.850  0.00  0.00    +0.001 C 
ATOM     18  C   UNL     1       2.000  -0.792  25.620  0.00  0.00    +0.014 C 
ATOM     19  H   UNL     1       2.095  -1.967  23.472  0.00  0.00    +0.147 HD
ENDBRANCH   5   8
BRANCH   5  20
ATOM     20  N   UNL     1       3.196  -6.304  27.776  0.00  0.00    -0.210 N 
ATOM     21  C   UNL     1       2.293  -7.401  27.693  0.00  0.00    +0.250 C 
ATOM     22  O   UNL     1       1.066  -7.323  27.768  0.00  0.00    -0.273 OA
ATOM     23  C   UNL     1       2.925  -8.732  27.502  0.00  0.00    +0.175 C 
ATOM     24  N   UNL     1       3.997  -8.750  26.564  0.00  0.00    -0.200 NA
ATOM     25  C   UNL     1       5.026  -7.760  26.780  0.00  0.00    +0.175 C 
ATOM     26  C   UNL     1       4.538  -6.577  27.539  0.00  0.00    +0.250 C 
ATOM     27  O   UNL     1       5.365  -5.786  27.989  0.00  0.00    -0.273 OA
BRANCH  24  28
ATOM     28  N   UNL     1       4.451  -9.991  26.286  0.00  0.00    -0.214 NA
ATOM     29  C   UNL     1       5.785 -10.160  25.853  0.00  0.00    +0.110 C 
ATOM     30  C   UNL     1       6.118 -11.576  25.436  0.00  0.00    +0.113 C 
ATOM     31  N   UNL     1       5.166 -12.061  24.436  0.00  0.00    -0.269 N 
ATOM     32  C   UNL     1       3.941 -11.317  24.339  0.00  0.00    +0.113 C 
ATOM     33  C   UNL     1       3.570 -10.975  25.792  0.00  0.00    +0.110 C 
ATOM     34  C   UNL     1       5.395 -13.170  23.616  0.00  0.00    +0.303 C 
ATOM     35  O   UNL     1       6.477 -13.818  23.717  0.00  0.00    -0.265 OA
ENDBRANCH  24  28
ENDBRANCH   5  20
BRANCH   3  36
ATOM     36  C   UNL     1       2.343  -5.854  31.650  0.00  0.00    +0.002 C 
ATOM     37  C   UNL     1       2.455  -4.952  32.860  0.00  0.00    +0.000 C 
ATOM     38  C   UNL     1       1.970  -5.739  34.031  0.00  0.00    +0.000 C 
ATOM     39  C   UNL     1       1.229  -6.930  33.500  0.00  0.00    +0.000 C 
ATOM     40  C   UNL     1       1.419  -6.956  31.997  0.00  0.00    +0.000 C 
ENDBRANCH   3  36
TORSDOF 4
