REMARK  Name = =
REMARK  4 active torsions:
REMARK  status: ('A' for Active; 'I' for Inactive)
REMARK    1  A    between atoms: C_3  and  C_35
REMARK    2  A    between atoms: C_5  and  C_8
REMARK    3  A    between atoms: C_5  and  N_19
REMARK    4  A    between atoms: N_23  and  N_27
REMARK                            x       y       z     vdW  Elec       q    Type
REMARK                         _______ _______ _______ _____ _____    ______ ____
ROOT
ATOM      1  N   UNL     1       1.783  -4.958  29.679  0.00  0.00    -0.255 N 
ATOM      2  C   UNL     1       3.208  -5.150  29.358  0.00  0.00    +0.096 C 
ATOM      3  C   UNL     1       3.270  -5.297  27.873  0.00  0.00    +0.024 C 
ATOM      4  C   UNL     1       1.984  -4.631  27.476  0.00  0.00    +0.046 C 
ATOM      5  C   UNL     1       0.981  -5.219  28.548  0.00  0.00    +0.165 C 
ATOM      6  C   UNL     1       1.426  -4.554  30.978  0.00  0.00    +0.304 C 
ATOM      7  O   UNL     1       2.342  -4.379  31.835  0.00  0.00    -0.265 OA
ENDROOT
BRANCH   5   8
ATOM      8  C   UNL     1      -0.184  -4.363  28.309  0.00  0.00    +0.089 C 
ATOM      9  N   UNL     1      -0.161  -3.479  27.322  0.00  0.00    -0.270 NA
ATOM     10  C   UNL     1      -1.096  -2.518  26.829  0.00  0.00    +0.146 C 
ATOM     11  C   UNL     1      -1.615  -1.558  27.879  0.00  0.00    +0.114 C 
ATOM     12  N   UNL     1      -2.416  -2.221  28.870  0.00  0.00    -0.331 N 
ATOM     13  C   UNL     1      -2.379  -3.541  29.411  0.00  0.00    +0.046 C 
ATOM     14  C   UNL     1      -1.378  -4.460  29.143  0.00  0.00    +0.029 C 
ATOM     15  C   UNL     1      -1.434  -5.705  29.717  0.00  0.00    +0.002 C 
ATOM     16  C   UNL     1      -2.503  -6.004  30.557  0.00  0.00    +0.000 C 
ATOM     17  C   UNL     1      -3.489  -5.077  30.811  0.00  0.00    +0.001 C 
ATOM     18  C   UNL     1      -3.436  -3.828  30.237  0.00  0.00    +0.014 C 
ATOM     19  H   UNL     1      -3.128  -1.656  29.249  0.00  0.00    +0.147 HD
ENDBRANCH   5   8
BRANCH   5  20
ATOM     20  N   UNL     1       0.940  -6.557  28.013  0.00  0.00    -0.210 N 
ATOM     21  C   UNL     1       1.037  -6.695  26.600  0.00  0.00    +0.250 C 
ATOM     22  O   UNL     1       1.002  -5.725  25.796  0.00  0.00    -0.273 OA
ATOM     23  C   UNL     1       1.188  -8.074  26.061  0.00  0.00    +0.175 C 
ATOM     24  N   UNL     1       1.956  -8.881  26.945  0.00  0.00    -0.200 NA
ATOM     25  C   UNL     1       1.395  -9.022  28.258  0.00  0.00    +0.175 C 
ATOM     26  C   UNL     1       0.851  -7.752  28.782  0.00  0.00    +0.250 C 
ATOM     27  O   UNL     1       0.296  -7.651  29.903  0.00  0.00    -0.273 OA
BRANCH  24  28
ATOM     28  N   UNL     1       2.338 -10.024  26.331  0.00  0.00    -0.214 NA
ATOM     29  C   UNL     1       1.806 -11.251  26.784  0.00  0.00    +0.110 C 
ATOM     30  C   UNL     1       2.195 -12.379  25.865  0.00  0.00    +0.113 C 
ATOM     31  N   UNL     1       2.754 -11.973  24.620  0.00  0.00    -0.269 N 
ATOM     32  C   UNL     1       3.552 -10.771  24.434  0.00  0.00    +0.113 C 
ATOM     33  C   UNL     1       3.648 -10.081  25.779  0.00  0.00    +0.110 C 
ATOM     34  C   UNL     1       2.529 -12.784  23.478  0.00  0.00    +0.303 C 
ATOM     35  O   UNL     1       2.999 -12.474  22.352  0.00  0.00    -0.265 OA
ENDBRANCH  24  28
ENDBRANCH   5  20
BRANCH   3  36
ATOM     36  C   UNL     1       4.481  -4.613  27.323  0.00  0.00    +0.003 C 
ATOM     37  C   UNL     1       4.483  -3.129  27.393  0.00  0.00    +0.002 C 
ATOM     38  C   UNL     1       5.654  -2.780  26.461  0.00  0.00    +0.019 C 
ATOM     39  C   UNL     1       5.664  -3.880  25.430  0.00  0.00    +0.092 C 
ATOM     40  N   UNL     1       6.964  -4.484  25.272  0.00  0.00    -0.133 NA
ATOM     41  C   UNL     1       4.668  -4.904  25.867  0.00  0.00    +0.019 C 
ENDBRANCH   3  36
TORSDOF 4
