REMARK  Name = =
REMARK  6 active torsions:
REMARK  status: ('A' for Active; 'I' for Inactive)
REMARK    1  A    between atoms: N_1  and  O_24
REMARK    2  A    between atoms: C_3  and  N_7
REMARK    3  A    between atoms: O_24  and  C_27
REMARK    4  A    between atoms: C_30  and  C_34
REMARK    5  A    between atoms: C_31  and  O_33
REMARK    6  A    between atoms: C_34  and  O_36
REMARK                            x       y       z     vdW  Elec       q    Type
REMARK                         _______ _______ _______ _____ _____    ______ ____
ROOT
ATOM      1  N   UNL     1     -15.296 -43.239  26.664  0.00  0.00    -0.119 NA
ATOM      2  C   UNL     1     -16.325 -43.169  25.664  0.00  0.00    +0.133 C 
ATOM      3  C   UNL     1     -16.900 -41.761  25.699  0.00  0.00    +0.092 C 
ATOM      4  C   UNL     1     -17.507 -41.521  27.035  0.00  0.00    +0.023 C 
ATOM      5  C   UNL     1     -17.267 -42.687  27.988  0.00  0.00    +0.023 C 
ATOM      6  C   UNL     1     -15.812 -43.098  27.975  0.00  0.00    +0.113 C 
ENDROOT
BRANCH   3   7
ATOM      7  N   UNL     1     -17.594 -41.386  24.552  0.00  0.00    -0.307 N 
ATOM      8  C   UNL     1     -18.961 -41.213  24.491  0.00  0.00    +0.047 C 
ATOM      9  C   UNL     1     -19.645 -40.389  25.469  0.00  0.00    +0.015 C 
ATOM     10  C   UNL     1     -21.109 -40.197  25.221  0.00  0.00    +0.001 C 
ATOM     11  C   UNL     1     -21.709 -40.502  24.032  0.00  0.00    +0.000 C 
ATOM     12  C   UNL     1     -20.925 -41.143  22.986  0.00  0.00    +0.001 C 
ATOM     13  C   UNL     1     -19.587 -41.451  23.190  0.00  0.00    +0.009 C 
ATOM     14  C   UNL     1     -18.854 -42.029  22.140  0.00  0.00    -0.019 C 
ATOM     15  C   UNL     1     -19.466 -42.280  20.935  0.00  0.00    -0.004 C 
ATOM     16  C   UNL     1     -20.794 -41.969  20.750  0.00  0.00    -0.000 C 
ATOM     17  C   UNL     1     -21.546 -41.399  21.754  0.00  0.00    +0.000 C 
ATOM     18  C   UNL     1     -17.421 -42.381  22.364  0.00  0.00    +0.048 C 
ATOM     19  C   UNL     1     -16.863 -41.384  23.338  0.00  0.00    +0.095 C 
ATOM     20  C   UNL     1     -23.057 -40.225  23.914  0.00  0.00    +0.000 C 
ATOM     21  C   UNL     1     -23.777 -39.655  24.984  0.00  0.00    +0.000 C 
ATOM     22  C   UNL     1     -23.138 -39.363  26.168  0.00  0.00    +0.000 C 
ATOM     23  C   UNL     1     -21.796 -39.632  26.300  0.00  0.00    +0.000 C 
ENDBRANCH   3   7
BRANCH   1  24
ATOM     24  O   UNL     1     -14.169 -42.521  26.383  0.00  0.00    -0.399 OA
BRANCH  24  27
ATOM     25 CL   UNL     1     -12.735 -40.179  27.442  0.00  0.00    -0.076 Cl
ATOM     26  C   UNL     1     -12.203 -41.837  27.615  0.00  0.00    +0.129 C 
ATOM     27  C   UNL     1     -12.973 -42.826  27.068  0.00  0.00    +0.189 C 
ATOM     28  C   UNL     1     -12.526 -44.119  27.219  0.00  0.00    +0.095 C 
ATOM     29  C   UNL     1     -11.383 -44.440  27.873  0.00  0.00    +0.024 C 
ATOM     30  C   UNL     1     -10.578 -43.452  28.440  0.00  0.00    +0.111 C 
ATOM     31  C   UNL     1     -11.007 -42.154  28.300  0.00  0.00    +0.153 C 
ATOM     32 CL   UNL     1     -13.485 -45.414  26.531  0.00  0.00    -0.079 Cl
BRANCH  31  33
ATOM     33  O   UNL     1     -10.307 -41.090  28.811  0.00  0.00    -0.504 OA
ATOM     34  H   UNL     1     -10.630 -40.218  28.696  0.00  0.00    +0.292 HD
ENDBRANCH  31  33
BRANCH  30  35
ATOM     35  C   UNL     1      -9.356 -43.830  29.135  0.00  0.00    +0.341 C 
ATOM     36  O   UNL     1      -9.112 -45.049  29.302  0.00  0.00    -0.245 OA
BRANCH  35  37
ATOM     37  O   UNL     1      -8.427 -42.952  29.634  0.00  0.00    -0.477 OA
ATOM     38  H   UNL     1      -8.556 -42.029  29.539  0.00  0.00    +0.295 HD
ENDBRANCH  35  37
ENDBRANCH  30  35
ENDBRANCH  24  27
ENDBRANCH   1  24
TORSDOF 6
