REMARK  Name = =
REMARK  0 active torsions:
REMARK  status: ('A' for Active; 'I' for Inactive)
REMARK                            x       y       z     vdW  Elec       q    Type
REMARK                         _______ _______ _______ _____ _____    ______ ____
ROOT
ATOM      1  N   UNL     1      -3.096  -4.877  31.521  0.00  0.00    -0.264 NA
ATOM      2  C   UNL     1      -3.133  -3.545  30.890  0.00  0.00    +0.100 C 
ATOM      3  C   UNL     1      -3.184  -4.262  29.590  0.00  0.00    +0.045 C 
ATOM      4  C   UNL     1      -2.283  -5.229  30.380  0.00  0.00    +0.083 C 
ATOM      5  S   UNL     1      -4.696  -2.924  31.553  0.00  0.00    -0.124 S 
ATOM      6  C   UNL     1      -4.692  -4.035  32.951  0.00  0.00    +0.076 C 
ATOM      7  C   UNL     1      -3.802  -4.939  32.704  0.00  0.00    +0.085 C 
ENDROOT
TORSDOF 0
