REMARK  Name = =
REMARK  0 active torsions:
REMARK  status: ('A' for Active; 'I' for Inactive)
REMARK                            x       y       z     vdW  Elec       q    Type
REMARK                         _______ _______ _______ _____ _____    ______ ____
ROOT
ATOM      1  N   UNL     1      -3.698  -5.184  30.319  0.00  0.00    -0.242 NA
ATOM      2  C   UNL     1      -3.988  -3.830  30.305  0.00  0.00    +0.113 C 
ATOM      3  C   UNL     1      -2.614  -3.359  30.630  0.00  0.00    +0.047 C 
ATOM      4  C   UNL     1      -2.238  -4.790  30.593  0.00  0.00    +0.102 C 
ATOM      5  C   UNL     1      -2.915  -5.788  31.293  0.00  0.00    +0.158 C 
ATOM      6  O   UNL     1      -2.646  -7.154  30.985  0.00  0.00    -0.343 OA
ATOM      7  C   UNL     1      -3.781  -7.848  31.397  0.00  0.00    +0.144 C 
ATOM      8  C   UNL     1      -4.419  -7.036  32.507  0.00  0.00    +0.040 C 
ATOM      9  C   UNL     1      -3.366  -5.928  32.669  0.00  0.00    +0.066 C 
ATOM     10  S   UNL     1      -5.223  -3.312  31.524  0.00  0.00    -0.098 S 
ATOM     11  C   UNL     1      -4.555  -3.705  33.135  0.00  0.00    +0.028 C 
ATOM     12  C   UNL     1      -3.826  -4.801  33.428  0.00  0.00    -0.016 C 
ENDROOT
TORSDOF 0
