REMARK  Name = =
REMARK  5 active torsions:
REMARK  status: ('A' for Active; 'I' for Inactive)
REMARK    1  A    between atoms: C_9  and  O_21
REMARK    2  A    between atoms: C_10  and  C_12
REMARK    3  A    between atoms: C_11  and  O_20
REMARK    4  A    between atoms: C_13  and  O_19
REMARK    5  A    between atoms: C_16  and  O_18
REMARK                            x       y       z     vdW  Elec       q    Type
REMARK                         _______ _______ _______ _____ _____    ______ ____
ROOT
ATOM      1  O   UNL     1      -3.215  -5.571  31.170  0.00  0.00    -0.475 OA
ATOM      2  C   UNL     1      -3.279  -4.164  31.130  0.00  0.00    +0.214 C 
ATOM      3  C   UNL     1      -3.268  -3.745  29.654  0.00  0.00    +0.117 C 
ATOM      4  C   UNL     1      -1.928  -4.204  29.153  0.00  0.00    +0.183 C 
ATOM      5  O   UNL     1      -1.079  -3.468  28.640  0.00  0.00    -0.291 OA
ATOM      6  C   UNL     1      -1.661  -5.623  29.309  0.00  0.00    +0.103 C 
ATOM      7  C   UNL     1      -2.342  -6.267  30.351  0.00  0.00    +0.147 C 
ATOM      8  C   UNL     1      -2.096  -7.619  30.511  0.00  0.00    +0.074 C 
ATOM      9  C   UNL     1      -1.228  -8.310  29.698  0.00  0.00    +0.140 C 
ATOM     10  C   UNL     1      -0.575  -7.662  28.687  0.00  0.00    +0.071 C 
ATOM     11  C   UNL     1      -0.788  -6.282  28.477  0.00  0.00    +0.142 C 
ENDROOT
BRANCH  10  12
ATOM     12  C   UNL     1       0.349  -8.348  27.804  0.00  0.00    +0.043 C 
ATOM     13  C   UNL     1      -0.092  -8.939  26.638  0.00  0.00    +0.134 C 
ATOM     14  C   UNL     1       0.795  -9.592  25.802  0.00  0.00    +0.040 C 
ATOM     15  C   UNL     1       2.136  -9.675  26.101  0.00  0.00    +0.040 C 
ATOM     16  C   UNL     1       2.570  -9.082  27.270  0.00  0.00    +0.134 C 
ATOM     17  C   UNL     1       1.685  -8.431  28.102  0.00  0.00    +0.040 C 
BRANCH  16  18
ATOM     18  O   UNL     1       3.928  -9.165  27.575  0.00  0.00    -0.506 OA
ATOM     19  H   UNL     1       4.512  -9.613  26.995  0.00  0.00    +0.292 HD
ENDBRANCH  16  18
BRANCH  13  20
ATOM     20  O   UNL     1      -1.437  -8.876  26.302  0.00  0.00    -0.506 OA
ATOM     21  H   UNL     1      -2.041  -8.434  26.866  0.00  0.00    +0.292 HD
ENDBRANCH  13  20
ENDBRANCH  10  12
BRANCH  11  22
ATOM     22  O   UNL     1      -0.124  -5.647  27.455  0.00  0.00    -0.505 OA
ATOM     23  H   UNL     1       0.464  -6.129  26.908  0.00  0.00    +0.292 HD
ENDBRANCH  11  22
BRANCH   9  24
ATOM     24  O   UNL     1      -1.043  -9.671  29.936  0.00  0.00    -0.505 OA
ATOM     25  H   UNL     1      -1.503 -10.091  30.636  0.00  0.00    +0.292 HD
ENDBRANCH   9  24
TORSDOF 5
