REMARK  Name = =
REMARK  2 active torsions:
REMARK  status: ('A' for Active; 'I' for Inactive)
REMARK    1  A    between atoms: C_2  and  N_13
REMARK    2  A    between atoms: N_13  and  O_16
REMARK                            x       y       z     vdW  Elec       q    Type
REMARK                         _______ _______ _______ _____ _____    ______ ____
ROOT
ATOM      1  N   UNL     1      -3.286  -4.793  30.114  0.00  0.00    -0.227 NA
ATOM      2  C   UNL     1      -3.003  -3.479  30.431  0.00  0.00    +0.180 C 
ATOM      3  C   UNL     1      -1.726  -3.765  31.158  0.00  0.00    +0.067 C 
ATOM      4  C   UNL     1      -2.023  -5.193  30.873  0.00  0.00    +0.105 C 
ATOM      5  C   UNL     1      -3.264  -5.847  31.023  0.00  0.00    +0.159 C 
ATOM      6  O   UNL     1      -3.398  -7.115  30.396  0.00  0.00    -0.343 OA
ATOM      7  C   UNL     1      -3.824  -8.000  31.327  0.00  0.00    +0.144 C 
ATOM      8  C   UNL     1      -4.032  -7.319  32.648  0.00  0.00    +0.040 C 
ATOM      9  C   UNL     1      -4.228  -5.886  32.128  0.00  0.00    +0.066 C 
ATOM     10  S   UNL     1      -4.164  -2.659  31.552  0.00  0.00    -0.079 S 
ATOM     11  C   UNL     1      -4.061  -3.598  33.102  0.00  0.00    +0.029 C 
ATOM     12  C   UNL     1      -4.099  -4.921  33.206  0.00  0.00    -0.016 C 
ENDROOT
BRANCH   2  13
ATOM     13  N   UNL     1      -2.772  -2.677  29.266  0.00  0.00    -0.144 N 
ATOM     14  C   UNL     1      -2.405  -3.270  28.042  0.00  0.00    +0.329 C 
ATOM     15  O   UNL     1      -2.193  -2.579  26.991  0.00  0.00    -0.263 OA
BRANCH  13  16
ATOM     16  O   UNL     1      -2.903  -1.351  29.340  0.00  0.00    -0.290 OA
ATOM     17  H   UNL     1      -3.158  -1.101  30.242  0.00  0.00    +0.242 HD
ENDBRANCH  13  16
ENDBRANCH   2  13
TORSDOF 2
