REMARK  Name = =
REMARK  4 active torsions:
REMARK  status: ('A' for Active; 'I' for Inactive)
REMARK    1  A    between atoms: C_2  and  N_13
REMARK    2  A    between atoms: C_3  and  N_17
REMARK    3  A    between atoms: N_13  and  O_16
REMARK    4  A    between atoms: N_17  and  N_18
REMARK                            x       y       z     vdW  Elec       q    Type
REMARK                         _______ _______ _______ _____ _____    ______ ____
ROOT
ATOM      1  N   UNL     1      -0.777  -5.806  30.987  0.00  0.00    -0.225 NA
ATOM      2  C   UNL     1      -0.176  -5.186  29.950  0.00  0.00    +0.194 C 
ATOM      3  C   UNL     1      -1.413  -4.273  29.895  0.00  0.00    +0.130 C 
ATOM      4  C   UNL     1      -2.035  -5.661  30.092  0.00  0.00    +0.121 C 
ATOM      5  C   UNL     1      -1.844  -6.551  31.157  0.00  0.00    +0.161 C 
ATOM      6  O   UNL     1      -2.712  -6.491  32.255  0.00  0.00    -0.343 OA
ATOM      7  C   UNL     1      -3.708  -7.411  31.912  0.00  0.00    +0.144 C 
ATOM      8  C   UNL     1      -3.035  -8.549  31.177  0.00  0.00    +0.040 C 
ATOM      9  C   UNL     1      -1.609  -8.020  31.060  0.00  0.00    +0.066 C 
ATOM     10  S   UNL     1       0.030  -6.264  28.535  0.00  0.00    -0.078 S 
ATOM     11  C   UNL     1      -0.258  -7.973  28.865  0.00  0.00    +0.029 C 
ATOM     12  C   UNL     1      -0.911  -8.499  29.884  0.00  0.00    -0.016 C 
ENDROOT
BRANCH   2  13
ATOM     13  N   UNL     1       1.008  -4.441  30.207  0.00  0.00    -0.142 N 
ATOM     14  C   UNL     1       1.691  -3.700  29.210  0.00  0.00    +0.329 C 
ATOM     15  O   UNL     1       1.207  -3.718  28.049  0.00  0.00    -0.263 OA
BRANCH  13  16
ATOM     16  O   UNL     1       1.525  -4.422  31.449  0.00  0.00    -0.290 OA
ATOM     17  H   UNL     1       0.974  -4.961  32.037  0.00  0.00    +0.242 HD
ENDBRANCH  13  16
ENDBRANCH   2  13
BRANCH   3  18
ATOM     18  N   UNL     1      -1.587  -3.695  28.609  0.00  0.00    -0.245 NA
ATOM     19  H   UNL     1      -1.325  -4.376  27.896  0.00  0.00    +0.141 HD
BRANCH  18  20
ATOM     20  N   UNL     1      -2.911  -3.322  28.420  0.00  0.00    -0.270 NA
ATOM     21  H   UNL     1      -3.177  -2.641  29.131  0.00  0.00    +0.137 HD
ATOM     22  H   UNL     1      -3.510  -4.144  28.496  0.00  0.00    +0.137 HD
ENDBRANCH  18  20
ENDBRANCH   3  18
TORSDOF 4
