REMARK  Name = =
REMARK  8 active torsions:
REMARK  status: ('A' for Active; 'I' for Inactive)
REMARK    1  A    between atoms: C_2  and  N_13
REMARK    2  A    between atoms: C_3  and  N_17
REMARK    3  A    between atoms: C_11  and  N_19
REMARK    4  A    between atoms: N_13  and  O_16
REMARK    5  A    between atoms: N_17  and  N_18
REMARK    6  A    between atoms: N_19  and  C_20
REMARK    7  A    between atoms: N_19  and  O_23
REMARK    8  A    between atoms: C_20  and  N_22
REMARK                            x       y       z     vdW  Elec       q    Type
REMARK                         _______ _______ _______ _____ _____    ______ ____
ROOT
ATOM      1  N   UNL     1      -1.657  -5.243  30.912  0.00  0.00    -0.225 NA
ATOM      2  C   UNL     1      -0.957  -4.611  29.892  0.00  0.00    +0.195 C 
ATOM      3  C   UNL     1      -1.636  -5.348  28.780  0.00  0.00    +0.130 C 
ATOM      4  C   UNL     1      -2.277  -6.154  29.850  0.00  0.00    +0.121 C 
ATOM      5  C   UNL     1      -1.725  -6.625  31.053  0.00  0.00    +0.161 C 
ATOM      6  O   UNL     1      -2.626  -7.047  32.069  0.00  0.00    -0.343 OA
ATOM      7  C   UNL     1      -2.561  -8.454  31.947  0.00  0.00    +0.144 C 
ATOM      8  C   UNL     1      -1.098  -8.755  31.801  0.00  0.00    +0.040 C 
ATOM      9  C   UNL     1      -0.536  -7.398  31.396  0.00  0.00    +0.067 C 
ATOM     10  S   UNL     1       0.816  -4.836  29.843  0.00  0.00    -0.061 S 
ATOM     11  C   UNL     1       1.119  -6.605  29.679  0.00  0.00    +0.104 C 
ATOM     12  C   UNL     1       0.503  -7.550  30.368  0.00  0.00    +0.001 C 
ENDROOT
BRANCH   2  13
ATOM     13  N   UNL     1      -1.290  -3.200  29.823  0.00  0.00    -0.142 N 
ATOM     14  C   UNL     1      -2.639  -2.754  29.926  0.00  0.00    +0.329 C 
ATOM     15  O   UNL     1      -2.938  -1.554  29.870  0.00  0.00    -0.263 OA
BRANCH  13  16
ATOM     16  O   UNL     1      -0.322  -2.290  29.659  0.00  0.00    -0.290 OA
ATOM     17  H   UNL     1       0.537  -2.738  29.605  0.00  0.00    +0.242 HD
ENDBRANCH  13  16
ENDBRANCH   2  13
BRANCH   3  18
ATOM     18  N   UNL     1      -0.721  -6.012  27.882  0.00  0.00    -0.245 NA
ATOM     19  H   UNL     1      -1.184  -6.789  27.411  0.00  0.00    +0.141 HD
BRANCH  18  20
ATOM     20  N   UNL     1      -0.329  -5.022  26.939  0.00  0.00    -0.270 NA
ATOM     21  H   UNL     1       0.132  -4.253  27.425  0.00  0.00    +0.137 HD
ATOM     22  H   UNL     1      -1.154  -4.671  26.452  0.00  0.00    +0.137 HD
ENDBRANCH  18  20
ENDBRANCH   3  18
BRANCH  11  23
ATOM     23  N   UNL     1       2.107  -7.019  28.726  0.00  0.00    -0.157 N 
BRANCH  23  24
ATOM     24  C   UNL     1       3.225  -6.210  28.428  0.00  0.00    +0.159 C 
ATOM     25  S   UNL     1       3.348  -4.658  28.902  0.00  0.00    -0.017 S 
BRANCH  24  26
ATOM     26  N   UNL     1       4.296  -6.761  27.683  0.00  0.00    -0.339 N 
ATOM     27  H   UNL     1       4.255  -7.697  27.380  0.00  0.00    +0.144 HD
ATOM     28  H   UNL     1       5.082  -6.208  27.468  0.00  0.00    +0.144 HD
ENDBRANCH  24  26
ENDBRANCH  23  24
BRANCH  23  29
ATOM     29  O   UNL     1       1.979  -8.202  28.093  0.00  0.00    -0.288 OA
ATOM     30  H   UNL     1       1.171  -8.645  28.395  0.00  0.00    +0.242 HD
ENDBRANCH  23  29
ENDBRANCH  11  23
TORSDOF 8
