REMARK  Name = =
REMARK  9 active torsions:
REMARK  status: ('A' for Active; 'I' for Inactive)
REMARK    1  A    between atoms: C_2  and  N_22
REMARK    2  A    between atoms: C_3  and  N_26
REMARK    3  A    between atoms: N_12  and  C_28
REMARK    4  A    between atoms: C_17  and  O_34
REMARK    5  A    between atoms: C_19  and  O_33
REMARK    6  A    between atoms: C_20  and  C_31
REMARK    7  A    between atoms: N_22  and  O_25
REMARK    8  A    between atoms: N_26  and  N_27
REMARK    9  A    between atoms: C_28  and  N_30
REMARK                            x       y       z     vdW  Elec       q    Type
REMARK                         _______ _______ _______ _____ _____    ______ ____
ROOT
ATOM      1  N   UNL     1       0.736  -6.635  30.322  0.00  0.00    -0.225 NA
ATOM      2  C   UNL     1       1.348  -6.127  29.209  0.00  0.00    +0.192 C 
ATOM      3  C   UNL     1       1.986  -4.983  29.875  0.00  0.00    +0.130 C 
ATOM      4  C   UNL     1       1.037  -5.314  31.000  0.00  0.00    +0.120 C 
ATOM      5  C   UNL     1       0.848  -6.548  31.626  0.00  0.00    +0.160 C 
ATOM      6  O   UNL     1       1.858  -7.039  32.464  0.00  0.00    -0.343 OA
ATOM      7  C   UNL     1       1.470  -6.537  33.706  0.00  0.00    +0.144 C 
ATOM      8  C   UNL     1      -0.065  -6.560  33.729  0.00  0.00    +0.039 C 
ATOM      9  C   UNL     1      -0.342  -7.104  32.336  0.00  0.00    +0.076 C 
ATOM     10  S   UNL     1      -0.081  -5.704  28.072  0.00  0.00    -0.083 S 
ATOM     11  C   UNL     1      -1.555  -6.018  29.046  0.00  0.00    +0.156 C 
ATOM     12  N   UNL     1      -1.997  -4.757  29.606  0.00  0.00    -0.142 N 
ATOM     13  O   UNL     1      -2.456  -4.658  30.932  0.00  0.00    -0.114 OA
ATOM     14  O   UNL     1      -1.799  -5.330  31.733  0.00  0.00    -0.199 OA
ATOM     15  C   UNL     1      -1.723  -6.717  31.849  0.00  0.00    +0.166 C 
ATOM     16  C   UNL     1      -2.583  -6.843  33.073  0.00  0.00    +0.041 C 
ATOM     17  C   UNL     1      -3.721  -7.457  33.203  0.00  0.00    +0.134 C 
ATOM     18  C   UNL     1      -4.298  -8.169  32.078  0.00  0.00    +0.069 C 
ATOM     19  C   UNL     1      -3.587  -8.197  30.975  0.00  0.00    +0.123 C 
ATOM     20  C   UNL     1      -2.249  -7.591  30.832  0.00  0.00    +0.140 C 
ATOM     21  C   UNL     1      -2.142  -7.135  29.367  0.00  0.00    +0.051 C 
ENDROOT
BRANCH   2  22
ATOM     22  N   UNL     1       2.287  -6.996  28.530  0.00  0.00    -0.142 N 
ATOM     23  C   UNL     1       2.781  -6.612  27.264  0.00  0.00    +0.329 C 
ATOM     24  O   UNL     1       2.423  -5.531  26.714  0.00  0.00    -0.263 OA
BRANCH  22  25
ATOM     25  O   UNL     1       2.712  -8.165  29.063  0.00  0.00    -0.290 OA
ATOM     26  H   UNL     1       2.293  -8.297  29.928  0.00  0.00    +0.242 HD
ENDBRANCH  22  25
ENDBRANCH   2  22
BRANCH   3  27
ATOM     27  N   UNL     1       3.358  -5.169  30.279  0.00  0.00    -0.245 NA
ATOM     28  H   UNL     1       3.932  -4.475  29.801  0.00  0.00    +0.141 HD
BRANCH  27  29
ATOM     29  N   UNL     1       3.553  -5.037  31.637  0.00  0.00    -0.270 NA
ATOM     30  H   UNL     1       2.985  -5.725  32.131  0.00  0.00    +0.137 HD
ATOM     31  H   UNL     1       3.281  -4.099  31.930  0.00  0.00    +0.137 HD
ENDBRANCH  27  29
ENDBRANCH   3  27
BRANCH  12  32
ATOM     32  C   UNL     1      -1.945  -3.606  28.825  0.00  0.00    +0.158 C 
ATOM     33  S   UNL     1      -2.390  -2.183  29.473  0.00  0.00    -0.017 S 
BRANCH  32  34
ATOM     34  N   UNL     1      -1.513  -3.647  27.491  0.00  0.00    -0.339 N 
ATOM     35  H   UNL     1      -1.484  -2.820  26.957  0.00  0.00    +0.144 HD
ATOM     36  H   UNL     1      -1.238  -4.503  27.089  0.00  0.00    +0.144 HD
ENDBRANCH  32  34
ENDBRANCH  12  32
BRANCH  20  37
ATOM     37  C   UNL     1      -1.360  -8.858  30.849  0.00  0.00    +0.217 C 
ATOM     38  O   UNL     1      -1.822  -9.824  31.402  0.00  0.00    -0.288 OA
ENDBRANCH  20  37
BRANCH  19  39
ATOM     39  O   UNL     1      -4.205  -8.865  29.898  0.00  0.00    -0.509 OA
ATOM     40  H   UNL     1      -5.055  -9.244  30.007  0.00  0.00    +0.292 HD
ENDBRANCH  19  39
BRANCH  17  41
ATOM     41  O   UNL     1      -4.419  -7.443  34.442  0.00  0.00    -0.506 OA
ATOM     42  H   UNL     1      -4.059  -6.987  35.177  0.00  0.00    +0.292 HD
ENDBRANCH  17  41
TORSDOF 9
