REMARK  Name = =
REMARK  3 active torsions:
REMARK  status: ('A' for Active; 'I' for Inactive)
REMARK    1  A    between atoms: C_1  and  C_15
REMARK    2  A    between atoms: C_14  and  C_20
REMARK    3  A    between atoms: C_23  and  N_25
REMARK                            x       y       z     vdW  Elec       q    Type
REMARK                         _______ _______ _______ _____ _____    ______ ____
ROOT
ATOM      1  C   UNL     1       4.797  -2.983  35.694  0.00  0.00    +0.114 C 
ATOM      2  N   UNL     1       3.680  -3.543  36.146  0.00  0.00    -0.243 NA
ATOM      3  C   UNL     1       2.986  -4.412  35.381  0.00  0.00    +0.081 C 
ATOM      4  C   UNL     1       1.874  -4.996  35.931  0.00  0.00    +0.014 C 
ATOM      5  C   UNL     1       1.199  -5.938  35.142  0.00  0.00    +0.001 C 
ATOM      6  C   UNL     1       1.613  -6.274  33.866  0.00  0.00    +0.000 C 
ATOM      7  C   UNL     1       2.718  -5.682  33.343  0.00  0.00    +0.001 C 
ATOM      8  C   UNL     1       3.403  -4.750  34.115  0.00  0.00    +0.018 C 
ATOM      9  C   UNL     1       4.563  -4.182  33.625  0.00  0.00    +0.003 C 
ATOM     10  C   UNL     1       5.256  -3.307  34.407  0.00  0.00    +0.022 C 
ATOM     11  C   UNL     1       0.158  -6.666  35.677  0.00  0.00    +0.000 C 
ATOM     12  C   UNL     1      -0.203  -6.468  36.953  0.00  0.00    -0.000 C 
ATOM     13  C   UNL     1       0.482  -5.523  37.725  0.00  0.00    -0.004 C 
ATOM     14  C   UNL     1       1.528  -4.757  37.257  0.00  0.00    -0.021 C 
ENDROOT
BRANCH   1  15
ATOM     15  C   UNL     1       5.592  -2.039  36.442  0.00  0.00    +0.167 C 
ATOM     16  N   UNL     1       5.330  -1.503  37.596  0.00  0.00    -0.205 NA
ATOM     17  C   UNL     1       6.303  -0.655  38.017  0.00  0.00    +0.218 C 
ATOM     18  N   UNL     1       7.215  -0.694  37.024  0.00  0.00    -0.157 NA
ATOM     19  N   UNL     1       6.810  -1.520  36.066  0.00  0.00    -0.217 N 
ATOM     20  H   UNL     1       7.295  -1.725  35.234  0.00  0.00    +0.176 HD
ENDBRANCH   1  15
BRANCH  14  21
ATOM     21  C   UNL     1       2.044  -3.581  38.040  0.00  0.00    +0.024 C 
ATOM     22  C   UNL     1       3.452  -3.698  38.476  0.00  0.00    +0.006 C 
ATOM     23  C   UNL     1       3.602  -4.459  39.738  0.00  0.00    +0.016 C 
ATOM     24  C   UNL     1       2.258  -4.431  40.381  0.00  0.00    +0.058 C 
ATOM     25  C   UNL     1       1.320  -3.794  39.466  0.00  0.00    +0.020 C 
BRANCH  24  26
ATOM     26  N   UNL     1       2.486  -3.735  41.675  0.00  0.00    -0.272 NA
ATOM     27  C   UNL     1       3.592  -4.440  42.345  0.00  0.00    +0.089 C 
ATOM     28  C   UNL     1       3.931  -3.644  43.600  0.00  0.00    +0.086 C 
ATOM     29  N   UNL     1       2.796  -3.716  44.474  0.00  0.00    -0.295 NA
ATOM     30  C   UNL     1       1.667  -4.408  43.905  0.00  0.00    +0.086 C 
ATOM     31  C   UNL     1       1.331  -3.990  42.500  0.00  0.00    +0.089 C 
ATOM     32  H   UNL     1       2.507  -2.765  44.705  0.00  0.00    +0.123 HD
ENDBRANCH  24  26
ENDBRANCH  14  21
TORSDOF 3
