REMARK  Name = =
REMARK  3 active torsions:
REMARK  status: ('A' for Active; 'I' for Inactive)
REMARK    1  A    between atoms: P_1  and  O_3
REMARK    2  A    between atoms: P_1  and  O_4
REMARK    3  A    between atoms: P_1  and  C_5
REMARK                            x       y       z     vdW  Elec       q    Type
REMARK                         _______ _______ _______ _____ _____    ______ ____
ROOT
ATOM      1  P   UNL     1      51.914 154.967  28.993  0.00  0.00    +0.360 P 
ATOM      2  O   UNL     1      50.551 155.266  28.381  0.00  0.00    -0.253 OA
ENDROOT
BRANCH   1   3
ATOM      3  O   UNL     1      52.818 156.372  28.905  0.00  0.00    -0.321 OA
ATOM      4  H   UNL     1      52.350 157.087  29.363  0.00  0.00    +0.220 HD
ENDBRANCH   1   3
BRANCH   1   5
ATOM      5  O   UNL     1      51.628 154.617  30.635  0.00  0.00    -0.321 OA
ATOM      6  H   UNL     1      51.163 155.361  31.048  0.00  0.00    +0.220 HD
ENDBRANCH   1   5
BRANCH   1   7
ATOM      7  C   UNL     1      52.758 153.663  28.163  0.00  0.00    +0.087 C 
ATOM      8  C   UNL     1      52.377 153.269  26.956  0.00  0.00    +0.008 C 
ENDBRANCH   1   7
TORSDOF 3
