REMARK  Name = =
REMARK  4 active torsions:
REMARK  status: ('A' for Active; 'I' for Inactive)
REMARK    1  A    between atoms: P_1  and  C_5
REMARK    2  A    between atoms: P_1  and  C_7
REMARK    3  A    between atoms: C_7  and  C_8
REMARK    4  A    between atoms: C_8  and  O_10
REMARK                            x       y       z     vdW  Elec       q    Type
REMARK                         _______ _______ _______ _____ _____    ______ ____
ROOT
ATOM      1  C   UNL     1      51.972 152.797  26.287  0.00  0.00    +0.138 C 
ENDROOT
BRANCH   1   2
ATOM      2  C   UNL     1      52.719 151.521  26.163  0.00  0.00    +0.319 C 
ATOM      3  O   UNL     1      53.861 151.477  25.684  0.00  0.00    -0.250 OA
BRANCH   2   4
ATOM      4  O   UNL     1      52.115 150.358  26.594  0.00  0.00    -0.480 OA
ATOM      5  H   UNL     1      51.252 150.385  26.957  0.00  0.00    +0.295 HD
ENDBRANCH   2   4
ENDBRANCH   1   2
BRANCH   1   6
ATOM      6  P   UNL     1      52.722 154.006  27.369  0.00  0.00    -0.022 P 
BRANCH   6   7
ATOM      7  C   UNL     1      51.471 155.002  28.157  0.00  0.00    -0.001 C 
ATOM      8  C   UNL     1      51.833 155.984  28.965  0.00  0.00    +0.000 C 
ENDBRANCH   6   7
ENDBRANCH   1   6
TORSDOF 4
REMARK  Name = =
REMARK  4 active torsions:
REMARK  status: ('A' for Active; 'I' for Inactive)
REMARK    1  A    between atoms: P_1  and  C_5
REMARK    2  A    between atoms: P_1  and  C_7
REMARK    3  A    between atoms: C_7  and  C_8
REMARK    4  A    between atoms: C_8  and  O_10
REMARK                            x       y       z     vdW  Elec       q    Type
REMARK                         _______ _______ _______ _____ _____    ______ ____
ROOT
ATOM      1  O   UNL     1      52.453 153.048  28.546  0.00  0.00    -0.038 OA
ATOM      2  O   UNL     1      53.867 153.245  28.407  0.00  0.00    -0.218 OA
ATOM      3  H   UNL     1      54.276 153.283  29.286  0.00  0.00    +0.256 HD
ENDROOT
TORSDOF 0
REMARK  Name = =
REMARK  4 active torsions:
REMARK  status: ('A' for Active; 'I' for Inactive)
REMARK    1  A    between atoms: P_1  and  C_5
REMARK    2  A    between atoms: P_1  and  C_7
REMARK    3  A    between atoms: C_7  and  C_8
REMARK    4  A    between atoms: C_8  and  O_10
REMARK                            x       y       z     vdW  Elec       q    Type
REMARK                         _______ _______ _______ _____ _____    ______ ____
ROOT
ATOM      1  O   HOH     1      53.745 154.853  26.327  0.00  0.00    -0.410 OA
ATOM      2  H   HOH     0      54.715 154.853  26.327  0.00  0.00    +0.205 HD
ATOM      3  H   HOH     0      53.422 155.717  26.628  0.00  0.00    +0.205 HD
ENDROOT
TORSDOF 0
