REMARK  Name = =
REMARK  3 active torsions:
REMARK  status: ('A' for Active; 'I' for Inactive)
REMARK    1  A    between atoms: C_6  and  N_7
REMARK    2  A    between atoms: N_7  and  O_8
REMARK    3  A    between atoms: C_10  and  O_12
REMARK                            x       y       z     vdW  Elec       q    Type
REMARK                         _______ _______ _______ _____ _____    ______ ____
ROOT
ATOM      1  P   UNL     1      53.215 153.011  26.510  0.00  0.00    +0.000 P 
ENDROOT
TORSDOF 0
REMARK  Name = =
REMARK  3 active torsions:
REMARK  status: ('A' for Active; 'I' for Inactive)
REMARK    1  A    between atoms: C_6  and  N_7
REMARK    2  A    between atoms: N_7  and  O_8
REMARK    3  A    between atoms: C_10  and  O_12
REMARK                            x       y       z     vdW  Elec       q    Type
REMARK                         _______ _______ _______ _____ _____    ______ ____
ROOT
ATOM      1  O   HOH     1      54.648 152.513  26.558  0.00  0.00    -0.253 OA
ATOM      2  H   HOH     0      55.618 152.513  26.558  0.00  0.00    +0.253 HD
ENDROOT
TORSDOF 0
REMARK  Name = =
REMARK  3 active torsions:
REMARK  status: ('A' for Active; 'I' for Inactive)
REMARK    1  A    between atoms: C_6  and  N_7
REMARK    2  A    between atoms: N_7  and  O_8
REMARK    3  A    between atoms: C_10  and  O_12
REMARK                            x       y       z     vdW  Elec       q    Type
REMARK                         _______ _______ _______ _____ _____    ______ ____
ROOT
ATOM      1  O   HOH     1      53.899 154.245  25.742  0.00  0.00    -0.253 OA
ATOM      2  H   HOH     0      54.869 154.245  25.742  0.00  0.00    +0.253 HD
ENDROOT
TORSDOF 0
REMARK  Name = =
REMARK  3 active torsions:
REMARK  status: ('A' for Active; 'I' for Inactive)
REMARK    1  A    between atoms: C_6  and  N_7
REMARK    2  A    between atoms: N_7  and  O_8
REMARK    3  A    between atoms: C_10  and  O_12
REMARK                            x       y       z     vdW  Elec       q    Type
REMARK                         _______ _______ _______ _____ _____    ______ ____
ROOT
ATOM      1  O   HOH     1      52.159 153.791  25.407  0.00  0.00    -0.253 OA
ATOM      2  H   HOH     0      53.129 153.791  25.407  0.00  0.00    +0.253 HD
ENDROOT
TORSDOF 0
REMARK  Name = =
REMARK  3 active torsions:
REMARK  status: ('A' for Active; 'I' for Inactive)
REMARK    1  A    between atoms: C_6  and  N_7
REMARK    2  A    between atoms: N_7  and  O_8
REMARK    3  A    between atoms: C_10  and  O_12
REMARK                            x       y       z     vdW  Elec       q    Type
REMARK                         _______ _______ _______ _____ _____    ______ ____
ROOT
ATOM      1  N   UNL     1      52.207 149.158  25.973  0.00  0.00    -0.266 N 
ATOM      2  H   UNL     1      51.505 149.053  26.656  0.00  0.00    +0.194 HD
ENDROOT
BRANCH   1   4
ATOM      3  C   UNL     1      52.569 151.456  26.383  0.00  0.00    +0.022 C 
ATOM      4  C   UNL     1      53.022 150.308  25.939  0.00  0.00    +0.095 C 
ENDBRANCH   1   4
BRANCH   1   5
ATOM      5  O   UNL     1      52.421 148.194  25.030  0.00  0.00    -0.289 OA
ATOM      6  H   UNL     1      53.146 148.468  24.447  0.00  0.00    +0.244 HD
ENDBRANCH   1   5
TORSDOF 2
REMARK  Name = =
REMARK  3 active torsions:
REMARK  status: ('A' for Active; 'I' for Inactive)
REMARK    1  A    between atoms: C_6  and  N_7
REMARK    2  A    between atoms: N_7  and  O_8
REMARK    3  A    between atoms: C_10  and  O_12
REMARK                            x       y       z     vdW  Elec       q    Type
REMARK                         _______ _______ _______ _____ _____    ______ ____
ROOT
ATOM      1  C   UNL     1      52.833 153.530  28.185  0.00  0.00    +0.121 C 
ATOM      2  C   UNL     1      52.407 154.943  28.260  0.00  0.00    +0.314 C 
ATOM      3  O   UNL     1      52.041 155.375  29.380  0.00  0.00    -0.250 OA
ENDROOT
BRANCH   2   4
ATOM      4  O   UNL     1      52.379 155.824  27.195  0.00  0.00    -0.480 OA
ATOM      5  H   UNL     1      52.645 155.538  26.343  0.00  0.00    +0.295 HD
ENDBRANCH   2   4
TORSDOF 1
