REMARK  Name = =
REMARK  9 active torsions:
REMARK  status: ('A' for Active; 'I' for Inactive)
REMARK    1  A    between atoms: P_1  and  O_2
REMARK    2  A    between atoms: P_1  and  C_4
REMARK    3  A    between atoms: P_1  and  C_8
REMARK    4  A    between atoms: O_3  and  O_12
REMARK    5  A    between atoms: C_5  and  N_6
REMARK    6  A    between atoms: N_6  and  O_7
REMARK    7  A    between atoms: C_8  and  C_9
REMARK    8  A    between atoms: C_9  and  O_11
REMARK    9  A    between atoms: O_12  and  C_13
REMARK                            x       y       z     vdW  Elec       q    Type
REMARK                         _______ _______ _______ _____ _____    ______ ____
ROOT
ATOM      1  P   UNL     1      53.595 152.926  26.138  0.00  0.00    +0.081 P 
ENDROOT
BRANCH   1   2
ATOM      2  O   UNL     1      54.771 153.467  26.830  0.00  0.00    -0.367 OA
ATOM      3  H   UNL     1      55.428 152.763  26.950  0.00  0.00    +0.215 HD
ENDBRANCH   1   2
BRANCH   1   4
ATOM      4  C   UNL     1      53.246 154.609  26.421  0.00  0.00    +0.042 C 
ATOM      5  C   UNL     1      52.599 155.096  27.466  0.00  0.00    +0.097 C 
BRANCH   5   6
ATOM      6  N   UNL     1      52.327 156.450  27.677  0.00  0.00    -0.266 N 
ATOM      7  H   UNL     1      52.363 157.074  26.917  0.00  0.00    +0.194 HD
BRANCH   6   8
ATOM      8  O   UNL     1      52.016 156.917  28.902  0.00  0.00    -0.289 OA
ATOM      9  H   UNL     1      52.022 156.185  29.538  0.00  0.00    +0.244 HD
ENDBRANCH   6   8
ENDBRANCH   5   6
ENDBRANCH   1   4
BRANCH   1  10
ATOM     10  C   UNL     1      54.512 152.626  24.660  0.00  0.00    +0.162 C 
BRANCH  10  11
ATOM     11  C   UNL     1      54.910 153.849  24.000  0.00  0.00    +0.321 C 
ATOM     12  O   UNL     1      55.427 154.798  24.616  0.00  0.00    -0.250 OA
BRANCH  11  13
ATOM     13  O   UNL     1      54.724 154.009  22.620  0.00  0.00    -0.480 OA
ATOM     14  H   UNL     1      54.338 153.320  22.116  0.00  0.00    +0.295 HD
ENDBRANCH  11  13
ENDBRANCH  10  11
ENDBRANCH   1  10
TORSDOF 7
REMARK  Name = =
REMARK  9 active torsions:
REMARK  status: ('A' for Active; 'I' for Inactive)
REMARK    1  A    between atoms: P_1  and  O_2
REMARK    2  A    between atoms: P_1  and  C_4
REMARK    3  A    between atoms: P_1  and  C_8
REMARK    4  A    between atoms: O_3  and  O_12
REMARK    5  A    between atoms: C_5  and  N_6
REMARK    6  A    between atoms: N_6  and  O_7
REMARK    7  A    between atoms: C_8  and  C_9
REMARK    8  A    between atoms: C_9  and  O_11
REMARK    9  A    between atoms: O_12  and  C_13
REMARK                            x       y       z     vdW  Elec       q    Type
REMARK                         _______ _______ _______ _____ _____    ______ ____
ROOT
ATOM      1  C   UNL     1      52.702 150.465  26.072  0.00  0.00    +0.182 C 
ATOM      2  C   UNL     1      53.804 150.303  25.371  0.00  0.00    +0.041 C 
ATOM      3  C   UNL     1      54.045 149.053  24.632  0.00  0.00    +0.003 C 
ATOM      4  C   UNL     1      53.155 148.120  24.695  0.00  0.00    +0.000 C 
ATOM      5  C   UNL     1      51.919 148.190  25.442  0.00  0.00    +0.003 C 
ATOM      6  C   UNL     1      51.652 149.442  26.157  0.00  0.00    +0.041 C 
ENDROOT
BRANCH   1   7
ATOM      7  O   UNL     1      52.589 151.685  26.735  0.00  0.00    -0.337 OA
BRANCH   7   8
ATOM      8  O   UNL     1      51.953 152.673  25.675  0.00  0.00    -0.201 OA
ATOM      9  H   UNL     1      51.845 153.550  26.075  0.00  0.00    +0.267 HD
ENDBRANCH   7   8
ENDBRANCH   1   7
TORSDOF 2
