REMARK  Name = =
REMARK  4 active torsions:
REMARK  status: ('A' for Active; 'I' for Inactive)
REMARK    1  A    between atoms: C_5  and  N_6
REMARK    2  A    between atoms: C_5  and  O_8
REMARK    3  A    between atoms: N_6  and  O_7
REMARK    4  A    between atoms: C_10  and  O_12
REMARK                            x       y       z     vdW  Elec       q    Type
REMARK                         _______ _______ _______ _____ _____    ______ ____
ROOT
ATOM      1  P   UNL     1      52.936 152.662  26.478  0.00  0.00    +0.000 P 
ENDROOT
TORSDOF 0
REMARK  Name = =
REMARK  4 active torsions:
REMARK  status: ('A' for Active; 'I' for Inactive)
REMARK    1  A    between atoms: C_5  and  N_6
REMARK    2  A    between atoms: C_5  and  O_8
REMARK    3  A    between atoms: N_6  and  O_7
REMARK    4  A    between atoms: C_10  and  O_12
REMARK                            x       y       z     vdW  Elec       q    Type
REMARK                         _______ _______ _______ _____ _____    ______ ____
ROOT
ATOM      1  O   HOH     1      54.299 152.809  27.145  0.00  0.00    -0.253 OA
ATOM      2  H   HOH     0      55.269 152.809  27.145  0.00  0.00    +0.253 HD
ENDROOT
TORSDOF 0
REMARK  Name = =
REMARK  4 active torsions:
REMARK  status: ('A' for Active; 'I' for Inactive)
REMARK    1  A    between atoms: C_5  and  N_6
REMARK    2  A    between atoms: C_5  and  O_8
REMARK    3  A    between atoms: N_6  and  O_7
REMARK    4  A    between atoms: C_10  and  O_12
REMARK                            x       y       z     vdW  Elec       q    Type
REMARK                         _______ _______ _______ _____ _____    ______ ____
ROOT
ATOM      1  O   HOH     1      51.783 153.379  25.417  0.00  0.00    -0.253 OA
ATOM      2  H   HOH     0      52.753 153.379  25.417  0.00  0.00    +0.253 HD
ENDROOT
TORSDOF 0
REMARK  Name = =
REMARK  4 active torsions:
REMARK  status: ('A' for Active; 'I' for Inactive)
REMARK    1  A    between atoms: C_5  and  N_6
REMARK    2  A    between atoms: C_5  and  O_8
REMARK    3  A    between atoms: N_6  and  O_7
REMARK    4  A    between atoms: C_10  and  O_12
REMARK                            x       y       z     vdW  Elec       q    Type
REMARK                         _______ _______ _______ _____ _____    ______ ____
ROOT
ATOM      1  C   UNL     1      53.061 151.160  25.560  0.00  0.00    +0.062 C 
ATOM      2  C   UNL     1      52.388 150.148  26.010  0.00  0.00    +0.219 C 
ENDROOT
BRANCH   2   3
ATOM      3  N   UNL     1      52.411 148.861  25.343  0.00  0.00    -0.237 N 
ATOM      4  H   UNL     1      51.606 148.568  24.858  0.00  0.00    +0.197 HD
BRANCH   3   5
ATOM      5  O   UNL     1      53.469 148.061  25.358  0.00  0.00    -0.287 OA
ATOM      6  H   UNL     1      54.181 148.476  25.869  0.00  0.00    +0.244 HD
ENDBRANCH   3   5
ENDBRANCH   2   3
BRANCH   2   7
ATOM      7  O   UNL     1      51.576 150.110  27.136  0.00  0.00    -0.492 OA
ATOM      8  H   UNL     1      51.470 150.877  27.663  0.00  0.00    +0.294 HD
ENDBRANCH   2   7
TORSDOF 3
REMARK  Name = =
REMARK  4 active torsions:
REMARK  status: ('A' for Active; 'I' for Inactive)
REMARK    1  A    between atoms: C_5  and  N_6
REMARK    2  A    between atoms: C_5  and  O_8
REMARK    3  A    between atoms: N_6  and  O_7
REMARK    4  A    between atoms: C_10  and  O_12
REMARK                            x       y       z     vdW  Elec       q    Type
REMARK                         _______ _______ _______ _____ _____    ______ ____
ROOT
ATOM      1  C   UNL     1      51.909 152.509  27.941  0.00  0.00    +0.121 C 
ATOM      2  C   UNL     1      52.135 153.705  28.841  0.00  0.00    +0.314 C 
ATOM      3  O   UNL     1      53.152 154.426  28.675  0.00  0.00    -0.250 OA
ENDROOT
BRANCH   2   4
ATOM      4  O   UNL     1      51.244 154.018  29.843  0.00  0.00    -0.480 OA
ATOM      5  H   UNL     1      50.483 153.488  29.976  0.00  0.00    +0.295 HD
ENDBRANCH   2   4
TORSDOF 1
REMARK  Name = =
REMARK  4 active torsions:
REMARK  status: ('A' for Active; 'I' for Inactive)
REMARK    1  A    between atoms: C_5  and  N_6
REMARK    2  A    between atoms: C_5  and  O_8
REMARK    3  A    between atoms: N_6  and  O_7
REMARK    4  A    between atoms: C_10  and  O_12
REMARK                            x       y       z     vdW  Elec       q    Type
REMARK                         _______ _______ _______ _____ _____    ______ ____
ROOT
ATOM      1  O   UNL     1      53.085 154.299  26.563  0.00  0.00    -0.287 OA
ATOM      2  C   UNL     1      53.772 155.188  25.709  0.00  0.00    +0.196 C 
ATOM      3  C   UNL     1      54.572 154.705  24.813  0.00  0.00    +0.042 C 
ATOM      4  C   UNL     1      55.273 155.616  23.942  0.00  0.00    +0.003 C 
ATOM      5  C   UNL     1      55.088 156.905  24.070  0.00  0.00    +0.000 C 
ATOM      6  C   UNL     1      54.205 157.541  25.052  0.00  0.00    +0.003 C 
ATOM      7  C   UNL     1      53.496 156.602  25.936  0.00  0.00    +0.042 C 
ENDROOT
TORSDOF 0
