REMARK  Name = =
REMARK  5 active torsions:
REMARK  status: ('A' for Active; 'I' for Inactive)
REMARK    1  A    between atoms: O_2  and  O_3
REMARK    2  A    between atoms: C_5  and  N_6
REMARK    3  A    between atoms: C_5  and  O_8
REMARK    4  A    between atoms: N_6  and  O_7
REMARK    5  A    between atoms: C_11  and  O_13
REMARK                            x       y       z     vdW  Elec       q    Type
REMARK                         _______ _______ _______ _____ _____    ______ ____
ROOT
ATOM      1  P   UNL     1      52.929 153.336  26.245  0.00  0.00    +0.000 P 
ENDROOT
TORSDOF 0
REMARK  Name = =
REMARK  5 active torsions:
REMARK  status: ('A' for Active; 'I' for Inactive)
REMARK    1  A    between atoms: O_2  and  O_3
REMARK    2  A    between atoms: C_5  and  N_6
REMARK    3  A    between atoms: C_5  and  O_8
REMARK    4  A    between atoms: N_6  and  O_7
REMARK    5  A    between atoms: C_11  and  O_13
REMARK                            x       y       z     vdW  Elec       q    Type
REMARK                         _______ _______ _______ _____ _____    ______ ____
ROOT
ATOM      1  O   UNL     1      51.616 153.836  25.935  0.00  0.00    -0.253 OA
ATOM      2  H   UNL     1      51.138 153.986  25.104  0.00  0.00    +0.253 HD
ENDROOT
BRANCH   1   3
ATOM      3  O   UNL     1      51.590 152.392  26.265  0.00  0.00    -0.253 OA
ATOM      4  H   UNL     1      52.068 152.242  27.096  0.00  0.00    +0.253 HD
ENDBRANCH   1   3
TORSDOF 1
REMARK  Name = =
REMARK  5 active torsions:
REMARK  status: ('A' for Active; 'I' for Inactive)
REMARK    1  A    between atoms: O_2  and  O_3
REMARK    2  A    between atoms: C_5  and  N_6
REMARK    3  A    between atoms: C_5  and  O_8
REMARK    4  A    between atoms: N_6  and  O_7
REMARK    5  A    between atoms: C_11  and  O_13
REMARK                            x       y       z     vdW  Elec       q    Type
REMARK                         _______ _______ _______ _____ _____    ______ ____
ROOT
ATOM      1  C   UNL     1      53.543 154.669  25.403  0.00  0.00    +0.063 C 
ATOM      2  C   UNL     1      54.093 154.797  24.206  0.00  0.00    +0.232 C 
ENDROOT
BRANCH   2   3
ATOM      3  N   UNL     1      54.217 153.621  23.437  0.00  0.00    -0.236 N 
ATOM      4  H   UNL     1      53.475 152.975  23.391  0.00  0.00    +0.197 HD
BRANCH   3   5
ATOM      5  O   UNL     1      55.355 153.393  22.770  0.00  0.00    -0.287 OA
ATOM      6  H   UNL     1      55.973 154.124  22.925  0.00  0.00    +0.244 HD
ENDBRANCH   3   5
ENDBRANCH   2   3
BRANCH   2   7
ATOM      7  O   UNL     1      54.551 155.961  23.649  0.00  0.00    -0.407 OA
ATOM      8  I   UNL     1      55.459 157.474  24.645  0.00  0.00    +0.194 I 
ENDBRANCH   2   7
TORSDOF 3
REMARK  Name = =
REMARK  5 active torsions:
REMARK  status: ('A' for Active; 'I' for Inactive)
REMARK    1  A    between atoms: O_2  and  O_3
REMARK    2  A    between atoms: C_5  and  N_6
REMARK    3  A    between atoms: C_5  and  O_8
REMARK    4  A    between atoms: N_6  and  O_7
REMARK    5  A    between atoms: C_11  and  O_13
REMARK                            x       y       z     vdW  Elec       q    Type
REMARK                         _______ _______ _______ _____ _____    ______ ____
ROOT
ATOM      1  C   UNL     1      54.328 152.192  25.961  0.00  0.00    +0.121 C 
ATOM      2  C   UNL     1      53.868 151.002  25.183  0.00  0.00    +0.314 C 
ATOM      3  O   UNL     1      54.311 150.861  24.015  0.00  0.00    -0.250 OA
ENDROOT
BRANCH   2   4
ATOM      4  O   UNL     1      52.971 150.082  25.755  0.00  0.00    -0.480 OA
ATOM      5  H   UNL     1      52.658 150.214  26.628  0.00  0.00    +0.295 HD
ENDBRANCH   2   4
TORSDOF 1
REMARK  Name = =
REMARK  5 active torsions:
REMARK  status: ('A' for Active; 'I' for Inactive)
REMARK    1  A    between atoms: O_2  and  O_3
REMARK    2  A    between atoms: C_5  and  N_6
REMARK    3  A    between atoms: C_5  and  O_8
REMARK    4  A    between atoms: N_6  and  O_7
REMARK    5  A    between atoms: C_11  and  O_13
REMARK                            x       y       z     vdW  Elec       q    Type
REMARK                         _______ _______ _______ _____ _____    ______ ____
ROOT
ATOM      1  O   UNL     1      52.997 153.633  27.938  0.00  0.00    -0.287 OA
ATOM      2  C   UNL     1      52.417 154.736  28.552  0.00  0.00    +0.196 C 
ATOM      3  C   UNL     1      51.581 154.535  29.544  0.00  0.00    +0.042 C 
ATOM      4  C   UNL     1      50.952 155.636  30.215  0.00  0.00    +0.003 C 
ATOM      5  C   UNL     1      51.187 156.869  29.867  0.00  0.00    +0.000 C 
ATOM      6  C   UNL     1      52.106 157.215  28.769  0.00  0.00    +0.003 C 
ATOM      7  C   UNL     1      52.753 156.074  28.077  0.00  0.00    +0.042 C 
ENDROOT
TORSDOF 0
