REMARK  Name = =
REMARK  4 active torsions:
REMARK  status: ('A' for Active; 'I' for Inactive)
REMARK    1  A    between atoms: N_1  and  C_11
REMARK    2  A    between atoms: C_6  and  O_21
REMARK    3  A    between atoms: C_11  and  N_17
REMARK    4  A    between atoms: C_18  and  O_20
REMARK                            x       y       z     vdW  Elec       q    Type
REMARK                         _______ _______ _______ _____ _____    ______ ____
ROOT
ATOM      1  N   UNL     1      52.527 157.036  27.833  0.00  0.00    -0.229 N 
ATOM      2  C   UNL     1      52.641 155.821  27.223  0.00  0.00    +0.164 A 
ATOM      3  N   UNL     1      51.930 154.696  27.433  0.00  0.00    -0.197 NA
ATOM      4  C   UNL     1      52.197 153.586  26.721  0.00  0.00    +0.217 A 
ATOM      5  N   UNL     1      53.181 153.635  25.806  0.00  0.00    -0.178 NA
ATOM      6  C   UNL     1      53.927 154.711  25.544  0.00  0.00    +0.245 A 
ATOM      7  C   UNL     1      53.650 155.861  26.282  0.00  0.00    +0.168 A 
ATOM      8  N   UNL     1      54.144 157.095  26.323  0.00  0.00    -0.220 NA
ATOM      9  C   UNL     1      53.471 157.796  27.253  0.00  0.00    +0.171 C 
ATOM     10  N   UNL     1      51.449 152.369  26.927  0.00  0.00    -0.327 N 
ATOM     11  H   UNL     1      50.730 152.341  27.599  0.00  0.00    +0.145 HD
ATOM     12  H   UNL     1      51.658 151.567  26.396  0.00  0.00    +0.145 HD
ENDROOT
BRANCH   1  13
ATOM     13  C   UNL     1      51.577 157.382  28.879  0.00  0.00    +0.177 C 
ATOM     14  N   UNL     1      52.348 157.941  29.973  0.00  0.00    -0.256 NA
ATOM     15  C   UNL     1      51.529 158.559  30.962  0.00  0.00    +0.145 C 
ATOM     16  N   UNL     1      50.923 159.779  30.442  0.00  0.00    -0.284 NA
ATOM     17  C   UNL     1      51.101 159.789  29.017  0.00  0.00    +0.075 C 
ATOM     18  C   UNL     1      50.625 158.469  28.430  0.00  0.00    +0.071 C 
ATOM     19  H   UNL     1      52.989 158.639  29.597  0.00  0.00    +0.127 HD
ATOM     20  H   UNL     1      51.378 160.594  30.854  0.00  0.00    +0.125 HD
BRANCH  13  21
ATOM     21  N   UNL     1      50.844 156.201  29.289  0.00  0.00    -0.246 N 
ATOM     22  C   UNL     1      51.522 155.156  29.970  0.00  0.00    +0.400 C 
ATOM     23  O   UNL     1      52.743 155.269  30.206  0.00  0.00    -0.227 OA
ATOM     24  H   UNL     1      49.882 156.124  29.096  0.00  0.00    +0.155 HD
BRANCH  22  25
ATOM     25  O   UNL     1      50.849 153.997  30.383  0.00  0.00    -0.466 OA
ATOM     26  H   UNL     1      49.933 153.901  30.211  0.00  0.00    +0.297 HD
ENDBRANCH  22  25
ENDBRANCH  13  21
ENDBRANCH   1  13
BRANCH   6  27
ATOM     27  O   UNL     1      54.935 154.770  24.611  0.00  0.00    -0.491 OA
ATOM     28  H   UNL     1      55.145 154.014  24.099  0.00  0.00    +0.294 HD
ENDBRANCH   6  27
TORSDOF 4
