MODEL 1
REMARK VINA RESULT:    -8.938      0.000      0.000
REMARK INTER + INTRA:         -13.928
REMARK INTER:                 -12.072
REMARK INTRA:                  -1.855
REMARK UNBOUND:                -1.855
REMARK  Name = =
REMARK  6 active torsions:
REMARK  status: ('A' for Active; 'I' for Inactive)
REMARK    1  A    between atoms: N_1  and  N_11
REMARK    2  A    between atoms: C_7  and  C_20
REMARK    3  A    between atoms: C_21  and  C_23
REMARK    4  A    between atoms: C_25  and  C_29
REMARK    5  A    between atoms: C_26  and  O_32
REMARK    6  A    between atoms: O_32  and  C_33
REMARK                            x       y       z     vdW  Elec       q    Type
REMARK                         _______ _______ _______ _____ _____    ______ ____
ROOT
ATOM      1  N   UNL     1      -2.541  -7.270  31.519  0.00  0.00    -0.179 N 
ATOM      2  C   UNL     1      -3.212  -6.088  31.935  0.00  0.00    +0.066 C 
ATOM      3  C   UNL     1      -3.928  -6.322  33.095  0.00  0.00    +0.002 C 
ATOM      4  C   UNL     1      -4.682  -5.343  33.734  0.00  0.00    -0.003 C 
ATOM      5  C   UNL     1      -4.698  -4.103  33.175  0.00  0.00    -0.001 C 
ATOM      6  C   UNL     1      -4.007  -3.790  32.017  0.00  0.00    -0.003 C 
ATOM      7  C   UNL     1      -3.265  -4.790  31.400  0.00  0.00    -0.007 C 
ATOM      8  C   UNL     1      -3.755  -7.750  33.510  0.00  0.00    +0.115 C 
ATOM      9  C   UNL     1      -2.877  -8.296  32.490  0.00  0.00    +0.250 C 
ATOM     10  O   UNL     1      -2.451  -9.472  32.422  0.00  0.00    -0.273 OA
ENDROOT
BRANCH   1  11
ATOM     11  N   UNL     1      -1.696  -7.485  30.430  0.00  0.00    -0.172 N 
ATOM     12  C   UNL     1      -0.388  -7.101  30.432  0.00  0.00    +0.174 C 
ATOM     13  N   UNL     1       0.415  -6.463  31.300  0.00  0.00    -0.206 NA
ATOM     14  C   UNL     1       1.708  -6.199  31.065  0.00  0.00    +0.200 C 
ATOM     15  N   UNL     1       2.247  -6.591  29.888  0.00  0.00    -0.221 NA
ATOM     16  C   UNL     1       1.520  -7.234  28.959  0.00  0.00    +0.123 C 
ATOM     17  C   UNL     1       0.198  -7.492  29.225  0.00  0.00    +0.135 C 
ATOM     18  N   UNL     1      -0.803  -8.102  28.546  0.00  0.00    -0.222 NA
ATOM     19  C   UNL     1      -1.937  -8.093  29.274  0.00  0.00    +0.187 C 
ENDBRANCH   1  11
BRANCH   7  20
ATOM     20  C   UNL     1      -2.508  -4.474  30.180  0.00  0.00    +0.028 C 
ATOM     21  C   UNL     1      -2.481  -3.067  29.730  0.00  0.00    +0.027 C 
ATOM     22  C   UNL     1      -3.106  -4.145  28.888  0.00  0.00    +0.009 C 
BRANCH  21  23
ATOM     23  C   UNL     1      -1.307  -2.413  29.149  0.00  0.00    -0.022 C 
ATOM     24  C   UNL     1      -0.066  -3.048  29.244  0.00  0.00    -0.001 C 
ATOM     25  C   UNL     1       1.090  -2.543  28.700  0.00  0.00    +0.035 C 
ATOM     26  C   UNL     1       0.984  -1.323  28.018  0.00  0.00    +0.149 C 
ATOM     27  C   UNL     1      -0.219  -0.690  27.917  0.00  0.00    +0.037 C 
ATOM     28  C   UNL     1      -1.369  -1.227  28.478  0.00  0.00    -0.001 C 
BRANCH  25  29
ATOM     29  C   UNL     1       2.374  -3.159  28.802  0.00  0.00    +0.009 C 
ATOM     30  C   UNL     1       3.035  -3.906  27.992  0.00  0.00    +0.036 C 
ATOM     31  I   UNL     1       2.542  -4.600  26.095  0.00  0.00    -0.042 I 
ENDBRANCH  25  29
BRANCH  26  32
ATOM     32  O   UNL     1       2.140  -0.776  27.448  0.00  0.00    -0.417 OA
BRANCH  32  33
ATOM     33  C   UNL     1       2.200  -0.546  26.089  0.00  0.00    +0.423 C 
ATOM     34  O   UNL     1       1.976   0.582  25.591  0.00  0.00    -0.237 OA
ENDBRANCH  32  33
ENDBRANCH  26  32
ENDBRANCH  21  23
ENDBRANCH   7  20
TORSDOF 6
ENDMDL
