REMARK  Name = =
REMARK  2 active torsions:
REMARK  status: ('A' for Active; 'I' for Inactive)
REMARK    1  A    between atoms: C_7  and  C_11
REMARK    2  A    between atoms: N_12  and  N_13
REMARK                            x       y       z     vdW  Elec       q    Type
REMARK                         _______ _______ _______ _____ _____    ______ ____
ROOT
ATOM      1  C   UNL     1     -12.233 -42.750  27.641  0.00  0.00    +0.135 C 
ATOM      2  C   UNL     1     -12.826 -43.585  28.550  0.00  0.00    +0.013 C 
ATOM      3  C   UNL     1     -14.280 -43.808  28.553  0.00  0.00    +0.033 C 
ATOM      4  C   UNL     1     -15.072 -43.053  27.554  0.00  0.00    +0.052 C 
ATOM      5  C   UNL     1     -14.293 -42.605  26.351  0.00  0.00    +0.206 C 
ATOM      6  O   UNL     1     -13.020 -42.101  26.705  0.00  0.00    -0.476 OA
ATOM      7  C   UNL     1     -12.031 -44.228  29.479  0.00  0.00    +0.020 C 
ATOM      8  C   UNL     1     -10.654 -44.023  29.482  0.00  0.00    +0.001 C 
ATOM      9  C   UNL     1     -10.080 -43.190  28.573  0.00  0.00    +0.003 C 
ATOM     10  C   UNL     1     -10.842 -42.541  27.642  0.00  0.00    +0.037 C 
ENDROOT
BRANCH   7  11
ATOM     11  C   UNL     1     -12.553 -45.135  30.484  0.00  0.00    +0.117 C 
ATOM     12  N   UNL     1     -13.788 -45.186  30.748  0.00  0.00    -0.187 NA
BRANCH  12  13
ATOM     13  N   UNL     1     -14.273 -46.061  31.714  0.00  0.00    -0.282 N 
ATOM     14  H   UNL     1     -15.237 -46.092  31.911  0.00  0.00    +0.164 HD
ATOM     15  H   UNL     1     -13.652 -46.650  32.201  0.00  0.00    +0.164 HD
ENDBRANCH  12  13
ENDBRANCH   7  11
TORSDOF 2
