REMARK  Name = =
REMARK  12 active torsions:
REMARK  status: ('A' for Active; 'I' for Inactive)
REMARK    1  A    between atoms: C_1  and  C_2
REMARK    2  A    between atoms: C_1  and  C_5
REMARK    3  A    between atoms: C_1  and  C_18
REMARK    4  A    between atoms: C_5  and  C_13
REMARK    5  A    between atoms: N_6  and  N_17
REMARK    6  A    between atoms: C_18  and  C_20
REMARK    7  A    between atoms: C_20  and  O_22
REMARK    8  A    between atoms: O_22  and  N_23
REMARK    9  A    between atoms: N_23  and  N_26
REMARK   10  A    between atoms: C_24  and  C_30
REMARK   11  A    between atoms: C_27  and  O_29
REMARK   12  A    between atoms: C_30  and  O_32
REMARK                            x       y       z     vdW  Elec       q    Type
REMARK                         _______ _______ _______ _____ _____    ______ ____
ROOT
ATOM      1  C   UNL     1     -12.820 -43.418  30.923  0.00  0.00    +0.167 C 
ENDROOT
BRANCH   1   2
ATOM      2  C   UNL     1     -13.734 -44.487  31.289  0.00  0.00    +0.164 C 
ATOM      3  O   UNL     1     -14.895 -44.140  31.699  0.00  0.00    -0.295 OA
ATOM      4  C   UNL     1     -13.571 -45.949  31.277  0.00  0.00    +0.073 C 
ENDBRANCH   1   2
BRANCH   1   5
ATOM      5  C   UNL     1     -11.537 -43.474  31.615  0.00  0.00    +0.090 C 
ATOM      6  N   UNL     1     -11.407 -42.635  32.625  0.00  0.00    -0.192 NA
BRANCH   5  13
ATOM      7  C   UNL     1      -8.081 -44.943  31.447  0.00  0.00    +0.135 C 
ATOM      8  C   UNL     1      -9.125 -44.098  31.796  0.00  0.00    +0.013 C 
ATOM      9  C   UNL     1      -8.919 -42.915  32.648  0.00  0.00    +0.033 C 
ATOM     10  C   UNL     1      -7.550 -42.872  33.246  0.00  0.00    +0.052 C 
ATOM     11  C   UNL     1      -6.454 -43.371  32.369  0.00  0.00    +0.206 C 
ATOM     12  O   UNL     1      -6.766 -44.677  31.886  0.00  0.00    -0.476 OA
ATOM     13  C   UNL     1     -10.429 -44.383  31.338  0.00  0.00    +0.015 C 
ATOM     14  C   UNL     1     -10.606 -45.502  30.557  0.00  0.00    +0.001 C 
ATOM     15  C   UNL     1      -9.531 -46.324  30.232  0.00  0.00    +0.003 C 
ATOM     16  C   UNL     1      -8.264 -46.061  30.666  0.00  0.00    +0.037 C 
ENDBRANCH   5  13
BRANCH   6  17
ATOM     17  N   UNL     1     -12.383 -41.730  32.986  0.00  0.00    -0.282 N 
ATOM     18  H   UNL     1     -12.236 -41.125  33.749  0.00  0.00    +0.164 HD
ATOM     19  H   UNL     1     -13.227 -41.689  32.481  0.00  0.00    +0.164 HD
ENDBRANCH   6  17
ENDBRANCH   1   5
BRANCH   1  20
ATOM     20  C   UNL     1     -12.685 -43.135  29.471  0.00  0.00    +0.262 C 
ATOM     21  O   UNL     1     -11.579 -42.709  29.043  0.00  0.00    -0.284 OA
BRANCH  20  22
ATOM     22  C   UNL     1     -13.764 -43.315  28.513  0.00  0.00    +0.400 C 
ATOM     23  O   UNL     1     -14.307 -44.430  28.337  0.00  0.00    -0.239 OA
BRANCH  22  24
ATOM     24  O   UNL     1     -14.224 -42.248  27.763  0.00  0.00    -0.318 OA
BRANCH  24  25
ATOM     25  N   UNL     1     -15.206 -42.280  26.842  0.00  0.00    -0.028 N 
ATOM     26  C   UNL     1     -16.564 -42.277  27.201  0.00  0.00    +0.374 C 
ATOM     27  O   UNL     1     -17.425 -42.348  26.252  0.00  0.00    -0.258 OA
BRANCH  25  28
ATOM     28  N   UNL     1     -14.854 -42.294  25.490  0.00  0.00    -0.163 N 
ATOM     29  C   UNL     1     -14.251 -43.389  24.825  0.00  0.00    +0.417 C 
ATOM     30  O   UNL     1     -14.007 -44.438  25.484  0.00  0.00    -0.225 OA
ATOM     31  H   UNL     1     -15.039 -41.484  24.962  0.00  0.00    +0.180 HD
BRANCH  29  32
ATOM     32  O   UNL     1     -13.915 -43.361  23.480  0.00  0.00    -0.465 OA
ATOM     33  H   UNL     1     -14.086 -42.594  22.970  0.00  0.00    +0.297 HD
ENDBRANCH  29  32
ENDBRANCH  25  28
BRANCH  26  34
ATOM     34  C   UNL     1     -17.102 -42.202  28.544  0.00  0.00    +0.397 C 
ATOM     35  O   UNL     1     -16.350 -41.902  29.497  0.00  0.00    -0.240 OA
BRANCH  34  36
ATOM     36  O   UNL     1     -18.428 -42.444  28.869  0.00  0.00    -0.474 OA
ATOM     37  H   UNL     1     -19.041 -42.673  28.198  0.00  0.00    +0.296 HD
ENDBRANCH  34  36
ENDBRANCH  26  34
ENDBRANCH  24  25
ENDBRANCH  22  24
ENDBRANCH  20  22
ENDBRANCH   1  20
TORSDOF 12
