REMARK  Name = =
REMARK  6 active torsions:
REMARK  status: ('A' for Active; 'I' for Inactive)
REMARK    1  A    between atoms: C_1  and  C_7
REMARK    2  A    between atoms: C_1  and  S_22
REMARK    3  A    between atoms: C_7  and  C_16
REMARK    4  A    between atoms: C_18  and  O_21
REMARK    5  A    between atoms: C_23  and  C_27
REMARK    6  A    between atoms: C_24  and  O_32
REMARK                            x       y       z     vdW  Elec       q    Type
REMARK                         _______ _______ _______ _____ _____    ______ ____
ROOT
ATOM      1  C   UNL     1     -10.378 -44.317  31.405  0.00  0.00    +0.206 C 
ATOM      2  O   UNL     1      -9.741 -45.409  31.972  0.00  0.00    -0.437 OA
ATOM      3  C   UNL     1      -9.541 -46.466  31.071  0.00  0.00    +0.342 C 
ATOM      4  O   UNL     1      -9.030 -47.569  31.386  0.00  0.00    -0.245 OA
ATOM      5  C   UNL     1     -10.036 -45.982  29.807  0.00  0.00    +0.082 C 
ATOM      6  C   UNL     1     -10.504 -44.760  29.960  0.00  0.00    +0.031 C 
ENDROOT
BRANCH   1   7
ATOM      7  C   UNL     1      -9.638 -43.059  31.516  0.00  0.00    +0.166 C 
ATOM      8  S   UNL     1     -10.804 -41.761  32.233  0.00  0.00    -0.113 S 
ATOM      9  C   UNL     1      -9.785 -41.351  33.660  0.00  0.00    +0.081 C 
ATOM     10  C   UNL     1      -9.002 -42.627  33.769  0.00  0.00    +0.107 C 
ATOM     11  N   UNL     1      -8.546 -42.931  32.411  0.00  0.00    -0.259 N 
ATOM     12  C   UNL     1      -7.173 -43.020  32.195  0.00  0.00    +0.304 C 
ATOM     13  O   UNL     1      -6.366 -42.869  33.178  0.00  0.00    -0.265 OA
BRANCH   7  16
ATOM     14  F   UNL     1      -7.329 -43.663  29.865  0.00  0.00    -0.204 F 
ATOM     15  C   UNL     1      -8.275 -42.845  29.411  0.00  0.00    +0.139 C 
ATOM     16  C   UNL     1      -9.385 -42.502  30.133  0.00  0.00    +0.038 C 
ATOM     17  C   UNL     1     -10.302 -41.614  29.538  0.00  0.00    +0.037 C 
ATOM     18  C   UNL     1     -10.154 -41.073  28.282  0.00  0.00    +0.134 C 
ATOM     19  C   UNL     1      -9.034 -41.429  27.569  0.00  0.00    +0.039 C 
ATOM     20  C   UNL     1      -8.126 -42.293  28.126  0.00  0.00    +0.032 C 
BRANCH  18  21
ATOM     21  O   UNL     1     -11.100 -40.194  27.741  0.00  0.00    -0.506 OA
ATOM     22  H   UNL     1     -11.859 -39.959  28.237  0.00  0.00    +0.292 HD
ENDBRANCH  18  21
ENDBRANCH   7  16
ENDBRANCH   1   7
BRANCH   1  23
ATOM     23  S   UNL     1     -11.993 -44.323  32.121  0.00  0.00    -0.172 S 
ATOM     24  C   UNL     1     -13.312 -43.309  31.597  0.00  0.00    +0.075 C 
ATOM     25  C   UNL     1     -13.565 -43.916  30.241  0.00  0.00    +0.178 C 
ATOM     26  N   UNL     1     -13.346 -45.288  30.205  0.00  0.00    -0.267 NA
ATOM     27  C   UNL     1     -12.952 -45.835  31.449  0.00  0.00    +0.113 C 
ATOM     28  H   UNL     1     -11.580 -44.075  33.393  0.00  0.00    +0.089 HD
ATOM     29  H   UNL     1     -12.612 -45.479  29.523  0.00  0.00    +0.126 HD
BRANCH  24  30
ATOM     30  C   UNL     1     -14.561 -43.520  32.401  0.00  0.00    +0.012 C 
ATOM     31  C   UNL     1     -14.365 -43.608  33.875  0.00  0.00    +0.001 C 
ATOM     32  C   UNL     1     -14.205 -42.174  34.334  0.00  0.00    +0.000 C 
ATOM     33  C   UNL     1     -15.137 -41.485  33.389  0.00  0.00    +0.000 C 
ATOM     34  C   UNL     1     -15.342 -42.229  32.305  0.00  0.00    +0.001 C 
ENDBRANCH  24  30
BRANCH  25  35
ATOM     35  O   UNL     1     -14.899 -43.623  29.818  0.00  0.00    -0.369 OA
ATOM     36  H   UNL     1     -15.044 -42.664  29.846  0.00  0.00    +0.212 HD
ENDBRANCH  25  35
ENDBRANCH   1  23
TORSDOF 6
