MODEL 1
REMARK VINA RESULT:   -10.628      0.000      0.000
REMARK INTER + INTRA:         -16.541
REMARK INTER:                 -15.288
REMARK INTRA:                  -1.253
REMARK UNBOUND:                -1.253
REMARK  Name = =
REMARK  9 active torsions:
REMARK  status: ('A' for Active; 'I' for Inactive)
REMARK    1  A    between atoms: P_1  and  C_3
REMARK    2  A    between atoms: P_1  and  O_23
REMARK    3  A    between atoms: N_7  and  S_10
REMARK    4  A    between atoms: S_10  and  C_11
REMARK    5  A    between atoms: C_11  and  S_12
REMARK    6  A    between atoms: C_11  and  N_22
REMARK    7  A    between atoms: S_12  and  C_13
REMARK    8  A    between atoms: O_23  and  P_24
REMARK    9  A    between atoms: P_24  and  C_38
REMARK                            x       y       z     vdW  Elec       q    Type
REMARK                         _______ _______ _______ _____ _____    ______ ____
ROOT
ATOM      1  P   UNL     1       1.332  -6.536  28.215  0.00  0.00    +0.226 P 
ATOM      2  O   UNL     1       2.603  -7.309  28.568  0.00  0.00    -0.292 OA
ATOM      3  H   UNL     1       0.137  -7.102  27.820  0.00  0.00    +0.130 HD
ENDROOT
BRANCH   1   4
ATOM      4  C   UNL     1       1.848  -4.960  27.531  0.00  0.00    +0.207 C 
ATOM      5  S   UNL     1       2.704  -3.924  28.796  0.00  0.00    -0.038 S 
ATOM      6  C   UNL     1       1.953  -2.371  28.327  0.00  0.00    +0.292 C 
ATOM      7  O   UNL     1       2.254  -1.257  28.806  0.00  0.00    -0.261 OA
ATOM      8  N   UNL     1       0.996  -2.704  27.342  0.00  0.00    -0.169 N 
ATOM      9  C   UNL     1       0.682  -4.071  27.285  0.00  0.00    +0.261 C 
ATOM     10  O   UNL     1      -0.470  -4.584  27.049  0.00  0.00    -0.272 OA
BRANCH   8  11
ATOM     11  S   UNL     1       0.244  -1.516  26.281  0.00  0.00    -0.012 S 
BRANCH  11  12
ATOM     12  C   UNL     1       1.464  -0.898  25.152  0.00  0.00    +0.159 C 
BRANCH  12  13
ATOM     13  N   UNL     1       2.162   0.296  25.460  0.00  0.00    -0.305 NA
ATOM     14  H   UNL     1       2.795   0.127  26.242  0.00  0.00    +0.120 HD
ATOM     15  H   UNL     1       1.494   1.024  25.714  0.00  0.00    +0.120 HD
ENDBRANCH  12  13
BRANCH  12  16
ATOM     16  S   UNL     1       1.828  -1.660  23.742  0.00  0.00    -0.157 S 
ATOM     17  H   UNL     1       1.662  -0.762  22.733  0.00  0.00    +0.099 HD
BRANCH  16  18
ATOM     18  C   UNL     1       3.522  -2.355  23.597  0.00  0.00    +0.016 C 
ATOM     19  C   UNL     1       4.487  -1.264  23.442  0.00  0.00    +0.022 C 
ATOM     20  C   UNL     1       5.469  -1.032  24.276  0.00  0.00    +0.090 C 
ATOM     21  C   UNL     1       5.646  -1.884  25.433  0.00  0.00    +0.107 C 
ATOM     22  C   UNL     1       6.706  -1.422  26.092  0.00  0.00    +0.106 C 
ATOM     23  N   UNL     1       7.196  -0.301  25.373  0.00  0.00    -0.151 NA
ATOM     24  N   UNL     1       6.520  -0.061  24.347  0.00  0.00    -0.152 NA
ATOM     25  C   UNL     1       4.727  -2.984  25.653  0.00  0.00    -0.014 C 
ATOM     26  C   UNL     1       3.760  -3.178  24.794  0.00  0.00    +0.001 C 
ENDBRANCH  16  18
ENDBRANCH  12  16
ENDBRANCH  11  12
ENDBRANCH   8  11
ENDBRANCH   1   4
BRANCH   1  27
ATOM     27  O   UNL     1       0.419  -6.419  29.607  0.00  0.00    -0.270 OA
BRANCH  27  28
ATOM     28  P   UNL     1      -0.652  -7.718  29.654  0.00  0.00    +0.228 P 
ATOM     29  O   UNL     1      -1.617  -7.499  28.480  0.00  0.00    -0.289 OA
ATOM     30  H   UNL     1      -0.944  -7.192  30.896  0.00  0.00    +0.133 HD
BRANCH  28  43
ATOM     31  N   UNL     1      -4.824  -4.762  33.532  0.00  0.00    -0.244 NA
ATOM     32  C   UNL     1      -3.953  -5.345  32.699  0.00  0.00    +0.081 C 
ATOM     33  C   UNL     1      -3.254  -6.634  32.616  0.00  0.00    +0.018 C 
ATOM     34  C   UNL     1      -2.452  -6.639  31.469  0.00  0.00    +0.006 C 
ATOM     35  C   UNL     1      -2.670  -5.331  30.848  0.00  0.00    +0.002 C 
ATOM     36  C   UNL     1      -3.563  -4.615  31.619  0.00  0.00    +0.018 C 
ATOM     37  C   UNL     1      -3.992  -3.345  31.330  0.00  0.00    +0.003 C 
ATOM     38  C   UNL     1      -3.498  -2.744  30.190  0.00  0.00    +0.000 C 
ATOM     39  C   UNL     1      -2.604  -3.441  29.405  0.00  0.00    +0.000 C 
ATOM     40  C   UNL     1      -2.170  -4.737  29.708  0.00  0.00    +0.000 C 
ATOM     41  C   UNL     1      -4.898  -2.745  32.198  0.00  0.00    +0.021 C 
ATOM     42  C   UNL     1      -5.285  -3.498  33.290  0.00  0.00    +0.099 C 
ATOM     43  C   UNL     1      -1.672  -7.718  31.119  0.00  0.00    +0.051 C 
ATOM     44  C   UNL     1      -1.724  -8.821  31.977  0.00  0.00    +0.005 C 
ATOM     45  C   UNL     1      -2.515  -8.820  33.110  0.00  0.00    +0.000 C 
ATOM     46  C   UNL     1      -3.286  -7.722  33.436  0.00  0.00    +0.002 C 
ENDBRANCH  28  43
ENDBRANCH  27  28
ENDBRANCH   1  27
TORSDOF 9
ENDMDL
