REMARK  Name = =
REMARK  4 active torsions:
REMARK  status: ('A' for Active; 'I' for Inactive)
REMARK    1  A    between atoms: C_3  and  N_16
REMARK    2  A    between atoms: C_4  and  N_8
REMARK    3  A    between atoms: C_18  and  C_22
REMARK    4  A    between atoms: C_22  and  C_23
REMARK                            x       y       z     vdW  Elec       q    Type
REMARK                         _______ _______ _______ _____ _____    ______ ____
ROOT
ATOM      1  N   UNL     1      -3.982  -7.493  30.614  0.00  0.00    -0.269 N 
ATOM      2  C   UNL     1      -4.627  -6.381  31.279  0.00  0.00    +0.112 C 
ATOM      3  C   UNL     1      -3.863  -5.204  30.702  0.00  0.00    +0.098 C 
ATOM      4  C   UNL     1      -2.473  -5.740  30.735  0.00  0.00    +0.118 C 
ATOM      5  C   UNL     1      -2.707  -7.095  30.051  0.00  0.00    +0.115 C 
ATOM      6  C   UNL     1      -4.522  -8.793  30.527  0.00  0.00    +0.303 C 
ATOM      7  O   UNL     1      -3.923  -9.722  29.941  0.00  0.00    -0.265 OA
ENDROOT
BRANCH   4   8
ATOM      8  N   UNL     1      -1.488  -4.953  30.077  0.00  0.00    -0.228 N 
ATOM      9  C   UNL     1      -1.734  -3.875  29.210  0.00  0.00    +0.231 C 
ATOM     10  O   UNL     1      -2.912  -3.576  28.934  0.00  0.00    -0.274 OA
ATOM     11  C   UNL     1      -0.659  -3.047  28.582  0.00  0.00    +0.086 C 
ATOM     12  C   UNL     1       0.629  -3.153  29.373  0.00  0.00    +0.019 C 
ATOM     13  C   UNL     1       0.981  -4.614  29.593  0.00  0.00    +0.086 C 
ATOM     14  C   UNL     1      -0.118  -5.285  30.314  0.00  0.00    +0.231 C 
ATOM     15  O   UNL     1       0.217  -6.172  31.156  0.00  0.00    -0.274 OA
ENDBRANCH   4   8
BRANCH   3  16
ATOM     16  N   UNL     1      -4.053  -3.990  31.447  0.00  0.00    -0.269 NA
ATOM     17  C   UNL     1      -5.396  -3.484  31.151  0.00  0.00    +0.088 C 
ATOM     18  C   UNL     1      -5.587  -2.106  31.774  0.00  0.00    +0.075 C 
ATOM     19  N   UNL     1      -4.373  -1.759  32.476  0.00  0.00    -0.296 NA
ATOM     20  C   UNL     1      -4.010  -2.742  33.475  0.00  0.00    +0.086 C 
ATOM     21  C   UNL     1      -3.961  -4.144  32.856  0.00  0.00    +0.089 C 
ATOM     22  H   UNL     1      -4.507  -0.859  32.936  0.00  0.00    +0.123 HD
BRANCH  18  23
ATOM     23  C   UNL     1      -6.769  -2.199  32.714  0.00  0.00    +0.043 C 
BRANCH  23  24
ATOM     24  C   UNL     1      -7.990  -2.300  31.875  0.00  0.00    -0.025 C 
ATOM     25  C   UNL     1      -9.035  -3.060  32.236  0.00  0.00    -0.005 C 
ENDBRANCH  23  24
ENDBRANCH  18  23
ENDBRANCH   3  16
TORSDOF 4
