MODEL 1
REMARK VINA RESULT:    -7.169      0.000      0.000
REMARK INTER + INTRA:         -15.700
REMARK INTER:                 -12.408
REMARK INTRA:                  -3.292
REMARK UNBOUND:                -3.292
REMARK  Name = =
REMARK  14 active torsions:
REMARK  status: ('A' for Active; 'I' for Inactive)
REMARK    1  A    between atoms: S_1  and  C_2
REMARK    2  A    between atoms: S_1  and  C_12
REMARK    3  A    between atoms: S_1  and  S_17
REMARK    4  A    between atoms: C_2  and  N_7
REMARK    5  A    between atoms: N_10  and  N_11
REMARK    6  A    between atoms: C_12  and  N_14
REMARK    7  A    between atoms: N_14  and  N_15
REMARK    8  A    between atoms: N_15  and  N_16
REMARK    9  A    between atoms: S_17  and  C_18
REMARK   10  A    between atoms: C_18  and  S_19
REMARK   11  A    between atoms: C_18  and  N_20
REMARK   12  A    between atoms: S_19  and  N_21
REMARK   13  A    between atoms: N_21  and  S_22
REMARK   14  A    between atoms: S_22  and  C_25
REMARK                            x       y       z     vdW  Elec       q    Type
REMARK                         _______ _______ _______ _____ _____    ______ ____
ROOT
ATOM      1  S   UNL     1       2.143  -4.815  27.174  0.00  0.00    -0.116 S 
ATOM      2  H   UNL     1       2.909  -4.762  26.051  0.00  0.00    +0.103 HD
ENDROOT
BRANCH   1   3
ATOM      3  C   UNL     1       1.134  -3.545  27.831  0.00  0.00    +0.169 C 
ATOM      4  N   UNL     1       0.326  -3.070  26.717  0.00  0.00    -0.250 NA
ATOM      5  C   UNL     1       1.286  -2.339  25.957  0.00  0.00    +0.218 C 
ATOM      6  O   UNL     1       2.288  -1.911  26.807  0.00  0.00    -0.333 OA
ATOM      7  C   UNL     1       1.989  -2.337  28.096  0.00  0.00    +0.187 C 
ATOM      8  H   UNL     1      -0.432  -2.468  27.037  0.00  0.00    +0.128 HD
BRANCH   3   9
ATOM      9  N   UNL     1       0.380  -3.964  28.964  0.00  0.00    -0.269 N 
ATOM     10  C   UNL     1      -0.674  -3.226  29.516  0.00  0.00    +0.315 C 
ATOM     11  O   UNL     1      -1.010  -2.140  29.029  0.00  0.00    -0.251 OA
ATOM     12  N   UNL     1      -1.419  -3.668  30.662  0.00  0.00    -0.237 N 
ATOM     13  H   UNL     1       0.614  -4.823  29.383  0.00  0.00    +0.153 HD
ATOM     14  H   UNL     1      -1.196  -4.527  31.088  0.00  0.00    +0.170 HD
BRANCH  12  15
ATOM     15  N   UNL     1      -2.458  -2.890  31.175  0.00  0.00    -0.253 NA
ATOM     16  H   UNL     1      -3.129  -2.686  30.434  0.00  0.00    +0.141 HD
ATOM     17  H   UNL     1      -2.080  -2.016  31.540  0.00  0.00    +0.141 HD
ENDBRANCH  12  15
ENDBRANCH   3   9
ENDBRANCH   1   3
BRANCH   1  18
ATOM     18  C   UNL     1       3.276  -5.005  28.512  0.00  0.00    +0.113 C 
ATOM     19  S   UNL     1       4.795  -4.465  28.309  0.00  0.00    -0.028 S 
BRANCH  18  20
ATOM     20  N   UNL     1       2.906  -5.604  29.718  0.00  0.00    -0.256 N 
ATOM     21  H   UNL     1       2.518  -6.507  29.673  0.00  0.00    +0.169 HD
BRANCH  20  22
ATOM     22  N   UNL     1       3.039  -5.042  30.953  0.00  0.00    -0.180 NA
ATOM     23  H   UNL     1       3.858  -4.435  30.937  0.00  0.00    +0.164 HD
BRANCH  22  24
ATOM     24  N   UNL     1       1.956  -4.291  31.379  0.00  0.00    -0.254 NA
ATOM     25  H   UNL     1       1.615  -3.718  30.608  0.00  0.00    +0.138 HD
ATOM     26  H   UNL     1       2.244  -3.686  32.149  0.00  0.00    +0.138 HD
ENDBRANCH  22  24
ENDBRANCH  20  22
ENDBRANCH  18  20
ENDBRANCH   1  18
BRANCH   1  27
ATOM     27  S   UNL     1       0.963  -5.885  26.919  0.00  0.00    -0.069 S 
BRANCH  27  28
ATOM     28  C   UNL     1       1.067  -7.487  27.378  0.00  0.00    +0.160 C 
BRANCH  28  29
ATOM     29  N   UNL     1       2.262  -8.245  27.572  0.00  0.00    -0.304 NA
ATOM     30  H   UNL     1       2.996  -7.637  27.935  0.00  0.00    +0.120 HD
ATOM     31  H   UNL     1       2.560  -8.645  26.683  0.00  0.00    +0.120 HD
ENDBRANCH  28  29
BRANCH  28  32
ATOM     32  S   UNL     1      -0.337  -8.308  27.669  0.00  0.00    -0.102 S 
ATOM     33  H   UNL     1      -0.245  -9.498  27.015  0.00  0.00    +0.112 HD
BRANCH  32  34
ATOM     34  N   UNL     1      -0.789  -8.668  29.336  0.00  0.00    -0.143 NA
ATOM     35  H   UNL     1      -0.020  -9.138  29.815  0.00  0.00    +0.161 HD
BRANCH  34  36
ATOM     36  S   UNL     1      -1.133  -7.138  30.112  0.00  0.00    +0.068 S 
ATOM     37  O   UNL     1       0.174  -6.553  30.553  0.00  0.00    -0.152 OA
ATOM     38  O   UNL     1      -1.792  -6.273  29.069  0.00  0.00    -0.152 OA
BRANCH  36  39
ATOM     39  C   UNL     1      -2.209  -7.429  31.447  0.00  0.00    +0.123 C 
ATOM     40  C   UNL     1      -3.381  -6.666  31.471  0.00  0.00    +0.020 C 
ATOM     41  C   UNL     1      -4.272  -6.852  32.500  0.00  0.00    +0.001 C 
ATOM     42  C   UNL     1      -3.963  -7.794  33.471  0.00  0.00    +0.000 C 
ATOM     43  C   UNL     1      -2.805  -8.536  33.434  0.00  0.00    +0.001 C 
ATOM     44  C   UNL     1      -1.896  -8.354  32.396  0.00  0.00    +0.020 C 
ENDBRANCH  36  39
ENDBRANCH  34  36
ENDBRANCH  32  34
ENDBRANCH  28  32
ENDBRANCH  27  28
ENDBRANCH   1  27
TORSDOF 14
ENDMDL
