REMARK  Name = =
REMARK  14 active torsions:
REMARK  status: ('A' for Active; 'I' for Inactive)
REMARK    1  A    between atoms: S_1  and  C_2
REMARK    2  A    between atoms: S_1  and  C_12
REMARK    3  A    between atoms: S_1  and  S_17
REMARK    4  A    between atoms: C_2  and  N_7
REMARK    5  A    between atoms: N_10  and  N_11
REMARK    6  A    between atoms: C_12  and  N_14
REMARK    7  A    between atoms: N_14  and  N_15
REMARK    8  A    between atoms: N_15  and  N_16
REMARK    9  A    between atoms: S_17  and  C_18
REMARK   10  A    between atoms: C_18  and  S_19
REMARK   11  A    between atoms: C_18  and  N_20
REMARK   12  A    between atoms: S_19  and  N_21
REMARK   13  A    between atoms: N_21  and  S_22
REMARK   14  A    between atoms: S_22  and  C_25
REMARK                            x       y       z     vdW  Elec       q    Type
REMARK                         _______ _______ _______ _____ _____    ______ ____
ROOT
ATOM      1  S   UNL     1       3.564 -10.409  23.860  0.00  0.00    -0.116 S 
ATOM      2  H   UNL     1       2.723  -9.343  23.779  0.00  0.00    +0.103 HD
ENDROOT
BRANCH   1   3
ATOM      3  C   UNL     1       4.782 -10.710  25.080  0.00  0.00    +0.169 C 
ATOM      4  N   UNL     1       4.221 -10.208  26.326  0.00  0.00    -0.250 NA
ATOM      5  C   UNL     1       4.315  -8.798  26.137  0.00  0.00    +0.218 C 
ATOM      6  O   UNL     1       5.343  -8.540  25.249  0.00  0.00    -0.333 OA
ATOM      7  C   UNL     1       5.919  -9.748  24.874  0.00  0.00    +0.187 C 
ATOM      8  H   UNL     1       4.769 -10.513  27.130  0.00  0.00    +0.128 HD
BRANCH   3   9
ATOM      9  N   UNL     1       5.194 -12.071  25.130  0.00  0.00    -0.269 N 
ATOM     10  C   UNL     1       5.943 -12.622  26.177  0.00  0.00    +0.315 C 
ATOM     11  O   UNL     1       6.292 -11.927  27.139  0.00  0.00    -0.251 OA
ATOM     12  N   UNL     1       6.350 -13.999  26.205  0.00  0.00    -0.237 N 
ATOM     13  H   UNL     1       4.937 -12.660  24.384  0.00  0.00    +0.153 HD
ATOM     14  H   UNL     1       6.097 -14.598  25.466  0.00  0.00    +0.170 HD
BRANCH  12  15
ATOM     15  N   UNL     1       7.101 -14.495  27.272  0.00  0.00    -0.253 NA
ATOM     16  H   UNL     1       7.273 -13.747  27.944  0.00  0.00    +0.141 HD
ATOM     17  H   UNL     1       7.991 -14.851  26.925  0.00  0.00    +0.141 HD
ENDBRANCH  12  15
ENDBRANCH   3   9
ENDBRANCH   1   3
BRANCH   1  18
ATOM     18  C   UNL     1       4.600 -10.304  22.437  0.00  0.00    +0.113 C 
ATOM     19  S   UNL     1       4.939 -11.676  21.636  0.00  0.00    -0.028 S 
BRANCH  18  20
ATOM     20  N   UNL     1       5.132  -9.091  21.994  0.00  0.00    -0.256 N 
ATOM     21  H   UNL     1       6.020  -9.116  21.571  0.00  0.00    +0.169 HD
BRANCH  20  22
ATOM     22  N   UNL     1       4.524  -7.876  22.099  0.00  0.00    -0.180 NA
ATOM     23  H   UNL     1       3.685  -7.991  22.667  0.00  0.00    +0.164 HD
BRANCH  22  24
ATOM     24  N   UNL     1       5.295  -6.877  22.671  0.00  0.00    -0.254 NA
ATOM     25  H   UNL     1       6.142  -6.743  22.119  0.00  0.00    +0.138 HD
ATOM     26  H   UNL     1       5.548  -7.145  23.622  0.00  0.00    +0.138 HD
ENDBRANCH  22  24
ENDBRANCH  20  22
ENDBRANCH  18  20
ENDBRANCH   1  18
BRANCH   1  27
ATOM     27  S   UNL     1       2.673 -11.722  24.151  0.00  0.00    -0.069 S 
BRANCH  27  28
ATOM     28  C   UNL     1       1.192 -11.999  23.431  0.00  0.00    +0.160 C 
BRANCH  28  29
ATOM     29  N   UNL     1       0.032 -12.560  24.047  0.00  0.00    -0.304 NA
ATOM     30  H   UNL     1       0.241 -12.793  25.018  0.00  0.00    +0.120 HD
ATOM     31  H   UNL     1      -0.244 -13.405  23.547  0.00  0.00    +0.120 HD
ENDBRANCH  28  29
BRANCH  28  32
ATOM     32  S   UNL     1       1.003 -11.570  21.846  0.00  0.00    -0.102 S 
ATOM     33  H   UNL     1       1.938 -12.255  21.134  0.00  0.00    +0.112 HD
BRANCH  32  34
ATOM     34  N   UNL     1      -0.553 -11.852  21.062  0.00  0.00    -0.143 NA
ATOM     35  H   UNL     1      -1.309 -11.483  21.640  0.00  0.00    +0.161 HD
BRANCH  34  36
ATOM     36  S   UNL     1      -0.508 -11.017  19.526  0.00  0.00    +0.068 S 
ATOM     37  O   UNL     1       0.762 -11.412  18.836  0.00  0.00    -0.152 OA
ATOM     38  O   UNL     1      -1.715 -11.484  18.754  0.00  0.00    -0.152 OA
BRANCH  36  39
ATOM     39  C   UNL     1      -0.588  -9.306  19.828  0.00  0.00    +0.123 C 
ATOM     40  C   UNL     1      -1.804  -8.824  20.324  0.00  0.00    +0.020 C 
ATOM     41  C   UNL     1      -1.928  -7.481  20.585  0.00  0.00    +0.001 C 
ATOM     42  C   UNL     1      -0.833  -6.664  20.342  0.00  0.00    +0.000 C 
ATOM     43  C   UNL     1       0.356  -7.153  19.853  0.00  0.00    +0.001 C 
ATOM     44  C   UNL     1       0.491  -8.512  19.585  0.00  0.00    +0.020 C 
ENDBRANCH  36  39
ENDBRANCH  34  36
ENDBRANCH  32  34
ENDBRANCH  28  32
ENDBRANCH  27  28
ENDBRANCH   1  27
TORSDOF 14
