REMARK  Name = =
REMARK  10 active torsions:
REMARK  status: ('A' for Active; 'I' for Inactive)
REMARK    1  A    between atoms: S_1  and  N_4
REMARK    2  A    between atoms: S_1  and  N_15
REMARK    3  A    between atoms: N_4  and  N_8
REMARK    4  A    between atoms: C_5  and  O_7
REMARK    5  A    between atoms: N_8  and  C_9
REMARK    6  A    between atoms: N_8  and  S_11
REMARK    7  A    between atoms: S_11  and  C_12
REMARK    8  A    between atoms: C_12  and  N_14
REMARK    9  A    between atoms: N_15  and  C_22
REMARK   10  A    between atoms: N_15  and  N_26
REMARK                            x       y       z     vdW  Elec       q    Type
REMARK                         _______ _______ _______ _____ _____    ______ ____
ROOT
ATOM      1  S   UNL     1      53.103 153.732  26.726  0.00  0.00    +0.151 S 
ATOM      2  O   UNL     1      52.133 154.471  25.816  0.00  0.00    -0.135 OA
ATOM      3  O   UNL     1      54.465 154.291  26.260  0.00  0.00    -0.135 OA
ENDROOT
BRANCH   1   4
ATOM      4  N   UNL     1      52.966 152.090  26.359  0.00  0.00    -0.016 N 
ATOM      5  C   UNL     1      52.080 151.214  27.051  0.00  0.00    +0.440 C 
ATOM      6  O   UNL     1      51.334 151.512  28.011  0.00  0.00    -0.223 OA
BRANCH   5   7
ATOM      7  O   UNL     1      51.996 149.831  26.608  0.00  0.00    -0.464 OA
ATOM      8  H   UNL     1      52.525 149.535  25.894  0.00  0.00    +0.297 HD
ENDBRANCH   5   7
BRANCH   4   9
ATOM      9  N   UNL     1      53.742 151.642  25.304  0.00  0.00    -0.094 N 
BRANCH   9  10
ATOM     10  C   UNL     1      53.762 152.360  24.113  0.00  0.00    +0.200 C 
ATOM     11  N   UNL     1      53.771 153.006  23.078  0.00  0.00    -0.172 NA
ENDBRANCH   9  10
BRANCH   9  12
ATOM     12  S   UNL     1      54.756 150.192  25.311  0.00  0.00    +0.034 S 
BRANCH  12  13
ATOM     13  C   UNL     1      53.781 148.867  24.617  0.00  0.00    +0.125 C 
ATOM     14  S   UNL     1      52.314 148.522  25.304  0.00  0.00    -0.027 S 
BRANCH  13  15
ATOM     15  N   UNL     1      54.240 148.086  23.509  0.00  0.00    -0.346 N 
ATOM     16  H   UNL     1      53.677 147.362  23.150  0.00  0.00    +0.143 HD
ATOM     17  H   UNL     1      55.118 148.273  23.106  0.00  0.00    +0.143 HD
ENDBRANCH  13  15
ENDBRANCH  12  13
ENDBRANCH   9  12
ENDBRANCH   4   9
ENDBRANCH   1   4
BRANCH   1  18
ATOM     18  N   UNL     1      52.924 154.205  28.352  0.00  0.00    -0.063 NA
BRANCH  18  25
ATOM     19  C   UNL     1      50.861 156.934  29.435  0.00  0.00    -0.007 C 
ATOM     20  C   UNL     1      51.964 156.237  29.134  0.00  0.00    -0.006 C 
ATOM     21  C   UNL     1      53.202 156.731  28.932  0.00  0.00    -0.003 C 
ATOM     22  C   UNL     1      53.293 158.137  29.062  0.00  0.00    -0.000 C 
ATOM     23  C   UNL     1      52.161 158.907  29.377  0.00  0.00    -0.000 C 
ATOM     24  C   UNL     1      50.921 158.336  29.568  0.00  0.00    -0.003 C 
ATOM     25  C   UNL     1      51.670 154.707  28.816  0.00  0.00    +0.138 C 
ATOM     26  C   UNL     1      51.003 154.205  29.983  0.00  0.00    +0.113 C 
ATOM     27  N   UNL     1      49.900 155.003  30.430  0.00  0.00    -0.211 NA
ATOM     28  C   UNL     1      49.594 156.165  29.636  0.00  0.00    +0.115 C 
ENDBRANCH  18  25
BRANCH  18  29
ATOM     29  N   UNL     1      54.087 154.008  29.186  0.00  0.00    -0.124 NA
ATOM     30  C   UNL     1      54.245 152.795  29.577  0.00  0.00    +0.130 C 
ENDBRANCH  18  29
ENDBRANCH   1  18
TORSDOF 10
