REMARK  Name = =
REMARK  2 active torsions:
REMARK  status: ('A' for Active; 'I' for Inactive)
REMARK    1  A    between atoms: C_9  and  C_10
REMARK    2  A    between atoms: C_10  and  O_12
REMARK                            x       y       z     vdW  Elec       q    Type
REMARK                         _______ _______ _______ _____ _____    ______ ____
ROOT
ATOM      1  N   UNL     1      -3.364  -4.218  31.464  0.00  0.00    -0.271 N 
ATOM      2  C   UNL     1      -3.918  -4.439  32.776  0.00  0.00    +0.146 C 
ATOM      3  C   UNL     1      -4.200  -5.859  32.259  0.00  0.00    +0.085 C 
ATOM      4  C   UNL     1      -2.954  -5.571  31.504  0.00  0.00    +0.213 C 
ATOM      5  O   UNL     1      -1.931  -6.132  31.043  0.00  0.00    -0.202 OA
ATOM      6  S   UNL     1      -5.444  -3.577  33.083  0.00  0.00    -0.115 S 
ATOM      7  C   UNL     1      -5.589  -2.346  31.791  0.00  0.00    +0.087 C 
ATOM      8  C   UNL     1      -4.429  -2.190  30.927  0.00  0.00    +0.007 C 
ATOM      9  C   UNL     1      -3.411  -3.016  30.759  0.00  0.00    +0.123 C 
ENDROOT
BRANCH   9  10
ATOM     10  C   UNL     1      -2.342  -2.672  29.838  0.00  0.00    +0.351 C 
ATOM     11  O   UNL     1      -1.327  -3.387  29.768  0.00  0.00    -0.244 OA
BRANCH  10  12
ATOM     12  O   UNL     1      -2.466  -1.549  29.045  0.00  0.00    -0.476 OA
ATOM     13  H   UNL     1      -3.234  -1.016  29.104  0.00  0.00    +0.295 HD
ENDBRANCH  10  12
ENDBRANCH   9  10
TORSDOF 2
