REMARK  Name = =
REMARK  10 active torsions:
REMARK  status: ('A' for Active; 'I' for Inactive)
REMARK    1  A    between atoms: C_2  and  C_30
REMARK    2  A    between atoms: C_17  and  C_18
REMARK    3  A    between atoms: C_18  and  O_20
REMARK    4  A    between atoms: O_20  and  O_21
REMARK    5  A    between atoms: O_21  and  P_22
REMARK    6  A    between atoms: P_22  and  O_24
REMARK    7  A    between atoms: P_22  and  O_25
REMARK    8  A    between atoms: O_25  and  P_26
REMARK    9  A    between atoms: P_26  and  O_28
REMARK   10  A    between atoms: P_26  and  O_29
REMARK                            x       y       z     vdW  Elec       q    Type
REMARK                         _______ _______ _______ _____ _____    ______ ____
ROOT
ATOM      1  N   UNL     1      -2.737  -7.224  31.191  0.00  0.00    -0.256 N 
ATOM      2  C   UNL     1      -2.888  -6.594  32.451  0.00  0.00    +0.189 C 
ATOM      3  C   UNL     1      -4.111  -7.404  32.680  0.00  0.00    +0.129 C 
ATOM      4  C   UNL     1      -4.070  -7.668  31.234  0.00  0.00    +0.231 C 
ATOM      5  O   UNL     1      -4.851  -8.102  30.351  0.00  0.00    -0.275 OA
ATOM      6  S   UNL     1      -1.471  -7.050  33.510  0.00  0.00    -0.104 S 
ATOM      7  C   UNL     1       0.002  -6.780  32.493  0.00  0.00    +0.084 C 
ATOM      8  C   UNL     1      -0.485  -6.298  31.157  0.00  0.00    -0.007 C 
ATOM      9  C   UNL     1      -1.476  -7.168  30.463  0.00  0.00    +0.126 C 
ATOM     10  C   UNL     1      -0.969  -8.495  30.113  0.00  0.00    +0.057 C 
ATOM     11  C   UNL     1      -0.455  -8.742  28.933  0.00  0.00    +0.009 C 
ATOM     12  C   UNL     1      -0.369  -7.713  27.923  0.00  0.00    -0.002 C 
ATOM     13  C   UNL     1      -0.805  -6.507  28.143  0.00  0.00    -0.005 C 
ATOM     14  C   UNL     1      -1.408  -6.129  29.426  0.00  0.00    +0.133 C 
ATOM     15 CL   UNL     1      -2.924  -5.175  29.231  0.00  0.00    -0.105 Cl
ATOM     16 CL   UNL     1      -1.047  -9.821  31.315  0.00  0.00    -0.085 Cl
ATOM     17  C   UNL     1      -0.413  -5.356  30.238  0.00  0.00    +0.070 C 
ENDROOT
BRANCH  17  18
ATOM     18  C   UNL     1       0.270  -4.107  29.985  0.00  0.00    +0.372 C 
ATOM     19  O   UNL     1       1.107  -3.712  30.831  0.00  0.00    -0.242 OA
BRANCH  18  20
ATOM     20  O   UNL     1       0.062  -3.321  28.874  0.00  0.00    -0.282 OA
BRANCH  20  21
ATOM     21  O   UNL     1       1.003  -2.500  28.373  0.00  0.00    -0.070 OA
BRANCH  21  22
ATOM     22  P   UNL     1       2.003  -3.240  27.271  0.00  0.00    +0.519 P 
ATOM     23  O   UNL     1       3.032  -4.147  27.900  0.00  0.00    -0.224 OA
BRANCH  22  24
ATOM     24  O   UNL     1       1.035  -4.103  26.168  0.00  0.00    -0.300 OA
ATOM     25  H   UNL     1       0.572  -4.817  26.634  0.00  0.00    +0.222 HD
ENDBRANCH  22  24
BRANCH  22  26
ATOM     26  O   UNL     1       2.777  -2.010  26.368  0.00  0.00    -0.184 OA
BRANCH  26  27
ATOM     27  P   UNL     1       1.760  -0.675  26.309  0.00  0.00    +0.481 P 
ATOM     28  O   UNL     1       0.370  -1.032  25.836  0.00  0.00    -0.227 OA
BRANCH  27  29
ATOM     29  O   UNL     1       1.612   0.076  27.811  0.00  0.00    -0.302 OA
ATOM     30  H   UNL     1       1.244  -0.552  28.452  0.00  0.00    +0.222 HD
ENDBRANCH  27  29
BRANCH  27  31
ATOM     31  O   UNL     1       2.402   0.423  25.195  0.00  0.00    -0.302 OA
ATOM     32  H   UNL     1       3.298   0.675  25.469  0.00  0.00    +0.222 HD
ENDBRANCH  27  31
ENDBRANCH  26  27
ENDBRANCH  22  26
ENDBRANCH  21  22
ENDBRANCH  20  21
ENDBRANCH  18  20
ENDBRANCH  17  18
BRANCH   2  33
ATOM     33  C   UNL     1      -3.102  -5.148  32.420  0.00  0.00    +0.101 C 
ATOM     34  N   UNL     1      -3.291  -4.009  32.399  0.00  0.00    -0.193 NA
ENDBRANCH   2  33
TORSDOF 10
