MODEL 1
REMARK VINA RESULT:   -11.400      0.000      0.000
REMARK INTER + INTRA:         -14.979
REMARK INTER:                 -13.399
REMARK INTRA:                  -1.580
REMARK UNBOUND:                -1.580
REMARK  Name = =
REMARK  3 active torsions:
REMARK  status: ('A' for Active; 'I' for Inactive)
REMARK    1  A    between atoms: C_1  and  C_13
REMARK    2  A    between atoms: C_1  and  C_34
REMARK    3  A    between atoms: C_20  and  C_23
REMARK                            x       y       z     vdW  Elec       q    Type
REMARK                         _______ _______ _______ _____ _____    ______ ____
ROOT
ATOM      1  C   UNL     1       1.324  -5.550  29.363  0.00  0.00    +0.110 C 
ATOM      2  C   UNL     1       2.805  -5.247  29.102  0.00  0.00    +0.103 C 
ATOM      3  N   UNL     1       3.453  -5.153  30.394  0.00  0.00    -0.332 N 
ATOM      4  C   UNL     1       2.435  -5.056  31.352  0.00  0.00    +0.041 C 
ATOM      5  C   UNL     1       1.334  -5.847  30.803  0.00  0.00    +0.001 C 
ATOM      6  C   UNL     1       0.591  -6.574  31.612  0.00  0.00    +0.003 C 
ATOM      7  C   UNL     1       0.874  -6.675  33.049  0.00  0.00    +0.147 C 
ATOM      8  N   UNL     1      -0.028  -7.457  33.569  0.00  0.00    -0.262 NA
ATOM      9  C   UNL     1      -0.939  -7.922  32.593  0.00  0.00    +0.094 C 
ATOM     10  C   UNL     1      -0.602  -7.417  31.419  0.00  0.00    +0.018 C 
ATOM     11  C   UNL     1       1.990  -5.926  33.579  0.00  0.00    +0.003 C 
ATOM     12  C   UNL     1       2.704  -5.177  32.754  0.00  0.00    +0.012 C 
ATOM     13  H   UNL     1       4.422  -5.157  30.565  0.00  0.00    +0.147 HD
ENDROOT
BRANCH   1  14
ATOM     14  C   UNL     1       0.490  -4.328  29.105  0.00  0.00    +0.148 C 
ATOM     15  N   UNL     1      -0.651  -4.060  29.736  0.00  0.00    -0.227 NA
ATOM     16  C   UNL     1      -1.422  -2.982  29.539  0.00  0.00    +0.120 C 
ATOM     17  C   UNL     1      -0.999  -2.040  28.585  0.00  0.00    +0.121 C 
ATOM     18  N   UNL     1      -1.725  -0.946  28.367  0.00  0.00    -0.221 NA
ATOM     19  C   UNL     1      -2.869  -0.683  29.023  0.00  0.00    +0.199 C 
ATOM     20  N   UNL     1      -3.286  -1.566  29.929  0.00  0.00    -0.222 NA
ATOM     21  C   UNL     1      -2.581  -2.719  30.203  0.00  0.00    +0.108 C 
ATOM     22  C   UNL     1       0.180  -2.311  27.931  0.00  0.00    +0.121 C 
ATOM     23  N   UNL     1       0.899  -3.413  28.180  0.00  0.00    -0.227 NA
BRANCH  21  24
ATOM     24  C   UNL     1      -3.105  -3.622  31.217  0.00  0.00    +0.096 C 
ATOM     25  C   UNL     1      -3.325  -3.322  32.521  0.00  0.00    +0.184 C 
ATOM     26  O   UNL     1      -3.780  -4.225  33.379  0.00  0.00    -0.450 OA
ATOM     27  C   UNL     1      -4.050  -5.452  33.060  0.00  0.00    +0.148 C 
ATOM     28  C   UNL     1      -3.860  -5.874  31.743  0.00  0.00    +0.074 C 
ATOM     29  C   UNL     1      -4.147  -7.177  31.408  0.00  0.00    +0.006 C 
ATOM     30  C   UNL     1      -4.617  -8.094  32.315  0.00  0.00    +0.000 C 
ATOM     31  C   UNL     1      -4.801  -7.657  33.623  0.00  0.00    +0.003 C 
ATOM     32  C   UNL     1      -4.518  -6.358  33.971  0.00  0.00    +0.038 C 
ATOM     33  C   UNL     1      -3.392  -4.952  30.850  0.00  0.00    +0.203 C 
ATOM     34  O   UNL     1      -3.202  -5.273  29.655  0.00  0.00    -0.286 OA
ENDBRANCH  21  24
ENDBRANCH   1  14
BRANCH   1  35
ATOM     35  C   UNL     1       0.889  -6.653  28.495  0.00  0.00    +0.005 C 
ATOM     36  C   UNL     1       1.757  -7.655  28.157  0.00  0.00    +0.067 C 
ATOM     37  N   UNL     1       1.338  -8.703  27.374  0.00  0.00    -0.247 N 
ATOM     38  C   UNL     1       0.077  -8.760  26.933  0.00  0.00    +0.139 C 
ATOM     39  N   UNL     1      -0.072  -9.901  26.180  0.00  0.00    -0.227 NA
ATOM     40  C   UNL     1       1.098 -10.556  26.153  0.00  0.00    +0.117 C 
ATOM     41  C   UNL     1       1.966  -9.793  26.902  0.00  0.00    +0.092 C 
ATOM     42  C   UNL     1      -0.799  -7.760  27.268  0.00  0.00    +0.035 C 
ATOM     43  C   UNL     1      -0.397  -6.706  28.049  0.00  0.00    +0.001 C 
ENDBRANCH   1  35
TORSDOF 3
ENDMDL
