REMARK  Name = =
REMARK  0 active torsions:
REMARK  status: ('A' for Active; 'I' for Inactive)
REMARK                            x       y       z     vdW  Elec       q    Type
REMARK                         _______ _______ _______ _____ _____    ______ ____
ROOT
ATOM      1  O   UNL     1      52.426 156.959  29.910  0.00  0.00    -0.435 OA
ATOM      2  C   UNL     1      51.096 157.483  29.803  0.00  0.00    +0.429 C 
ATOM      3  O   UNL     1      50.398 156.303  29.402  0.00  0.00    -0.435 OA
ATOM      4  C   UNL     1      51.260 155.447  28.727  0.00  0.00    +0.176 C 
ATOM      5  C   UNL     1      52.535 155.864  29.048  0.00  0.00    +0.176 C 
ATOM      6  C   UNL     1      53.599 155.176  28.503  0.00  0.00    +0.036 C 
ATOM      7  C   UNL     1      53.425 154.088  27.649  0.00  0.00    -0.023 C 
ATOM      8  C   UNL     1      52.154 153.673  27.328  0.00  0.00    -0.023 C 
ATOM      9  C   UNL     1      51.101 154.369  27.881  0.00  0.00    +0.036 C 
ATOM     10  C   UNL     1      51.919 152.517  26.420  0.00  0.00    +0.029 C 
ATOM     11  C   UNL     1      53.116 152.101  25.670  0.00  0.00    +0.037 C 
ATOM     12  C   UNL     1      53.482 152.957  24.500  0.00  0.00    +0.143 C 
ATOM     13  O   UNL     1      54.842 152.880  24.308  0.00  0.00    -0.354 OA
ATOM     14  C   UNL     1      55.382 152.061  25.275  0.00  0.00    +0.143 C 
ATOM     15  C   UNL     1      54.404 152.130  26.462  0.00  0.00    +0.037 C 
ATOM     16  C   UNL     1      54.656 153.442  27.136  0.00  0.00    +0.029 C 
ENDROOT
TORSDOF 0
