REMARK  Name = =
REMARK  1 active torsions:
REMARK  status: ('A' for Active; 'I' for Inactive)
REMARK    1  A    between atoms: C_6  and  C_17
REMARK                            x       y       z     vdW  Elec       q    Type
REMARK                         _______ _______ _______ _____ _____    ______ ____
ROOT
ATOM      1  O   UNL     1      52.945 157.226  25.028  0.00  0.00    -0.435 OA
ATOM      2  C   UNL     1      53.788 157.530  23.917  0.00  0.00    +0.429 C 
ATOM      3  O   UNL     1      54.190 156.226  23.534  0.00  0.00    -0.435 OA
ATOM      4  C   UNL     1      54.193 155.422  24.668  0.00  0.00    +0.176 C 
ATOM      5  C   UNL     1      53.406 156.049  25.618  0.00  0.00    +0.176 C 
ATOM      6  C   UNL     1      53.220 155.468  26.881  0.00  0.00    +0.036 C 
ATOM      7  C   UNL     1      53.847 154.271  27.109  0.00  0.00    -0.023 C 
ATOM      8  C   UNL     1      54.644 153.624  26.175  0.00  0.00    -0.023 C 
ATOM      9  C   UNL     1      54.805 154.224  24.946  0.00  0.00    +0.036 C 
ATOM     10  C   UNL     1      55.349 152.354  26.381  0.00  0.00    +0.029 C 
ATOM     11  C   UNL     1      54.870 151.519  27.514  0.00  0.00    +0.037 C 
ATOM     12  C   UNL     1      54.354 150.202  26.918  0.00  0.00    +0.143 C 
ATOM     13  O   UNL     1      53.027 150.374  26.654  0.00  0.00    -0.354 OA
ATOM     14  C   UNL     1      52.592 151.583  27.123  0.00  0.00    +0.143 C 
ATOM     15  C   UNL     1      53.598 152.025  28.133  0.00  0.00    +0.037 C 
ATOM     16  C   UNL     1      53.615 153.532  28.363  0.00  0.00    +0.029 C 
ENDROOT
BRANCH   6  17
ATOM     17  C   UNL     1      52.310 156.132  27.825  0.00  0.00    +0.045 C 
ATOM     18  C   UNL     1      51.220 155.541  28.265  0.00  0.00    +0.045 C 
ATOM     19  C   UNL     1      50.304 156.209  29.201  0.00  0.00    +0.196 C 
ATOM     20  O   UNL     1      49.270 155.615  29.605  0.00  0.00    -0.287 OA
ATOM     21  C   UNL     1      50.546 157.556  29.691  0.00  0.00    +0.042 C 
ATOM     22  C   UNL     1      51.686 158.167  29.222  0.00  0.00    +0.042 C 
ATOM     23  C   UNL     1      51.933 159.451  29.678  0.00  0.00    +0.003 C 
ATOM     24  C   UNL     1      51.105 160.114  30.552  0.00  0.00    +0.000 C 
ATOM     25  C   UNL     1      49.962 159.475  31.009  0.00  0.00    +0.000 C 
ATOM     26  C   UNL     1      49.695 158.196  30.570  0.00  0.00    +0.003 C 
ATOM     27  C   UNL     1      52.578 157.488  28.298  0.00  0.00    +0.196 C 
ATOM     28  O   UNL     1      53.576 158.117  27.926  0.00  0.00    -0.287 OA
ENDBRANCH   6  17
TORSDOF 1
