REMARK  Name = =
REMARK  6 active torsions:
REMARK  status: ('A' for Active; 'I' for Inactive)
REMARK    1  A    between atoms: C_2  and  O_29
REMARK    2  A    between atoms: C_6  and  C_17
REMARK    3  A    between atoms: O_29  and  C_30
REMARK    4  A    between atoms: N_32  and  P_33
REMARK    5  A    between atoms: P_33  and  O_35
REMARK    6  A    between atoms: P_33  and  O_36
REMARK                            x       y       z     vdW  Elec       q    Type
REMARK                         _______ _______ _______ _____ _____    ______ ____
ROOT
ATOM      1  O   UNL     1      54.371 155.101  23.214  0.00  0.00    -0.407 OA
ATOM      2  C   UNL     1      54.750 156.163  22.377  0.00  0.00    +0.553 C 
ATOM      3  O   UNL     1      54.331 157.295  23.076  0.00  0.00    -0.407 OA
ATOM      4  C   UNL     1      53.761 156.897  24.284  0.00  0.00    +0.180 C 
ATOM      5  C   UNL     1      53.780 155.552  24.383  0.00  0.00    +0.180 C 
ATOM      6  C   UNL     1      53.284 154.809  25.476  0.00  0.00    +0.036 C 
ATOM      7  C   UNL     1      52.752 155.553  26.491  0.00  0.00    -0.023 C 
ATOM      8  C   UNL     1      52.711 156.940  26.425  0.00  0.00    -0.023 C 
ATOM      9  C   UNL     1      53.220 157.626  25.313  0.00  0.00    +0.036 C 
ATOM     10  C   UNL     1      52.138 157.798  27.459  0.00  0.00    +0.029 C 
ATOM     11  C   UNL     1      51.804 157.161  28.769  0.00  0.00    +0.037 C 
ATOM     12  C   UNL     1      52.565 157.968  29.838  0.00  0.00    +0.143 C 
ATOM     13  O   UNL     1      53.875 157.681  29.505  0.00  0.00    -0.354 OA
ATOM     14  C   UNL     1      53.946 156.369  29.037  0.00  0.00    +0.143 C 
ATOM     15  C   UNL     1      52.552 155.862  28.937  0.00  0.00    +0.037 C 
ATOM     16  C   UNL     1      52.306 154.938  27.737  0.00  0.00    +0.029 C 
ENDROOT
BRANCH   6  17
ATOM     17  C   UNL     1      53.482 153.367  25.423  0.00  0.00    +0.045 C 
ATOM     18  C   UNL     1      54.696 152.900  25.081  0.00  0.00    +0.045 C 
ATOM     19  C   UNL     1      55.039 151.494  24.975  0.00  0.00    +0.196 C 
ATOM     20  O   UNL     1      56.193 151.090  24.658  0.00  0.00    -0.287 OA
ATOM     21  C   UNL     1      54.043 150.464  25.235  0.00  0.00    +0.042 C 
ATOM     22  C   UNL     1      52.789 150.915  25.577  0.00  0.00    +0.042 C 
ATOM     23  C   UNL     1      51.825 149.958  25.830  0.00  0.00    +0.003 C 
ATOM     24  C   UNL     1      52.118 148.616  25.741  0.00  0.00    +0.000 C 
ATOM     25  C   UNL     1      53.373 148.178  25.398  0.00  0.00    +0.000 C 
ATOM     26  C   UNL     1      54.352 149.118  25.141  0.00  0.00    +0.003 C 
ATOM     27  C   UNL     1      52.475 152.365  25.678  0.00  0.00    +0.196 C 
ATOM     28  O   UNL     1      51.284 152.610  25.986  0.00  0.00    -0.287 OA
ENDBRANCH   6  17
BRANCH   2  29
ATOM     29  O   UNL     1      56.167 156.223  22.237  0.00  0.00    -0.364 OA
BRANCH  29  30
ATOM     30  C   UNL     1      56.795 156.233  21.014  0.00  0.00    +0.415 C 
ATOM     31  O   UNL     1      56.604 155.270  20.231  0.00  0.00    -0.226 OA
ATOM     32  N   UNL     1      57.655 157.279  20.582  0.00  0.00    -0.188 N 
ATOM     33  H   UNL     1      57.808 158.037  21.191  0.00  0.00    +0.164 HD
BRANCH  32  34
ATOM     34  P   UNL     1      58.449 157.294  19.044  0.00  0.00    +0.426 P 
ATOM     35  O   UNL     1      59.546 156.258  19.020  0.00  0.00    -0.237 OA
BRANCH  34  36
ATOM     36  O   UNL     1      57.417 157.007  17.753  0.00  0.00    -0.310 OA
ATOM     37  H   UNL     1      56.996 156.140  17.862  0.00  0.00    +0.221 HD
ENDBRANCH  34  36
BRANCH  34  38
ATOM     38  O   UNL     1      59.153 158.816  18.800  0.00  0.00    -0.310 OA
ATOM     39  H   UNL     1      59.758 159.014  19.532  0.00  0.00    +0.221 HD
ENDBRANCH  34  38
ENDBRANCH  32  34
ENDBRANCH  29  30
ENDBRANCH   2  29
TORSDOF 6
