REMARK  Name = =
REMARK  0 active torsions:
REMARK  status: ('A' for Active; 'I' for Inactive)
REMARK                            x       y       z     vdW  Elec       q    Type
REMARK                         _______ _______ _______ _____ _____    ______ ____
ROOT
ATOM      1  C   UNL     1      52.120 155.697  28.617  0.00  0.00    +0.202 C 
ATOM      2  N   UNL     1      51.757 154.492  28.166  0.00  0.00    -0.202 NA
ATOM      3  C   UNL     1      52.039 154.101  26.919  0.00  0.00    +0.202 C 
ATOM      4  N   UNL     1      52.704 154.949  26.117  0.00  0.00    -0.202 NA
ATOM      5  C   UNL     1      53.097 156.173  26.511  0.00  0.00    +0.202 C 
ATOM      6  N   UNL     1      52.781 156.506  27.776  0.00  0.00    -0.202 NA
ENDROOT
TORSDOF 0
