REMARK  Name = =
REMARK  1 active torsions:
REMARK  status: ('A' for Active; 'I' for Inactive)
REMARK    1  A    between atoms: N_1  and  S_8
REMARK                            x       y       z     vdW  Elec       q    Type
REMARK                         _______ _______ _______ _____ _____    ______ ____
ROOT
ATOM      1  N   UNL     1      50.574 155.946  28.999  0.00  0.00    -0.190 N 
ATOM      2  C   UNL     1      50.461 157.204  29.658  0.00  0.00    +0.238 C 
ATOM      3  N   UNL     1      49.349 157.560  30.319  0.00  0.00    -0.190 NA
ATOM      4  C   UNL     1      49.238 158.739  30.939  0.00  0.00    +0.203 C 
ATOM      5  N   UNL     1      50.283 159.587  30.889  0.00  0.00    -0.202 NA
ATOM      6  C   UNL     1      51.414 159.274  30.241  0.00  0.00    +0.203 C 
ATOM      7  N   UNL     1      51.479 158.078  29.634  0.00  0.00    -0.190 NA
ATOM      8  H   UNL     1      49.806 155.331  29.038  0.00  0.00    +0.176 HD
ENDROOT
BRANCH   1   9
ATOM      9  S   UNL     1      51.961 155.445  28.147  0.00  0.00    +0.035 S 
ATOM     10  O   UNL     1      52.956 154.828  29.106  0.00  0.00    -0.158 OA
ATOM     11  O   UNL     1      52.645 156.613  27.484  0.00  0.00    -0.158 OA
ATOM     12  H   UNL     1      51.559 154.549  27.207  0.00  0.00    +0.233 HD
ENDBRANCH   1   9
TORSDOF 1
