REMARK  Name = =
REMARK  2 active torsions:
REMARK  status: ('A' for Active; 'I' for Inactive)
REMARK    1  A    between atoms: C_1  and  N_17
REMARK    2  A    between atoms: N_17  and  S_24
REMARK                            x       y       z     vdW  Elec       q    Type
REMARK                         _______ _______ _______ _____ _____    ______ ____
ROOT
ATOM      1  C   UNL     1      49.630 160.119  30.565  0.00  0.00    +0.123 C 
ATOM      2  C   UNL     1      50.871 160.903  30.888  0.00  0.00    -0.003 C 
ATOM      3  C   UNL     1      50.807 161.970  31.708  0.00  0.00    -0.021 C 
ATOM      4  C   UNL     1      51.942 162.705  32.018  0.00  0.00    +0.036 C 
ATOM      5  C   UNL     1      53.135 162.314  31.463  0.00  0.00    +0.176 C 
ATOM      6  C   UNL     1      53.201 161.214  30.617  0.00  0.00    +0.176 C 
ATOM      7  C   UNL     1      52.087 160.502  30.319  0.00  0.00    +0.037 C 
ATOM      8  O   UNL     1      54.515 161.029  30.191  0.00  0.00    -0.435 OA
ATOM      9  C   UNL     1      55.218 162.215  30.505  0.00  0.00    +0.429 C 
ATOM     10  O   UNL     1      54.440 162.805  31.550  0.00  0.00    -0.435 OA
ATOM     11  C   UNL     1      49.539 162.434  32.334  0.00  0.00    +0.029 C 
ATOM     12  C   UNL     1      48.304 161.977  31.690  0.00  0.00    +0.038 C 
ATOM     13  C   UNL     1      48.374 160.861  30.755  0.00  0.00    +0.057 C 
ATOM     14  C   UNL     1      47.802 161.452  29.464  0.00  0.00    +0.144 C 
ATOM     15  O   UNL     1      46.858 162.367  29.987  0.00  0.00    -0.354 OA
ATOM     16  C   UNL     1      47.552 163.061  30.945  0.00  0.00    +0.143 C 
ENDROOT
BRANCH   1  17
ATOM     17  N   UNL     1      49.652 158.799  31.133  0.00  0.00    -0.163 N 
ATOM     18  C   UNL     1      50.014 157.669  30.371  0.00  0.00    +0.242 C 
ATOM     19  N   UNL     1      49.066 156.996  29.707  0.00  0.00    -0.190 NA
ATOM     20  C   UNL     1      49.381 155.894  28.959  0.00  0.00    +0.203 C 
ATOM     21  N   UNL     1      50.651 155.474  28.882  0.00  0.00    -0.202 NA
ATOM     22  C   UNL     1      51.601 156.143  29.544  0.00  0.00    +0.203 C 
ATOM     23  N   UNL     1      51.271 157.225  30.275  0.00  0.00    -0.190 NA
BRANCH  17  24
ATOM     24  S   UNL     1      49.234 158.491  32.795  0.00  0.00    +0.038 S 
ATOM     25  O   UNL     1      47.780 158.391  33.027  0.00  0.00    -0.158 OA
ATOM     26  O   UNL     1      49.747 159.606  33.664  0.00  0.00    -0.158 OA
ATOM     27  H   UNL     1      49.802 157.295  33.104  0.00  0.00    +0.233 HD
ENDBRANCH  17  24
ENDBRANCH   1  17
TORSDOF 2
