REMARK  Name = =
REMARK  3 active torsions:
REMARK  status: ('A' for Active; 'I' for Inactive)
REMARK    1  A    between atoms: C_1  and  C_18
REMARK    2  A    between atoms: C_1  and  N_28
REMARK    3  A    between atoms: N_28  and  S_35
REMARK                            x       y       z     vdW  Elec       q    Type
REMARK                         _______ _______ _______ _____ _____    ______ ____
ROOT
ATOM      1  C   UNL     1      50.577 160.113  30.188  0.00  0.00    +0.154 C 
ATOM      2  C   UNL     1      49.600 160.611  31.226  0.00  0.00    +0.002 C 
ATOM      3  C   UNL     1      48.269 160.672  30.878  0.00  0.00    -0.021 C 
ATOM      4  C   UNL     1      47.349 161.136  31.815  0.00  0.00    +0.036 C 
ATOM      5  C   UNL     1      47.749 161.529  33.072  0.00  0.00    +0.176 C 
ATOM      6  C   UNL     1      49.078 161.470  33.426  0.00  0.00    +0.176 C 
ATOM      7  C   UNL     1      49.973 161.004  32.471  0.00  0.00    +0.038 C 
ATOM      8  O   UNL     1      49.193 161.923  34.736  0.00  0.00    -0.435 OA
ATOM      9  C   UNL     1      47.893 161.824  35.340  0.00  0.00    +0.429 C 
ATOM     10  O   UNL     1      47.080 162.026  34.199  0.00  0.00    -0.435 OA
ATOM     11  C   UNL     1      47.781 160.276  29.560  0.00  0.00    +0.029 C 
ATOM     12  C   UNL     1      48.763 160.275  28.441  0.00  0.00    +0.039 C 
ATOM     13  C   UNL     1      50.134 160.610  28.848  0.00  0.00    +0.062 C 
ATOM     14  C   UNL     1      50.225 162.076  28.658  0.00  0.00    +0.145 C 
ATOM     15  O   UNL     1      49.104 162.510  27.968  0.00  0.00    -0.354 OA
ATOM     16  C   UNL     1      48.433 161.410  27.508  0.00  0.00    +0.143 C 
ENDROOT
BRANCH   1  18
ATOM     17  N   UNL     1      52.838 161.302  29.647  0.00  0.00    -0.240 NA
ATOM     18  C   UNL     1      51.920 160.649  30.552  0.00  0.00    +0.158 C 
ATOM     19  N   UNL     1      52.472 160.601  31.717  0.00  0.00    -0.214 NA
ATOM     20  C   UNL     1      53.758 161.204  31.659  0.00  0.00    +0.166 C 
ATOM     21  C   UNL     1      53.898 161.625  30.271  0.00  0.00    +0.236 C 
ATOM     22  C   UNL     1      55.136 162.302  29.843  0.00  0.00    +0.259 C 
ATOM     23  O   UNL     1      55.247 162.662  28.647  0.00  0.00    -0.272 OA
ATOM     24  N   UNL     1      56.134 162.503  30.831  0.00  0.00    -0.236 N 
ATOM     25  C   UNL     1      55.926 162.061  32.174  0.00  0.00    +0.331 C 
ATOM     26  O   UNL     1      56.845 162.265  33.010  0.00  0.00    -0.250 OA
ATOM     27  N   UNL     1      54.704 161.415  32.517  0.00  0.00    -0.145 NA
ATOM     28  H   UNL     1      56.977 162.951  30.589  0.00  0.00    +0.159 HD
ENDBRANCH   1  18
BRANCH   1  29
ATOM     29  N   UNL     1      50.636 158.693  30.153  0.00  0.00    -0.158 N 
ATOM     30  C   UNL     1      51.641 158.035  29.402  0.00  0.00    +0.242 C 
ATOM     31  N   UNL     1      51.427 157.669  28.137  0.00  0.00    -0.190 NA
ATOM     32  C   UNL     1      52.325 157.045  27.364  0.00  0.00    +0.203 C 
ATOM     33  N   UNL     1      53.516 156.764  27.880  0.00  0.00    -0.202 NA
ATOM     34  C   UNL     1      53.789 157.110  29.153  0.00  0.00    +0.203 C 
ATOM     35  N   UNL     1      52.862 157.743  29.921  0.00  0.00    -0.190 NA
BRANCH  29  36
ATOM     36  S   UNL     1      49.545 157.692  31.020  0.00  0.00    +0.039 S 
ATOM     37  O   UNL     1      49.813 156.228  30.755  0.00  0.00    -0.158 OA
ATOM     38  O   UNL     1      49.700 157.911  32.473  0.00  0.00    -0.158 OA
ATOM     39  H   UNL     1      48.291 158.016  30.606  0.00  0.00    +0.233 HD
ENDBRANCH  29  36
ENDBRANCH   1  29
TORSDOF 3
