MODEL 1
REMARK VINA RESULT:    -6.351      0.000      0.000
REMARK INTER + INTRA:          -9.720
REMARK INTER:                  -9.321
REMARK INTRA:                  -0.399
REMARK UNBOUND:                -0.399
REMARK  Name = =
REMARK  10 active torsions:
REMARK  status: ('A' for Active; 'I' for Inactive)
REMARK    1  A    between atoms: C_1  and  C_20
REMARK    2  A    between atoms: C_2  and  N_7
REMARK    3  A    between atoms: C_3  and  O_34
REMARK    4  A    between atoms: C_4  and  O_33
REMARK    5  A    between atoms: C_5  and  O_32
REMARK    6  A    between atoms: C_8  and  N_13
REMARK    7  A    between atoms: C_17  and  O_19
REMARK    8  A    between atoms: C_20  and  O_22
REMARK    9  A    between atoms: O_22  and  C_23
REMARK   10  A    between atoms: C_23  and  C_27
REMARK                            x       y       z     vdW  Elec       q    Type
REMARK                         _______ _______ _______ _____ _____    ______ ____
ROOT
ATOM      1  C   UNL     1      61.121 161.574  39.803  0.00  0.00    +0.096 C 
ATOM      2  C   UNL     1      60.455 161.209  40.899  0.00  0.00    +0.093 C 
ATOM      3  C   UNL     1      61.127 160.507  41.927  0.00  0.00    +0.184 C 
ATOM      4  C   UNL     1      62.457 160.188  41.852  0.00  0.00    +0.203 C 
ATOM      5  C   UNL     1      63.122 160.592  40.696  0.00  0.00    +0.171 C 
ATOM      6  C   UNL     1      62.504 161.270  39.673  0.00  0.00    +0.048 C 
ENDROOT
BRANCH   2   7
ATOM      7  N   UNL     1      59.096 161.616  41.161  0.00  0.00    -0.290 N 
ATOM      8  C   UNL     1      58.112 160.778  40.512  0.00  0.00    +0.163 C 
ATOM      9  C   UNL     1      56.771 160.817  41.080  0.00  0.00    +0.041 C 
ATOM     10  C   UNL     1      56.711 161.526  42.387  0.00  0.00    +0.005 C 
ATOM     11  C   UNL     1      57.357 162.884  42.283  0.00  0.00    +0.022 C 
ATOM     12  C   UNL     1      58.771 162.769  41.899  0.00  0.00    +0.092 C 
BRANCH   8  13
ATOM     13  N   UNL     1      58.569 159.466  40.140  0.00  0.00    -0.165 N 
ATOM     14  C   UNL     1      58.760 159.109  38.783  0.00  0.00    +0.310 C 
ATOM     15  O   UNL     1      59.184 157.959  38.518  0.00  0.00    -0.252 OA
ATOM     16  N   UNL     1      58.501 159.972  37.698  0.00  0.00    -0.313 N 
ATOM     17  C   UNL     1      58.724 158.446  41.089  0.00  0.00    +0.410 C 
ATOM     18  O   UNL     1      59.184 157.296  40.784  0.00  0.00    -0.226 OA
ATOM     19  H   UNL     1      58.167 160.883  37.863  0.00  0.00    +0.146 HD
ATOM     20  H   UNL     1      58.654 159.663  36.776  0.00  0.00    +0.146 HD
BRANCH  17  21
ATOM     21  O   UNL     1      58.386 158.610  42.405  0.00  0.00    -0.466 OA
ATOM     22  H   UNL     1      57.949 157.922  42.866  0.00  0.00    +0.297 HD
ENDBRANCH  17  21
ENDBRANCH   8  13
ENDBRANCH   2   7
BRANCH   1  23
ATOM     23  C   UNL     1      60.495 162.119  38.616  0.00  0.00    +0.347 C 
ATOM     24  O   UNL     1      60.799 161.556  37.497  0.00  0.00    -0.244 OA
BRANCH  23  25
ATOM     25  O   UNL     1      59.622 163.131  38.478  0.00  0.00    -0.423 OA
BRANCH  25  26
ATOM     26  C   UNL     1      59.849 164.501  38.312  0.00  0.00    +0.159 C 
ATOM     27  C   UNL     1      59.716 165.196  39.404  0.00  0.00    +0.071 C 
ATOM     28  I   UNL     1      59.939 167.230  39.737  0.00  0.00    -0.039 I 
BRANCH  26  30
ATOM     29  O   UNL     1      59.184 164.981  36.079  0.00  0.00    -0.349 OA
ATOM     30  C   UNL     1      60.205 165.095  37.022  0.00  0.00    +0.172 C 
ATOM     31  C   UNL     1      61.552 164.799  36.454  0.00  0.00    +0.038 C 
ATOM     32  C   UNL     1      61.762 165.890  35.401  0.00  0.00    +0.006 C 
ATOM     33  C   UNL     1      60.736 166.058  34.585  0.00  0.00    +0.032 C 
ATOM     34  C   UNL     1      59.544 165.200  34.785  0.00  0.00    +0.143 C 
ENDBRANCH  26  30
ENDBRANCH  25  26
ENDBRANCH  23  25
ENDBRANCH   1  23
BRANCH   5  35
ATOM     35  O   UNL     1      64.491 160.297  40.558  0.00  0.00    -0.503 OA
ATOM     36  H   UNL     1      65.114 160.683  41.142  0.00  0.00    +0.292 HD
ENDBRANCH   5  35
BRANCH   4  37
ATOM     37  O   UNL     1      63.099 159.508  42.855  0.00  0.00    -0.501 OA
ATOM     38  H   UNL     1      63.771 159.932  43.352  0.00  0.00    +0.292 HD
ENDBRANCH   4  37
BRANCH   3  39
ATOM     39  O   UNL     1      60.352 160.153  43.032  0.00  0.00    -0.502 OA
ATOM     40  H   UNL     1      60.410 160.649  43.824  0.00  0.00    +0.292 HD
ENDBRANCH   3  39
TORSDOF 10
ENDMDL
