REMARK  Name = =
REMARK  10 active torsions:
REMARK  status: ('A' for Active; 'I' for Inactive)
REMARK    1  A    between atoms: C_1  and  C_20
REMARK    2  A    between atoms: C_2  and  N_7
REMARK    3  A    between atoms: C_3  and  O_34
REMARK    4  A    between atoms: C_4  and  O_33
REMARK    5  A    between atoms: C_5  and  O_32
REMARK    6  A    between atoms: C_8  and  N_13
REMARK    7  A    between atoms: C_17  and  O_19
REMARK    8  A    between atoms: C_20  and  O_22
REMARK    9  A    between atoms: O_22  and  C_23
REMARK   10  A    between atoms: C_23  and  C_27
REMARK                            x       y       z     vdW  Elec       q    Type
REMARK                         _______ _______ _______ _____ _____    ______ ____
ROOT
ATOM      1  C   UNL     1      52.292 158.906  29.703  0.00  0.00    +0.096 C 
ATOM      2  C   UNL     1      51.241 158.914  30.524  0.00  0.00    +0.093 C 
ATOM      3  C   UNL     1      51.094 159.959  31.466  0.00  0.00    +0.184 C 
ATOM      4  C   UNL     1      51.993 160.987  31.570  0.00  0.00    +0.203 C 
ATOM      5  C   UNL     1      53.075 160.950  30.692  0.00  0.00    +0.171 C 
ATOM      6  C   UNL     1      53.255 159.950  29.767  0.00  0.00    +0.048 C 
ENDROOT
BRANCH   2   7
ATOM      7  N   UNL     1      50.153 157.974  30.411  0.00  0.00    -0.290 N 
ATOM      8  C   UNL     1      48.849 158.592  30.517  0.00  0.00    +0.163 C 
ATOM      9  C   UNL     1      47.739 157.831  29.960  0.00  0.00    +0.041 C 
ATOM     10  C   UNL     1      48.179 156.659  29.156  0.00  0.00    +0.005 C 
ATOM     11  C   UNL     1      49.151 155.814  29.939  0.00  0.00    +0.022 C 
ATOM     12  C   UNL     1      50.349 156.585  30.303  0.00  0.00    +0.092 C 
BRANCH   8  13
ATOM     13  N   UNL     1      48.811 160.002  30.237  0.00  0.00    -0.165 N 
ATOM     14  C   UNL     1      48.202 160.915  31.131  0.00  0.00    +0.310 C 
ATOM     15  O   UNL     1      48.220 162.137  30.848  0.00  0.00    -0.252 OA
ATOM     16  N   UNL     1      47.568 160.536  32.333  0.00  0.00    -0.313 N 
ATOM     17  C   UNL     1      49.260 160.520  29.014  0.00  0.00    +0.410 C 
ATOM     18  O   UNL     1      49.288 161.772  28.774  0.00  0.00    -0.226 OA
ATOM     19  H   UNL     1      47.532 159.587  32.592  0.00  0.00    +0.146 HD
ATOM     20  H   UNL     1      47.162 161.221  32.912  0.00  0.00    +0.146 HD
BRANCH  17  21
ATOM     21  O   UNL     1      49.692 159.719  27.992  0.00  0.00    -0.466 OA
ATOM     22  H   UNL     1      49.699 158.788  28.097  0.00  0.00    +0.297 HD
ENDBRANCH  17  21
ENDBRANCH   8  13
ENDBRANCH   2   7
BRANCH   1  23
ATOM     23  C   UNL     1      52.642 157.796  28.842  0.00  0.00    +0.347 C 
ATOM     24  O   UNL     1      53.632 157.982  28.038  0.00  0.00    -0.244 OA
BRANCH  23  25
ATOM     25  O   UNL     1      52.103 156.569  28.741  0.00  0.00    -0.423 OA
BRANCH  25  26
ATOM     26  C   UNL     1      52.418 155.514  27.878  0.00  0.00    +0.159 C 
ATOM     27  C   UNL     1      51.908 154.370  28.232  0.00  0.00    +0.071 C 
ATOM     28  I   UNL     1      52.040 152.506  27.336  0.00  0.00    -0.039 I 
BRANCH  26  30
ATOM     29  O   UNL     1      52.781 156.702  25.850  0.00  0.00    -0.349 OA
ATOM     30  C   UNL     1      53.247 155.687  26.684  0.00  0.00    +0.172 C 
ATOM     31  C   UNL     1      53.669 154.469  25.933  0.00  0.00    +0.038 C 
ATOM     32  C   UNL     1      54.843 154.947  25.074  0.00  0.00    +0.006 C 
ATOM     33  C   UNL     1      54.609 156.068  24.415  0.00  0.00    +0.032 C 
ATOM     34  C   UNL     1      53.283 156.708  24.584  0.00  0.00    +0.143 C 
ENDBRANCH  26  30
ENDBRANCH  25  26
ENDBRANCH  23  25
ENDBRANCH   1  23
BRANCH   5  35
ATOM     35  O   UNL     1      54.033 161.979  30.746  0.00  0.00    -0.503 OA
ATOM     36  H   UNL     1      53.938 162.675  31.366  0.00  0.00    +0.292 HD
ENDBRANCH   5  35
BRANCH   4  37
ATOM     37  O   UNL     1      51.841 161.996  32.486  0.00  0.00    -0.501 OA
ATOM     38  H   UNL     1      51.104 161.996  33.065  0.00  0.00    +0.292 HD
ENDBRANCH   4  37
BRANCH   3  39
ATOM     39  O   UNL     1      49.973 159.882  32.293  0.00  0.00    -0.502 OA
ATOM     40  H   UNL     1      49.372 159.169  32.203  0.00  0.00    +0.292 HD
ENDBRANCH   3  39
TORSDOF 10
