REMARK  Name = =
REMARK  0 active torsions:
REMARK  status: ('A' for Active; 'I' for Inactive)
REMARK                            x       y       z     vdW  Elec       q    Type
REMARK                         _______ _______ _______ _____ _____    ______ ____
ROOT
ATOM      1  N   UNL     1     -11.529 -44.474  31.987  0.00  0.00    -0.181 N 
ATOM      2  S   UNL     1     -12.874 -43.648  31.300  0.00  0.00    +0.076 S 
ATOM      3  O   UNL     1     -14.164 -43.995  31.959  0.00  0.00    -0.150 OA
ATOM      4  O   UNL     1     -12.597 -42.173  31.324  0.00  0.00    -0.150 OA
ATOM      5  C   UNL     1     -12.752 -44.285  29.677  0.00  0.00    +0.130 C 
ATOM      6  C   UNL     1     -11.672 -45.129  29.676  0.00  0.00    +0.074 C 
ATOM      7  C   UNL     1     -11.393 -45.753  28.461  0.00  0.00    +0.006 C 
ATOM      8  C   UNL     1     -12.122 -45.559  27.326  0.00  0.00    +0.000 C 
ATOM      9  C   UNL     1     -13.198 -44.708  27.353  0.00  0.00    +0.001 C 
ATOM     10  C   UNL     1     -13.518 -44.068  28.526  0.00  0.00    +0.020 C 
ATOM     11  C   UNL     1     -10.989 -45.246  30.934  0.00  0.00    +0.266 C 
ATOM     12  O   UNL     1      -9.956 -45.990  31.127  0.00  0.00    -0.269 OA
ATOM     13  H   UNL     1     -11.205 -44.420  32.915  0.00  0.00    +0.177 HD
ENDROOT
TORSDOF 0
