REMARK  Name = =
REMARK  0 active torsions:
REMARK  status: ('A' for Active; 'I' for Inactive)
REMARK                            x       y       z     vdW  Elec       q    Type
REMARK                         _______ _______ _______ _____ _____    ______ ____
ROOT
ATOM      1  C   UNL     1      52.779 155.951  28.396  0.00  0.00    +0.000 C 
ATOM      2  C   UNL     1      52.287 157.384  28.619  0.00  0.00    +0.000 C 
ATOM      3  C   UNL     1      51.420 157.193  29.852  0.00  0.00    +0.000 C 
ATOM      4  C   UNL     1      50.917 155.763  29.791  0.00  0.00    +0.000 C 
ATOM      5  C   UNL     1      51.442 155.199  28.483  0.00  0.00    +0.000 C 
ENDROOT
TORSDOF 0
