REMARK  Name = =
REMARK  0 active torsions:
REMARK  status: ('A' for Active; 'I' for Inactive)
REMARK                            x       y       z     vdW  Elec       q    Type
REMARK                         _______ _______ _______ _____ _____    ______ ____
ROOT
ATOM      1  C   UNL     1      54.192 156.832  29.539  0.00  0.00    +0.000 C 
ATOM      2  C   UNL     1      53.666 155.593  30.172  0.00  0.00    +0.000 C 
ATOM      3  C   UNL     1      52.154 155.853  30.184  0.00  0.00    +0.000 C 
ATOM      4  C   UNL     1      51.563 154.842  31.121  0.00  0.00    +0.000 C 
ATOM      5  C   UNL     1      51.955 153.461  30.708  0.00  0.00    +0.000 C 
ATOM      6  C   UNL     1      50.879 152.451  30.769  0.00  0.00    +0.000 C 
ATOM      7  C   UNL     1      49.607 152.911  30.152  0.00  0.00    +0.000 C 
ATOM      8  C   UNL     1      49.196 154.296  30.485  0.00  0.00    +0.000 C 
ATOM      9  C   UNL     1      50.119 155.030  31.402  0.00  0.00    +0.000 C 
ATOM     10  C   UNL     1      48.512 151.899  30.237  0.00  0.00    +0.000 C 
ATOM     11  C   UNL     1      48.283 151.570  31.688  0.00  0.00    +0.000 C 
ATOM     12  C   UNL     1      49.519 151.021  32.323  0.00  0.00    +0.000 C 
ATOM     13  C   UNL     1      50.744 151.836  32.116  0.00  0.00    +0.000 C 
ATOM     14  C   UNL     1      52.732 153.390  29.436  0.00  0.00    +0.000 C 
ATOM     15  C   UNL     1      53.887 154.341  29.390  0.00  0.00    +0.000 C 
ATOM     16  C   UNL     1      52.094 157.258  30.681  0.00  0.00    +0.000 C 
ATOM     17  C   UNL     1      53.392 157.924  30.228  0.00  0.00    +0.000 C 
ENDROOT
TORSDOF 0
