REMARK  Name = =
REMARK  0 active torsions:
REMARK  status: ('A' for Active; 'I' for Inactive)
REMARK                            x       y       z     vdW  Elec       q    Type
REMARK                         _______ _______ _______ _____ _____    ______ ____
ROOT
ATOM      1  C   UNL     1      52.671 157.147  27.788  0.00  0.00    +0.003 C 
ATOM      2  C   UNL     1      51.789 157.549  28.772  0.00  0.00    +0.018 C 
ATOM      3  C   UNL     1      50.870 156.648  29.267  0.00  0.00    +0.081 C 
ATOM      4  N   UNL     1      50.874 155.403  28.762  0.00  0.00    -0.245 NA
ATOM      5  C   UNL     1      51.725 154.992  27.803  0.00  0.00    +0.081 C 
ATOM      6  C   UNL     1      52.659 155.863  27.280  0.00  0.00    +0.018 C 
ATOM      7  C   UNL     1      53.553 155.496  26.299  0.00  0.00    +0.001 C 
ATOM      8  C   UNL     1      53.495 154.199  25.832  0.00  0.00    +0.000 C 
ATOM      9  C   UNL     1      52.567 153.304  26.338  0.00  0.00    +0.002 C 
ATOM     10  C   UNL     1      51.683 153.687  27.317  0.00  0.00    +0.019 C 
ATOM     11  C   UNL     1      49.980 157.045  30.257  0.00  0.00    +0.019 C 
ATOM     12  C   UNL     1      49.969 158.320  30.781  0.00  0.00    +0.002 C 
ATOM     13  C   UNL     1      50.892 159.217  30.280  0.00  0.00    +0.000 C 
ATOM     14  C   UNL     1      51.780 158.825  29.294  0.00  0.00    +0.001 C 
ENDROOT
TORSDOF 0
