REMARK  Name = =
REMARK  1 active torsions:
REMARK  status: ('A' for Active; 'I' for Inactive)
REMARK    1  A    between atoms: N_1  and  C_19
REMARK                            x       y       z     vdW  Elec       q    Type
REMARK                         _______ _______ _______ _____ _____    ______ ____
ROOT
ATOM      1  N   UNL     1      52.780 157.625  28.375  0.00  0.00    -0.309 N 
ATOM      2  C   UNL     1      53.579 157.711  29.564  0.00  0.00    +0.077 C 
ATOM      3  C   UNL     1      54.977 158.210  29.377  0.00  0.00    +0.026 C 
ATOM      4  C   UNL     1      54.982 159.372  28.480  0.00  0.00    +0.061 C 
ATOM      5  C   UNL     1      56.261 160.121  28.221  0.00  0.00    +0.170 C 
ATOM      6  O   UNL     1      55.675 161.433  27.946  0.00  0.00    -0.479 OA
ATOM      7  C   UNL     1      54.584 161.594  28.826  0.00  0.00    +0.134 C 
ATOM      8  C   UNL     1      54.159 160.362  29.209  0.00  0.00    +0.011 C 
ATOM      9  C   UNL     1      53.145 160.100  30.061  0.00  0.00    -0.021 C 
ATOM     10  C   UNL     1      52.438 161.137  30.617  0.00  0.00    -0.004 C 
ATOM     11  C   UNL     1      52.824 162.441  30.256  0.00  0.00    +0.003 C 
ATOM     12  C   UNL     1      53.885 162.650  29.372  0.00  0.00    +0.037 C 
ATOM     13  C   UNL     1      52.865 158.682  30.487  0.00  0.00    +0.046 C 
ATOM     14  C   UNL     1      57.151 160.137  29.424  0.00  0.00    +0.044 C 
ATOM     15  C   UNL     1      56.517 159.549  30.654  0.00  0.00    +0.004 C 
ATOM     16  C   UNL     1      55.933 158.169  30.460  0.00  0.00    +0.002 C 
ATOM     17  C   UNL     1      54.438 158.952  27.145  0.00  0.00    +0.029 C 
ATOM     18  C   UNL     1      53.009 158.529  27.343  0.00  0.00    +0.091 C 
ENDROOT
BRANCH   1  19
ATOM     19  C   UNL     1      52.045 156.492  28.164  0.00  0.00    +0.051 A 
ATOM     20  C   UNL     1      50.844 156.278  28.833  0.00  0.00    +0.031 A 
ATOM     21  C   UNL     1      50.106 155.137  28.692  0.00  0.00    +0.082 A 
ATOM     22  N   UNL     1      50.540 154.180  27.884  0.00  0.00    -0.245 NA
ATOM     23  C   UNL     1      51.682 154.307  27.204  0.00  0.00    +0.082 A 
ATOM     24  C   UNL     1      52.452 155.472  27.335  0.00  0.00    +0.031 A 
ATOM     25  C   UNL     1      53.607 155.553  26.606  0.00  0.00    +0.003 C 
ATOM     26  C   UNL     1      54.059 154.550  25.747  0.00  0.00    +0.000 C 
ATOM     27  C   UNL     1      53.280 153.419  25.640  0.00  0.00    +0.002 C 
ATOM     28  C   UNL     1      52.110 153.297  26.356  0.00  0.00    +0.019 C 
ATOM     29  C   UNL     1      48.911 154.969  29.359  0.00  0.00    +0.019 C 
ATOM     30  C   UNL     1      48.470 155.986  30.175  0.00  0.00    +0.002 C 
ATOM     31  C   UNL     1      49.166 157.159  30.356  0.00  0.00    +0.000 C 
ATOM     32  C   UNL     1      50.364 157.250  29.649  0.00  0.00    +0.003 C 
ENDBRANCH   1  19
TORSDOF 1
