REMARK  Name = =
REMARK  1 active torsions:
REMARK  status: ('A' for Active; 'I' for Inactive)
REMARK    1  A    between atoms: C_1  and  C_6
REMARK                            x       y       z     vdW  Elec       q    Type
REMARK                         _______ _______ _______ _____ _____    ______ ____
ROOT
ATOM      1  C   UNL     1      52.822 155.119  27.577  0.00  0.00    +0.129 C 
ATOM      2  N   UNL     1      52.623 155.893  26.579  0.00  0.00    -0.202 NA
ATOM      3  C   UNL     1      52.747 155.241  25.314  0.00  0.00    +0.107 C 
ATOM      4  C   UNL     1      52.871 153.793  25.641  0.00  0.00    +0.089 C 
ATOM      5  N   UNL     1      53.111 153.815  27.086  0.00  0.00    -0.284 NA
ATOM      6  H   UNL     1      54.087 153.585  27.275  0.00  0.00    +0.125 HD
ENDROOT
BRANCH   1   7
ATOM      7  C   UNL     1      52.775 155.450  29.025  0.00  0.00    +0.031 C 
ATOM      8  C   UNL     1      52.379 156.900  29.226  0.00  0.00    +0.003 C 
ATOM      9  C   UNL     1      50.891 156.932  29.385  0.00  0.00    +0.000 C 
ATOM     10  C   UNL     1      50.447 155.513  29.076  0.00  0.00    +0.000 C 
ATOM     11  C   UNL     1      51.605 154.735  29.677  0.00  0.00    +0.003 C 
ENDBRANCH   1   7
TORSDOF 1
