REMARK  Name = =
REMARK  5 active torsions:
REMARK  status: ('A' for Active; 'I' for Inactive)
REMARK    1  A    between atoms: C_1  and  N_15
REMARK    2  A    between atoms: C_12  and  O_33
REMARK    3  A    between atoms: O_33  and  P_34
REMARK    4  A    between atoms: P_34  and  N_36
REMARK    5  A    between atoms: P_34  and  S_37
REMARK                            x       y       z     vdW  Elec       q    Type
REMARK                         _______ _______ _______ _____ _____    ______ ____
ROOT
ATOM      1  C   UNL     1      51.781 158.106  29.113  0.00  0.00    +0.051 A 
ATOM      2  C   UNL     1      52.466 159.022  29.885  0.00  0.00    +0.031 A 
ATOM      3  C   UNL     1      51.830 159.747  30.893  0.00  0.00    +0.085 A 
ATOM      4  N   UNL     1      50.514 159.543  31.110  0.00  0.00    -0.245 NA
ATOM      5  C   UNL     1      49.799 158.666  30.389  0.00  0.00    +0.082 A 
ATOM      6  C   UNL     1      50.437 157.945  29.387  0.00  0.00    +0.031 A 
ATOM      7  C   UNL     1      49.663 157.055  28.672  0.00  0.00    +0.003 C 
ATOM      8  C   UNL     1      48.318 156.855  28.902  0.00  0.00    +0.000 C 
ATOM      9  C   UNL     1      47.692 157.575  29.900  0.00  0.00    +0.002 C 
ATOM     10  C   UNL     1      48.456 158.479  30.636  0.00  0.00    +0.019 C 
ATOM     11  C   UNL     1      52.540 160.651  31.644  0.00  0.00    +0.056 C 
ATOM     12  C   UNL     1      53.871 160.835  31.398  0.00  0.00    +0.148 C 
ATOM     13  C   UNL     1      54.498 160.109  30.391  0.00  0.00    +0.037 C 
ATOM     14  C   UNL     1      53.801 159.200  29.632  0.00  0.00    +0.006 C 
ENDROOT
BRANCH   1  15
ATOM     15  N   UNL     1      52.392 157.391  28.127  0.00  0.00    -0.309 N 
ATOM     16  C   UNL     1      51.636 156.405  27.435  0.00  0.00    +0.077 C 
ATOM     17  C   UNL     1      52.103 156.175  26.030  0.00  0.00    +0.026 C 
ATOM     18  C   UNL     1      53.521 155.855  26.041  0.00  0.00    +0.061 C 
ATOM     19  C   UNL     1      54.231 155.493  24.769  0.00  0.00    +0.170 C 
ATOM     20  O   UNL     1      55.243 154.545  25.201  0.00  0.00    -0.479 OA
ATOM     21  C   UNL     1      54.622 153.792  26.229  0.00  0.00    +0.134 C 
ATOM     22  C   UNL     1      53.589 154.525  26.736  0.00  0.00    +0.011 C 
ATOM     23  C   UNL     1      52.718 154.196  27.727  0.00  0.00    -0.021 C 
ATOM     24  C   UNL     1      52.928 152.946  28.286  0.00  0.00    -0.004 C 
ATOM     25  C   UNL     1      53.962 152.111  27.841  0.00  0.00    +0.003 C 
ATOM     26  C   UNL     1      54.799 152.553  26.812  0.00  0.00    +0.037 C 
ATOM     27  C   UNL     1      51.611 155.079  28.149  0.00  0.00    +0.046 C 
ATOM     28  C   UNL     1      53.313 154.864  23.763  0.00  0.00    +0.044 C 
ATOM     29  C   UNL     1      52.018 154.401  24.379  0.00  0.00    +0.004 C 
ATOM     30  C   UNL     1      51.262 155.501  25.080  0.00  0.00    +0.002 C 
ATOM     31  C   UNL     1      54.386 156.811  26.826  0.00  0.00    +0.029 C 
ATOM     32  C   UNL     1      53.539 157.891  27.495  0.00  0.00    +0.091 C 
ENDBRANCH   1  15
BRANCH  12  33
ATOM     33  O   UNL     1      54.597 161.730  32.132  0.00  0.00    -0.424 OA
BRANCH  33  34
ATOM     34  P   UNL     1      54.622 163.389  31.682  0.00  0.00    +0.371 P 
ATOM     35  O   UNL     1      53.291 164.023  31.967  0.00  0.00    -0.247 OA
BRANCH  34  36
ATOM     36  N   UNL     1      55.876 164.218  32.573  0.00  0.00    -0.241 NA
ATOM     37  H   UNL     1      55.690 164.141  33.573  0.00  0.00    +0.129 HD
ATOM     38  H   UNL     1      55.890 165.202  32.305  0.00  0.00    +0.129 HD
ENDBRANCH  34  36
BRANCH  34  39
ATOM     39  S   UNL     1      55.058 163.582  29.608  0.00  0.00    -0.059 S 
ATOM     40  H   UNL     1      54.099 162.946  28.882  0.00  0.00    +0.114 HD
ENDBRANCH  34  39
ENDBRANCH  33  34
ENDBRANCH  12  33
TORSDOF 5
