REMARK  Name = =
REMARK  3 active torsions:
REMARK  status: ('A' for Active; 'I' for Inactive)
REMARK    1  A    between atoms: C_1  and  C_11
REMARK    2  A    between atoms: C_8  and  C_21
REMARK    3  A    between atoms: C_11  and  C_16
REMARK                            x       y       z     vdW  Elec       q    Type
REMARK                         _______ _______ _______ _____ _____    ______ ____
ROOT
ATOM      1  C   UNL     1      49.088 160.055  31.559  0.00  0.00    +0.032 C 
ATOM      2  C   UNL     1      48.078 159.721  30.474  0.00  0.00    +0.052 C 
ATOM      3  C   UNL     1      48.121 158.216  30.296  0.00  0.00    +0.206 C 
ATOM      4  O   UNL     1      49.465 157.814  30.120  0.00  0.00    -0.476 OA
ATOM      5  C   UNL     1      50.534 158.688  30.206  0.00  0.00    +0.135 C 
ATOM      6  C   UNL     1      50.409 159.879  30.942  0.00  0.00    +0.012 C 
ATOM      7  C   UNL     1      51.475 160.712  31.006  0.00  0.00    +0.009 C 
ATOM      8  C   UNL     1      52.668 160.410  30.367  0.00  0.00    +0.068 C 
ATOM      9  C   UNL     1      52.803 159.250  29.644  0.00  0.00    +0.013 C 
ATOM     10  C   UNL     1      51.722 158.399  29.577  0.00  0.00    +0.037 C 
ENDROOT
BRANCH   1  11
ATOM     11  C   UNL     1      48.811 161.288  32.297  0.00  0.00    +0.033 C 
ATOM     12  C   UNL     1      50.109 161.945  32.691  0.00  0.00    +0.003 C 
ATOM     13  C   UNL     1      50.211 161.900  34.198  0.00  0.00    +0.000 C 
ATOM     14  C   UNL     1      48.780 161.785  34.672  0.00  0.00    +0.000 C 
ATOM     15  C   UNL     1      48.199 160.849  33.642  0.00  0.00    +0.003 C 
BRANCH  11  16
ATOM     16  C   UNL     1      47.866 162.244  31.679  0.00  0.00    +0.129 C 
ATOM     17  N   UNL     1      47.929 163.517  31.914  0.00  0.00    -0.202 NA
ATOM     18  C   UNL     1      46.922 164.218  31.210  0.00  0.00    +0.107 C 
ATOM     19  C   UNL     1      46.438 163.237  30.185  0.00  0.00    +0.089 C 
ATOM     20  N   UNL     1      46.795 161.978  30.790  0.00  0.00    -0.284 NA
ATOM     21  H   UNL     1      47.089 161.314  30.073  0.00  0.00    +0.125 HD
ENDBRANCH  11  16
ENDBRANCH   1  11
BRANCH   8  22
ATOM     22  C   UNL     1      53.740 161.376  30.504  0.00  0.00    +0.100 C 
ATOM     23  N   UNL     1      54.597 162.142  30.634  0.00  0.00    -0.191 NA
ENDBRANCH   8  22
TORSDOF 3
