REMARK  Name = =
REMARK  3 active torsions:
REMARK  status: ('A' for Active; 'I' for Inactive)
REMARK    1  A    between atoms: C_1  and  C_12
REMARK    2  A    between atoms: C_8  and  C_22
REMARK    3  A    between atoms: C_12  and  C_17
REMARK                            x       y       z     vdW  Elec       q    Type
REMARK                         _______ _______ _______ _____ _____    ______ ____
ROOT
ATOM      1  C   UNL     1      49.591 159.553  30.907  0.00  0.00    +0.072 C 
ATOM      2  C   UNL     1      48.595 159.294  32.024  0.00  0.00    +0.061 C 
ATOM      3  C   UNL     1      47.228 159.021  31.370  0.00  0.00    +0.207 C 
ATOM      4  O   UNL     1      47.397 158.430  30.065  0.00  0.00    -0.476 OA
ATOM      5  C   UNL     1      48.589 157.687  29.831  0.00  0.00    +0.135 C 
ATOM      6  C   UNL     1      49.778 158.257  30.274  0.00  0.00    +0.021 C 
ATOM      7  C   UNL     1      50.944 157.582  30.076  0.00  0.00    +0.010 C 
ATOM      8  C   UNL     1      50.898 156.342  29.433  0.00  0.00    +0.068 C 
ATOM      9  C   UNL     1      49.731 155.777  28.995  0.00  0.00    +0.013 C 
ATOM     10  C   UNL     1      48.559 156.466  29.200  0.00  0.00    +0.037 C 
ATOM     11  I   UNL     1      48.359 160.688  29.496  0.00  0.00    -0.071 I 
ENDROOT
BRANCH   1  12
ATOM     12  C   UNL     1      50.699 160.461  31.188  0.00  0.00    +0.041 C 
ATOM     13  C   UNL     1      50.908 161.384  30.012  0.00  0.00    +0.004 C 
ATOM     14  C   UNL     1      52.282 161.965  30.244  0.00  0.00    +0.000 C 
ATOM     15  C   UNL     1      53.034 160.720  30.670  0.00  0.00    +0.000 C 
ATOM     16  C   UNL     1      52.039 159.942  31.505  0.00  0.00    +0.004 C 
BRANCH  12  17
ATOM     17  C   UNL     1      50.241 161.376  32.313  0.00  0.00    +0.130 C 
ATOM     18  N   UNL     1      49.685 162.507  32.115  0.00  0.00    -0.202 NA
ATOM     19  C   UNL     1      49.336 163.197  33.336  0.00  0.00    +0.107 C 
ATOM     20  C   UNL     1      49.432 162.106  34.390  0.00  0.00    +0.089 C 
ATOM     21  N   UNL     1      50.320 161.170  33.710  0.00  0.00    -0.284 NA
ATOM     22  H   UNL     1      51.279 161.323  34.023  0.00  0.00    +0.125 HD
ENDBRANCH  12  17
ENDBRANCH   1  12
BRANCH   8  23
ATOM     23  C   UNL     1      52.160 155.658  29.242  0.00  0.00    +0.100 C 
ATOM     24  N   UNL     1      53.179 155.121  29.073  0.00  0.00    -0.191 NA
ENDBRANCH   8  23
TORSDOF 3
