MODEL 1
REMARK VINA RESULT:    -8.717      0.000      0.000
REMARK INTER + INTRA:         -11.476
REMARK INTER:                 -10.755
REMARK INTRA:                  -0.721
REMARK UNBOUND:                -0.721
REMARK  Name = =
REMARK  4 active torsions:
REMARK  status: ('A' for Active; 'I' for Inactive)
REMARK    1  A    between atoms: N_1  and  C_38
REMARK    2  A    between atoms: C_34  and  O_40
REMARK    3  A    between atoms: O_40  and  N_41
REMARK    4  A    between atoms: N_41  and  N_44
REMARK                            x       y       z     vdW  Elec       q    Type
REMARK                         _______ _______ _______ _____ _____    ______ ____
ROOT
ATOM      1  N   UNL     1     -25.752 -41.542  27.872  0.00  0.00    -0.153 N 
ATOM      2  N   UNL     1     -26.560 -42.533  28.176  0.00  0.00    -0.149 NA
ATOM      3  C   UNL     1     -26.303 -43.555  27.361  0.00  0.00    +0.220 C 
ATOM      4  N   UNL     1     -25.322 -43.183  26.546  0.00  0.00    -0.192 NA
ATOM      5  C   UNL     1     -24.975 -41.930  26.862  0.00  0.00    +0.214 C 
ATOM      6  N   UNL     1     -23.948 -41.148  26.222  0.00  0.00    -0.277 N 
ATOM      7  C   UNL     1     -24.343 -40.315  25.108  0.00  0.00    +0.111 C 
ATOM      8  C   UNL     1     -24.981 -41.140  23.993  0.00  0.00    +0.094 C 
ATOM      9  N   UNL     1     -25.654 -40.181  23.131  0.00  0.00    -0.271 NA
ATOM     10  C   UNL     1     -25.091 -40.149  21.809  0.00  0.00    +0.073 C 
ATOM     11  C   UNL     1     -26.222 -40.268  20.834  0.00  0.00    +0.019 C 
ATOM     12  C   UNL     1     -27.424 -39.879  21.698  0.00  0.00    +0.019 C 
ATOM     13  C   UNL     1     -27.043 -40.563  23.014  0.00  0.00    +0.072 C 
ATOM     14  C   UNL     1     -24.318 -38.874  21.575  0.00  0.00    +0.085 C 
ATOM     15  N   UNL     1     -23.631 -38.940  20.295  0.00  0.00    -0.296 NA
ATOM     16  C   UNL     1     -22.223 -38.691  20.402  0.00  0.00    +0.069 C 
ATOM     17  C   UNL     1     -21.455 -39.875  19.811  0.00  0.00    +0.017 C 
ATOM     18  C   UNL     1     -20.277 -40.202  20.701  0.00  0.00    +0.003 C 
ATOM     19  C   UNL     1     -19.150 -39.234  20.543  0.00  0.00    +0.017 C 
ATOM     20  C   UNL     1     -18.237 -39.354  21.757  0.00  0.00    +0.069 C 
ATOM     21  N   UNL     1     -17.822 -40.701  22.000  0.00  0.00    -0.296 NA
ATOM     22  C   UNL     1     -18.484 -41.290  23.167  0.00  0.00    +0.086 C 
ATOM     23  C   UNL     1     -17.559 -42.238  23.906  0.00  0.00    +0.089 C 
ATOM     24  N   UNL     1     -17.486 -42.077  25.274  0.00  0.00    -0.271 NA
ATOM     25  C   UNL     1     -18.598 -41.860  26.062  0.00  0.00    +0.073 C 
ATOM     26  C   UNL     1     -18.014 -41.596  27.455  0.00  0.00    +0.019 C 
ATOM     27  C   UNL     1     -16.652 -42.295  27.405  0.00  0.00    +0.019 C 
ATOM     28  C   UNL     1     -16.271 -42.010  25.946  0.00  0.00    +0.072 C 
ATOM     29  C   UNL     1     -19.526 -43.064  26.233  0.00  0.00    +0.085 C 
ATOM     30  N   UNL     1     -20.681 -42.619  26.985  0.00  0.00    -0.295 NA
ATOM     31  C   UNL     1     -21.847 -42.413  26.177  0.00  0.00    +0.090 C 
ATOM     32  C   UNL     1     -22.565 -41.194  26.670  0.00  0.00    +0.111 C 
ATOM     33  H   UNL     1     -24.039 -38.244  19.671  0.00  0.00    +0.123 HD
ATOM     34  H   UNL     1     -16.815 -40.709  22.156  0.00  0.00    +0.123 HD
ATOM     35  H   UNL     1     -20.448 -41.738  27.445  0.00  0.00    +0.123 HD
ENDROOT
BRANCH   1  41
ATOM     36  O   UNL     1     -26.551 -38.133  28.679  0.00  0.00    -0.418 OA
ATOM     37  C   UNL     1     -25.916 -37.916  29.805  0.00  0.00    +0.326 C 
ATOM     38  C   UNL     1     -25.160 -38.917  30.383  0.00  0.00    +0.124 C 
ATOM     39  C   UNL     1     -25.104 -40.127  29.738  0.00  0.00    +0.221 C 
ATOM     40  O   UNL     1     -24.411 -41.034  30.277  0.00  0.00    -0.285 OA
ATOM     41  C   UNL     1     -25.783 -40.299  28.568  0.00  0.00    +0.153 C 
ATOM     42  C   UNL     1     -26.520 -39.274  28.036  0.00  0.00    +0.203 C 
BRANCH  37  43
ATOM     43  O   UNL     1     -26.027 -36.675  30.389  0.00  0.00    -0.321 OA
BRANCH  43  44
ATOM     44  N   UNL     1     -25.284 -36.323  31.498  0.00  0.00    -0.004 N 
ATOM     45  C   UNL     1     -23.960 -35.842  31.218  0.00  0.00    +0.361 C 
ATOM     46  O   UNL     1     -23.234 -35.515  32.181  0.00  0.00    -0.260 OA
BRANCH  44  47
ATOM     47  N   UNL     1     -25.804 -36.436  32.733  0.00  0.00    -0.137 NA
ATOM     48  C   UNL     1     -25.852 -37.313  33.622  0.00  0.00    +0.144 C 
ENDBRANCH  44  47
ENDBRANCH  43  44
ENDBRANCH  37  43
ENDBRANCH   1  41
TORSDOF 4
ENDMDL
