REMARK  Name = =
REMARK  9 active torsions:
REMARK  status: ('A' for Active; 'I' for Inactive)
REMARK    1  A    between atoms: C_1  and  S_19
REMARK    2  A    between atoms: C_4  and  O_34
REMARK    3  A    between atoms: C_6  and  C_7
REMARK    4  A    between atoms: S_19  and  N_22
REMARK    5  A    between atoms: N_22  and  C_23
REMARK    6  A    between atoms: N_22  and  O_27
REMARK    7  A    between atoms: C_23  and  C_24
REMARK    8  A    between atoms: C_24  and  O_26
REMARK    9  A    between atoms: O_27  and  C_28
REMARK                            x       y       z     vdW  Elec       q    Type
REMARK                         _______ _______ _______ _____ _____    ______ ____
ROOT
ATOM      1  C   UNL     1     -12.930 -42.687  31.339  0.00  0.00    +0.122 C 
ATOM      2  C   UNL     1     -14.296 -42.895  31.622  0.00  0.00    +0.023 C 
ATOM      3  C   UNL     1     -14.817 -42.741  32.883  0.00  0.00    +0.038 C 
ATOM      4  C   UNL     1     -13.970 -42.373  33.890  0.00  0.00    +0.133 C 
ATOM      5  C   UNL     1     -12.643 -42.170  33.609  0.00  0.00    +0.034 C 
ATOM      6  C   UNL     1     -12.073 -42.321  32.326  0.00  0.00    +0.005 C 
ENDROOT
BRANCH   6   7
ATOM      7  C   UNL     1     -10.709 -41.949  32.250  0.00  0.00    +0.066 C 
ATOM      8  C   UNL     1     -10.288 -41.497  33.693  0.00  0.00    +0.096 C 
ATOM      9  N   UNL     1      -9.055 -42.242  33.989  0.00  0.00    -0.332 N 
ATOM     10  C   UNL     1      -9.123 -43.334  33.048  0.00  0.00    +0.040 C 
ATOM     11  C   UNL     1      -9.577 -42.624  31.788  0.00  0.00    -0.005 C 
ATOM     12  C   UNL     1      -8.831 -42.740  30.734  0.00  0.00    +0.003 C 
ATOM     13  C   UNL     1      -7.676 -43.593  30.629  0.00  0.00    +0.147 C 
ATOM     14  N   UNL     1      -7.171 -43.483  29.450  0.00  0.00    -0.262 NA
ATOM     15  C   UNL     1      -7.914 -42.569  28.666  0.00  0.00    +0.094 C 
ATOM     16  C   UNL     1      -8.907 -42.103  29.389  0.00  0.00    +0.018 C 
ATOM     17  C   UNL     1      -7.252 -44.346  31.798  0.00  0.00    +0.003 C 
ATOM     18  C   UNL     1      -7.983 -44.172  32.900  0.00  0.00    +0.012 C 
ATOM     19  H   UNL     1      -8.360 -42.046  34.658  0.00  0.00    +0.147 HD
ENDBRANCH   6   7
BRANCH   1  20
ATOM     20  S   UNL     1     -12.310 -42.898  29.754  0.00  0.00    +0.093 S 
ATOM     21  O   UNL     1     -11.495 -44.102  29.506  0.00  0.00    -0.150 OA
ATOM     22  O   UNL     1     -11.770 -41.624  29.161  0.00  0.00    -0.150 OA
BRANCH  20  23
ATOM     23  N   UNL     1     -13.667 -43.211  28.702  0.00  0.00    +0.015 NA
BRANCH  23  24
ATOM     24  C   UNL     1     -13.914 -44.517  28.362  0.00  0.00    +0.248 C 
BRANCH  24  25
ATOM     25  C   UNL     1     -13.046 -44.952  27.222  0.00  0.00    +0.336 C 
ATOM     26  O   UNL     1     -12.160 -44.187  26.791  0.00  0.00    -0.249 OA
BRANCH  25  27
ATOM     27  O   UNL     1     -13.198 -46.193  26.622  0.00  0.00    -0.479 OA
ATOM     28  H   UNL     1     -13.857 -46.784  26.929  0.00  0.00    +0.295 HD
ENDBRANCH  25  27
ENDBRANCH  24  25
ENDBRANCH  23  24
BRANCH  23  29
ATOM     29  O   UNL     1     -14.275 -42.168  28.202  0.00  0.00    -0.379 OA
BRANCH  29  30
ATOM     30  C   UNL     1     -15.178 -42.248  27.169  0.00  0.00    +0.186 C 
ATOM     31  C   UNL     1     -16.539 -42.330  27.444  0.00  0.00    +0.138 C 
ATOM     32  N   UNL     1     -17.408 -42.410  26.421  0.00  0.00    -0.239 NA
ATOM     33  C   UNL     1     -17.048 -42.417  25.135  0.00  0.00    +0.099 C 
ATOM     34  C   UNL     1     -15.710 -42.339  24.797  0.00  0.00    +0.024 C 
ATOM     35  C   UNL     1     -14.807 -42.256  25.843  0.00  0.00    +0.043 C 
ENDBRANCH  29  30
ENDBRANCH  23  29
ENDBRANCH  20  23
ENDBRANCH   1  20
BRANCH   4  36
ATOM     36  O   UNL     1     -14.458 -42.203  35.200  0.00  0.00    -0.506 OA
ATOM     37  H   UNL     1     -15.366 -42.344  35.384  0.00  0.00    +0.292 HD
ENDBRANCH   4  36
TORSDOF 9
