REMARK  Name = =
REMARK  5 active torsions:
REMARK  status: ('A' for Active; 'I' for Inactive)
REMARK    1  A    between atoms: C_1  and  C_7
REMARK    2  A    between atoms: C_2  and  C_18
REMARK    3  A    between atoms: C_6  and  C_15
REMARK    4  A    between atoms: C_15  and  O_17
REMARK    5  A    between atoms: C_18  and  O_20
REMARK                            x       y       z     vdW  Elec       q    Type
REMARK                         _______ _______ _______ _____ _____    ______ ____
ROOT
ATOM      1  C   UNL     1     -12.481 -43.609  30.092  0.00  0.00    -0.000 C 
ATOM      2  C   UNL     1     -12.527 -44.766  31.042  0.00  0.00    +0.070 C 
ATOM      3  C   UNL     1     -11.518 -45.512  31.293  0.00  0.00    +0.121 C 
ATOM      4  N   UNL     1     -10.270 -45.264  30.681  0.00  0.00    -0.328 N 
ATOM      5  C   UNL     1     -10.142 -44.179  29.792  0.00  0.00    +0.064 C 
ATOM      6  C   UNL     1     -11.158 -43.375  29.497  0.00  0.00    +0.086 C 
ATOM      7  H   UNL     1      -9.498 -45.843  30.874  0.00  0.00    +0.147 HD
ENDROOT
BRANCH   1   8
ATOM      8  C   UNL     1     -13.500 -43.993  28.974  0.00  0.00    +0.128 C 
ATOM      9  C   UNL     1     -13.691 -42.920  28.015  0.00  0.00    +0.136 C 
ATOM     10  S   UNL     1     -15.407 -42.649  27.414  0.00  0.00    -0.119 S 
ATOM     11  C   UNL     1     -15.022 -42.817  25.624  0.00  0.00    +0.081 C 
ATOM     12  C   UNL     1     -13.528 -43.042  25.671  0.00  0.00    +0.106 C 
ATOM     13  N   UNL     1     -13.227 -43.741  26.880  0.00  0.00    -0.270 N 
ATOM     14  C   UNL     1     -12.791 -44.688  27.852  0.00  0.00    +0.232 C 
ATOM     15  O   UNL     1     -12.085 -45.727  27.843  0.00  0.00    -0.274 OA
ENDBRANCH   1   8
BRANCH   6  16
ATOM     16  C   UNL     1     -10.843 -42.260  28.632  0.00  0.00    +0.339 C 
ATOM     17  O   UNL     1     -11.230 -41.104  28.859  0.00  0.00    -0.245 OA
BRANCH  16  18
ATOM     18  O   UNL     1     -10.080 -42.445  27.491  0.00  0.00    -0.477 OA
ATOM     19  H   UNL     1      -9.762 -43.299  27.273  0.00  0.00    +0.295 HD
ENDBRANCH  16  18
ENDBRANCH   6  16
BRANCH   2  20
ATOM     20  C   UNL     1     -13.799 -45.014  31.717  0.00  0.00    +0.335 C 
ATOM     21  O   UNL     1     -14.507 -44.124  32.251  0.00  0.00    -0.245 OA
BRANCH  20  22
ATOM     22  O   UNL     1     -14.302 -46.313  31.798  0.00  0.00    -0.477 OA
ATOM     23  H   UNL     1     -13.824 -47.025  31.420  0.00  0.00    +0.295 HD
ENDBRANCH  20  22
ENDBRANCH   2  20
TORSDOF 5
