MODEL 1
REMARK VINA RESULT:   -10.527      0.000      0.000
REMARK INTER + INTRA:         -17.307
REMARK INTER:                 -15.142
REMARK INTRA:                  -2.165
REMARK UNBOUND:                -2.165
REMARK  Name = =
REMARK  8 active torsions:
REMARK  status: ('A' for Active; 'I' for Inactive)
REMARK    1  A    between atoms: N_1  and  O_25
REMARK    2  A    between atoms: C_6  and  N_12
REMARK    3  A    between atoms: C_9  and  N_20
REMARK    4  A    between atoms: C_14  and  O_19
REMARK    5  A    between atoms: O_25  and  C_26
REMARK    6  A    between atoms: C_26  and  C_28
REMARK    7  A    between atoms: C_28  and  C_29
REMARK    8  A    between atoms: C_32  and  N_39
REMARK                            x       y       z     vdW  Elec       q    Type
REMARK                         _______ _______ _______ _____ _____    ______ ____
ROOT
ATOM      1  N   UNL     1      -3.943  -2.358  30.558  0.00  0.00    -0.054 N 
ATOM      2  C   UNL     1      -3.804  -3.652  31.130  0.00  0.00    +0.288 C 
ATOM      3  O   UNL     1      -4.647  -4.151  31.902  0.00  0.00    -0.266 OA
ATOM      4  C   UNL     1      -2.527  -4.219  30.637  0.00  0.00    +0.076 C 
ATOM      5  C   UNL     1      -1.943  -3.288  29.809  0.00  0.00    +0.076 C 
ATOM      6  C   UNL     1      -0.745  -3.514  29.203  0.00  0.00    +0.060 C 
ATOM      7  C   UNL     1      -0.135  -4.728  29.455  0.00  0.00    +0.017 C 
ATOM      8  C   UNL     1      -0.696  -5.658  30.266  0.00  0.00    +0.016 C 
ATOM      9  C   UNL     1      -1.938  -5.440  30.904  0.00  0.00    +0.053 C 
ATOM     10  C   UNL     1      -2.790  -2.114  29.731  0.00  0.00    +0.289 C 
ATOM     11  O   UNL     1      -2.630  -1.044  29.091  0.00  0.00    -0.266 OA
ENDROOT
BRANCH   6  12
ATOM     12  N   UNL     1      -0.094  -2.596  28.356  0.00  0.00    -0.260 N 
ATOM     13  C   UNL     1      -0.389  -2.505  27.055  0.00  0.00    +0.110 C 
ATOM     14  C   UNL     1       0.269  -1.589  26.224  0.00  0.00    +0.188 C 
ATOM     15  C   UNL     1       1.246  -0.767  26.781  0.00  0.00    +0.232 C 
ATOM     16  O   UNL     1       1.848   0.063  26.044  0.00  0.00    -0.283 OA
ATOM     17  C   UNL     1       1.536  -0.874  28.121  0.00  0.00    +0.062 C 
ATOM     18  C   UNL     1       0.851  -1.792  28.868  0.00  0.00    +0.073 C 
BRANCH  14  19
ATOM     19  O   UNL     1      -0.025  -1.483  24.874  0.00  0.00    -0.502 OA
ATOM     20  H   UNL     1       0.438  -2.009  24.251  0.00  0.00    +0.292 HD
ENDBRANCH  14  19
ENDBRANCH   6  12
BRANCH   9  21
ATOM     21  N   UNL     1      -2.477  -6.465  31.706  0.00  0.00    -0.307 N 
ATOM     22  C   UNL     1      -3.162  -7.624  31.128  0.00  0.00    +0.091 C 
ATOM     23  C   UNL     1      -4.401  -7.718  31.976  0.00  0.00    +0.023 C 
ATOM     24  C   UNL     1      -3.973  -7.144  33.306  0.00  0.00    +0.023 C 
ATOM     25  C   UNL     1      -2.549  -6.627  33.115  0.00  0.00    +0.091 C 
ENDBRANCH   9  21
BRANCH   1  26
ATOM     26  O   UNL     1      -4.958  -1.487  30.707  0.00  0.00    -0.336 OA
BRANCH  26  27
ATOM     27  C   UNL     1      -5.190  -0.541  31.666  0.00  0.00    +0.346 C 
ATOM     28  O   UNL     1      -4.403   0.431  31.723  0.00  0.00    -0.247 OA
BRANCH  27  29
ATOM     29  C   UNL     1      -6.362  -0.713  32.590  0.00  0.00    +0.159 C 
BRANCH  29  30
ATOM     30  C   UNL     1      -7.620  -1.034  31.915  0.00  0.00    +0.088 C 
ATOM     31  N   UNL     1      -8.141  -2.268  31.924  0.00  0.00    -0.245 NA
ATOM     32  C   UNL     1      -9.304  -2.578  31.338  0.00  0.00    +0.113 C 
ATOM     33  C   UNL     1     -10.094  -1.643  30.658  0.00  0.00    +0.069 C 
ATOM     34  C   UNL     1      -9.593  -0.369  30.627  0.00  0.00    +0.034 C 
ATOM     35  C   UNL     1      -8.372  -0.073  31.249  0.00  0.00    +0.097 C 
ATOM     36  N   UNL     1      -7.883   1.170  31.240  0.00  0.00    -0.243 NA
ATOM     37  C   UNL     1      -8.537   2.164  30.644  0.00  0.00    +0.099 C 
ATOM     38  C   UNL     1      -9.737   1.918  30.026  0.00  0.00    +0.021 C 
ATOM     39  C   UNL     1     -10.280   0.660  30.007  0.00  0.00    +0.004 C 
BRANCH  33  40
ATOM     40  N   UNL     1     -11.289  -2.053  30.045  0.00  0.00    -0.306 N 
ATOM     41  C   UNL     1     -11.333  -2.588  28.656  0.00  0.00    +0.091 C 
ATOM     42  C   UNL     1     -12.374  -1.679  28.048  0.00  0.00    +0.023 C 
ATOM     43  C   UNL     1     -13.451  -1.747  29.135  0.00  0.00    +0.023 C 
ATOM     44  C   UNL     1     -12.662  -2.056  30.431  0.00  0.00    +0.091 C 
ENDBRANCH  33  40
ENDBRANCH  29  30
ENDBRANCH  27  29
ENDBRANCH  26  27
ENDBRANCH   1  26
TORSDOF 8
ENDMDL
