REMARK  Name = =
REMARK  0 active torsions:
REMARK  status: ('A' for Active; 'I' for Inactive)
REMARK                            x       y       z     vdW  Elec       q    Type
REMARK                         _______ _______ _______ _____ _____    ______ ____
ROOT
ATOM      1  C   UNL     1     -12.814 -44.930  27.187  0.00  0.00    +0.049 C 
ATOM      2  C   UNL     1     -14.006 -44.052  27.497  0.00  0.00    +0.092 C 
ATOM      3  N   UNL     1     -13.524 -42.916  28.220  0.00  0.00    -0.333 N 
ATOM      4  C   UNL     1     -12.128 -42.941  28.220  0.00  0.00    +0.040 C 
ATOM      5  C   UNL     1     -11.777 -44.353  28.104  0.00  0.00    -0.009 C 
ATOM      6  C   UNL     1     -10.759 -44.913  28.695  0.00  0.00    +0.003 C 
ATOM      7  C   UNL     1      -9.897 -44.084  29.563  0.00  0.00    +0.147 C 
ATOM      8  N   UNL     1      -8.986 -44.864  30.014  0.00  0.00    -0.262 NA
ATOM      9  C   UNL     1      -9.111 -46.194  29.547  0.00  0.00    +0.094 C 
ATOM     10  C   UNL     1     -10.166 -46.240  28.758  0.00  0.00    +0.018 C 
ATOM     11  C   UNL     1     -10.245 -42.685  29.699  0.00  0.00    +0.003 C 
ATOM     12  C   UNL     1     -11.304 -42.166  29.060  0.00  0.00    +0.012 C 
ATOM     13  H   UNL     1     -14.085 -42.229  28.648  0.00  0.00    +0.147 HD
ENDROOT
TORSDOF 0
