REMARK  Name = =
REMARK  0 active torsions:
REMARK  status: ('A' for Active; 'I' for Inactive)
REMARK                            x       y       z     vdW  Elec       q    Type
REMARK                         _______ _______ _______ _____ _____    ______ ____
ROOT
ATOM      1  O   UNL     1      51.843 155.870  28.297  0.00  0.00    -0.447 OA
ATOM      2  C   UNL     1      52.486 155.951  27.176  0.00  0.00    +0.183 C 
ATOM      3  C   UNL     1      53.028 154.795  26.653  0.00  0.00    +0.083 C 
ATOM      4  C   UNL     1      52.897 153.580  27.294  0.00  0.00    +0.202 C 
ATOM      5  O   UNL     1      53.379 152.521  26.840  0.00  0.00    -0.286 OA
ATOM      6  C   UNL     1      52.188 153.613  28.488  0.00  0.00    +0.083 C 
ATOM      7  C   UNL     1      51.655 154.790  28.988  0.00  0.00    +0.183 C 
ENDROOT
TORSDOF 0
