REMARK  Name = =
REMARK  5 active torsions:
REMARK  status: ('A' for Active; 'I' for Inactive)
REMARK    1  A    between atoms: N_1  and  C_8
REMARK    2  A    between atoms: N_1  and  S_12
REMARK    3  A    between atoms: N_1  and  N_19
REMARK    4  A    between atoms: S_12  and  N_15
REMARK    5  A    between atoms: C_16  and  O_18
REMARK                            x       y       z     vdW  Elec       q    Type
REMARK                         _______ _______ _______ _____ _____    ______ ____
ROOT
ATOM      1  N   UNL     1      53.611 153.949  26.104  0.00  0.00    -0.095 N 
ENDROOT
BRANCH   1   8
ATOM      2  C   UNL     1      51.702 154.414  29.222  0.00  0.00    -0.007 C 
ATOM      3  C   UNL     1      52.369 154.805  28.075  0.00  0.00    -0.002 C 
ATOM      4  C   UNL     1      52.450 156.146  27.777  0.00  0.00    -0.003 C 
ATOM      5  C   UNL     1      51.878 157.106  28.598  0.00  0.00    -0.000 C 
ATOM      6  C   UNL     1      51.223 156.664  29.729  0.00  0.00    -0.000 C 
ATOM      7  C   UNL     1      51.118 155.316  30.068  0.00  0.00    -0.003 C 
ATOM      8  C   UNL     1      52.903 153.693  27.280  0.00  0.00    +0.156 C 
ATOM      9  C   UNL     1      51.702 152.763  27.088  0.00  0.00    +0.117 C 
ATOM     10  N   UNL     1      51.337 152.156  28.334  0.00  0.00    -0.211 NA
ATOM     11  C   UNL     1      51.635 152.927  29.509  0.00  0.00    +0.115 C 
ENDBRANCH   1   8
BRANCH   1  12
ATOM     12  S   UNL     1      54.836 152.879  25.550  0.00  0.00    +0.146 S 
ATOM     13  O   UNL     1      54.279 151.493  25.226  0.00  0.00    -0.133 OA
ATOM     14  O   UNL     1      55.408 153.366  24.232  0.00  0.00    -0.133 OA
BRANCH  12  15
ATOM     15  N   UNL     1      56.094 152.603  26.689  0.00  0.00    -0.137 N 
ATOM     16  C   UNL     1      57.327 152.033  26.218  0.00  0.00    +0.418 C 
ATOM     17  O   UNL     1      57.416 151.766  24.994  0.00  0.00    -0.225 OA
ATOM     18  H   UNL     1      55.973 152.829  27.639  0.00  0.00    +0.181 HD
BRANCH  16  19
ATOM     19  O   UNL     1      58.411 151.763  27.006  0.00  0.00    -0.465 OA
ATOM     20  H   UNL     1      58.381 151.949  27.924  0.00  0.00    +0.297 HD
ENDBRANCH  16  19
ENDBRANCH  12  15
ENDBRANCH   1  12
BRANCH   1  21
ATOM     21  N   UNL     1      53.391 155.083  25.259  0.00  0.00    -0.157 NA
ATOM     22  C   UNL     1      54.486 155.702  24.841  0.00  0.00    +0.141 C 
ENDBRANCH   1  21
TORSDOF 5
