MODEL 1
REMARK VINA RESULT:   -11.412      0.000      0.000
REMARK INTER + INTRA:         -17.820
REMARK INTER:                 -16.749
REMARK INTRA:                  -1.071
REMARK UNBOUND:                -1.071
REMARK  Name = =
REMARK  9 active torsions:
REMARK  status: ('A' for Active; 'I' for Inactive)
REMARK    1  A    between atoms: C_1  and  O_8
REMARK    2  A    between atoms: C_2  and  O_7
REMARK    3  A    between atoms: C_5  and  O_24
REMARK    4  A    between atoms: O_8  and  O_9
REMARK    5  A    between atoms: O_9  and  C_18
REMARK    6  A    between atoms: C_10  and  S_20
REMARK    7  A    between atoms: S_20  and  N_23
REMARK    8  A    between atoms: O_24  and  C_25
REMARK    9  A    between atoms: C_31  and  C_35
REMARK                            x       y       z     vdW  Elec       q    Type
REMARK                         _______ _______ _______ _____ _____    ______ ____
ROOT
ATOM      1  C   UNL     1      -6.301  -1.999  32.285  0.00  0.00    +0.232 C 
ATOM      2  C   UNL     1      -6.272  -0.641  32.070  0.00  0.00    +0.173 C 
ATOM      3  C   UNL     1      -7.457  -0.017  31.747  0.00  0.00    +0.043 C 
ATOM      4  C   UNL     1      -8.658  -0.731  31.641  0.00  0.00    +0.041 C 
ATOM      5  C   UNL     1      -8.679  -2.091  31.858  0.00  0.00    +0.149 C 
ATOM      6  C   UNL     1      -7.487  -2.700  32.178  0.00  0.00    +0.083 C 
ENDROOT
BRANCH   2   7
ATOM      7  O   UNL     1      -5.076   0.084  32.173  0.00  0.00    -0.503 OA
ATOM      8  H   UNL     1      -4.447  -0.141  32.830  0.00  0.00    +0.292 HD
ENDBRANCH   2   7
BRANCH   1   9
ATOM      9  O   UNL     1      -5.094  -2.621  32.609  0.00  0.00    -0.283 OA
BRANCH   9  10
ATOM     10  O   UNL     1      -5.037  -3.732  33.381  0.00  0.00    -0.286 OA
BRANCH  10  19
ATOM     11  C   UNL     1      -2.152  -5.898  30.281  0.00  0.00    +0.125 C 
ATOM     12  C   UNL     1      -2.928  -5.998  31.411  0.00  0.00    +0.039 C 
ATOM     13  C   UNL     1      -3.072  -7.180  32.129  0.00  0.00    +0.083 C 
ATOM     14  N   UNL     1      -2.422  -8.280  31.704  0.00  0.00    -0.244 NA
ATOM     15  C   UNL     1      -1.654  -8.207  30.597  0.00  0.00    +0.100 C 
ATOM     16  C   UNL     1      -1.494  -7.047  29.866  0.00  0.00    +0.041 C 
ATOM     17  C   UNL     1      -3.864  -7.203  33.250  0.00  0.00    +0.022 C 
ATOM     18  C   UNL     1      -4.508  -6.048  33.649  0.00  0.00    +0.044 C 
ATOM     19  C   UNL     1      -4.375  -4.862  32.945  0.00  0.00    +0.196 C 
ATOM     20  C   UNL     1      -3.588  -4.844  31.832  0.00  0.00    +0.045 C 
BRANCH  11  21
ATOM     21  S   UNL     1      -2.000  -4.386  29.406  0.00  0.00    +0.057 S 
ATOM     22  O   UNL     1      -1.047  -4.575  28.267  0.00  0.00    -0.153 OA
ATOM     23  O   UNL     1      -3.322  -3.977  28.835  0.00  0.00    -0.153 OA
BRANCH  21  24
ATOM     24  N   UNL     1      -1.375  -3.134  30.417  0.00  0.00    -0.203 NA
ATOM     25  H   UNL     1      -0.362  -3.230  30.491  0.00  0.00    +0.144 HD
ATOM     26  H   UNL     1      -1.792  -3.207  31.346  0.00  0.00    +0.144 HD
ENDBRANCH  21  24
ENDBRANCH  11  21
ENDBRANCH  10  19
ENDBRANCH   9  10
ENDBRANCH   1   9
BRANCH   5  27
ATOM     27  O   UNL     1      -9.866  -2.801  31.753  0.00  0.00    -0.452 OA
BRANCH  27  28
ATOM     28  C   UNL     1     -10.891  -2.447  32.638  0.00  0.00    +0.166 C 
ATOM     29  C   UNL     1     -12.107  -1.955  32.156  0.00  0.00    +0.133 C 
ATOM     30  C   UNL     1     -13.113  -1.607  33.032  0.00  0.00    +0.101 C 
ATOM     31  N   UNL     1     -12.956  -1.730  34.346  0.00  0.00    -0.242 NA
ATOM     32  C   UNL     1     -11.800  -2.201  34.843  0.00  0.00    +0.102 C 
ATOM     33  C   UNL     1     -10.766  -2.560  34.004  0.00  0.00    +0.060 C 
ATOM     34  C   UNL     1     -14.350  -1.110  32.584  0.00  0.00    +0.038 C 
ATOM     35  C   UNL     1     -14.482  -0.995  31.228  0.00  0.00    +0.021 C 
ATOM     36  C   UNL     1     -13.434  -1.359  30.384  0.00  0.00    +0.099 C 
ATOM     37  N   UNL     1     -12.263  -1.834  30.842  0.00  0.00    -0.239 NA
BRANCH  34  38
ATOM     38  C   UNL     1     -15.374  -0.743  33.572  0.00  0.00    +0.190 C 
ATOM     39  O   UNL     1     -16.086  -1.893  34.031  0.00  0.00    -0.472 OA
ATOM     40  C   UNL     1     -17.468  -1.996  34.053  0.00  0.00    +0.168 C 
ATOM     41  C   UNL     1     -18.161  -0.876  34.194  0.00  0.00    +0.014 C 
ATOM     42  C   UNL     1     -17.375   0.359  34.312  0.00  0.00    +0.029 C 
ATOM     43  C   UNL     1     -16.333   0.319  33.198  0.00  0.00    +0.049 C 
ATOM     44  C   UNL     1     -15.858   1.713  33.142  0.00  0.00    +0.004 C 
ATOM     45  C   UNL     1     -16.980   2.576  33.728  0.00  0.00    +0.000 C 
ATOM     46  C   UNL     1     -18.123   1.603  33.991  0.00  0.00    +0.005 C 
ENDBRANCH  34  38
ENDBRANCH  27  28
ENDBRANCH   5  27
TORSDOF 9
ENDMDL
