REMARK  Name = =
REMARK  1 active torsions:
REMARK  status: ('A' for Active; 'I' for Inactive)
REMARK    1  A    between atoms: C_1  and  N_8
REMARK                            x       y       z     vdW  Elec       q    Type
REMARK                         _______ _______ _______ _____ _____    ______ ____
ROOT
ATOM      1  C   UNL     1      -3.329  -3.304  31.269  0.00  0.00    +0.087 C 
ATOM      2  C   UNL     1      -3.660  -2.271  30.217  0.00  0.00    +0.048 C 
ATOM      3  C   UNL     1      -2.327  -2.151  29.485  0.00  0.00    +0.117 C 
ATOM      4  O   UNL     1      -1.393  -2.859  30.276  0.00  0.00    -0.357 OA
ATOM      5  C   UNL     1      -2.168  -4.015  30.550  0.00  0.00    +0.130 C 
ATOM      6  C   UNL     1      -2.672  -4.433  29.173  0.00  0.00    +0.033 C 
ATOM      7  C   UNL     1      -2.425  -3.170  28.334  0.00  0.00    +0.032 C 
ENDROOT
BRANCH   1   8
ATOM      8  N   UNL     1      -4.394  -4.211  31.548  0.00  0.00    -0.269 NA
ATOM      9  C   UNL     1      -3.902  -5.131  32.586  0.00  0.00    +0.090 C 
ATOM     10  C   UNL     1      -5.573  -3.569  32.024  0.00  0.00    +0.090 C 
ENDBRANCH   1   8
TORSDOF 1
