REMARK  Name = =
REMARK  5 active torsions:
REMARK  status: ('A' for Active; 'I' for Inactive)
REMARK    1  A    between atoms: C_1  and  N_16
REMARK    2  A    between atoms: C_2  and  C_8
REMARK    3  A    between atoms: C_9  and  N_15
REMARK    4  A    between atoms: N_16  and  C_18
REMARK    5  A    between atoms: C_18  and  C_19
REMARK                            x       y       z     vdW  Elec       q    Type
REMARK                         _______ _______ _______ _____ _____    ______ ____
ROOT
ATOM      1  C   UNL     1      -1.597  -6.388  30.311  0.00  0.00    +0.092 C 
ATOM      2  C   UNL     1      -0.405  -6.989  30.796  0.00  0.00    +0.071 C 
ATOM      3  C   UNL     1       0.236  -7.555  29.502  0.00  0.00    +0.121 C 
ATOM      4  O   UNL     1      -0.852  -7.635  28.613  0.00  0.00    -0.357 OA
ATOM      5  C   UNL     1      -1.380  -6.330  28.785  0.00  0.00    +0.130 C 
ATOM      6  C   UNL     1      -0.185  -5.491  28.420  0.00  0.00    +0.033 C 
ATOM      7  C   UNL     1       0.974  -6.348  28.903  0.00  0.00    +0.032 C 
ENDROOT
BRANCH   2   8
ATOM      8  C   UNL     1       0.667  -6.367  31.494  0.00  0.00    +0.032 C 
ATOM      9  C   UNL     1       1.089  -7.000  32.675  0.00  0.00    +0.126 C 
ATOM     10  N   UNL     1       2.090  -6.486  33.404  0.00  0.00    -0.200 NA
ATOM     11  C   UNL     1       2.720  -5.338  33.015  0.00  0.00    +0.215 C 
ATOM     12  N   UNL     1       2.341  -4.707  31.890  0.00  0.00    -0.213 NA
ATOM     13  C   UNL     1       1.324  -5.227  31.148  0.00  0.00    +0.100 C 
ATOM     14  N   UNL     1       3.772  -4.832  33.818  0.00  0.00    -0.327 N 
ATOM     15  H   UNL     1       4.037  -5.307  34.639  0.00  0.00    +0.145 HD
ATOM     16  H   UNL     1       4.238  -4.006  33.555  0.00  0.00    +0.145 HD
BRANCH   9  17
ATOM     17  N   UNL     1       0.482  -8.197  33.141  0.00  0.00    -0.343 N 
ATOM     18  H   UNL     1      -0.256  -8.605  32.633  0.00  0.00    +0.144 HD
ATOM     19  H   UNL     1       0.799  -8.619  33.972  0.00  0.00    +0.144 HD
ENDBRANCH   9  17
ENDBRANCH   2   8
BRANCH   1  20
ATOM     20  N   UNL     1      -2.167  -5.205  30.807  0.00  0.00    -0.265 NA
ATOM     21  C   UNL     1      -2.847  -5.331  32.063  0.00  0.00    +0.090 C 
BRANCH  20  22
ATOM     22  C   UNL     1      -3.053  -4.608  29.851  0.00  0.00    +0.119 C 
BRANCH  22  23
ATOM     23  C   UNL     1      -4.361  -4.186  30.381  0.00  0.00    +0.080 C 
ATOM     24  N   UNL     1      -4.627  -2.945  30.466  0.00  0.00    -0.300 NA
ATOM     25  H   UNL     1      -5.498  -2.651  30.819  0.00  0.00    +0.186 HD
ENDBRANCH  22  23
ENDBRANCH  20  22
ENDBRANCH   1  20
TORSDOF 5
