REMARK  Name = =
REMARK  7 active torsions:
REMARK  status: ('A' for Active; 'I' for Inactive)
REMARK    1  A    between atoms: C_1  and  N_23
REMARK    2  A    between atoms: C_2  and  C_8
REMARK    3  A    between atoms: C_6  and  N_16
REMARK    4  A    between atoms: C_9  and  N_15
REMARK    5  A    between atoms: C_20  and  O_22
REMARK    6  A    between atoms: N_23  and  C_25
REMARK    7  A    between atoms: C_25  and  C_26
REMARK                            x       y       z     vdW  Elec       q    Type
REMARK                         _______ _______ _______ _____ _____    ______ ____
ROOT
ATOM      1  C   UNL     1       0.600  -5.107  30.284  0.00  0.00    +0.093 C 
ATOM      2  C   UNL     1      -0.574  -5.790  29.717  0.00  0.00    +0.071 C 
ATOM      3  C   UNL     1      -1.228  -4.551  28.988  0.00  0.00    +0.122 C 
ATOM      4  O   UNL     1      -0.966  -3.624  30.041  0.00  0.00    -0.355 OA
ATOM      5  C   UNL     1       0.515  -3.695  29.946  0.00  0.00    +0.149 C 
ATOM      6  C   UNL     1       0.551  -3.146  28.597  0.00  0.00    +0.118 C 
ATOM      7  C   UNL     1      -0.293  -4.181  27.866  0.00  0.00    +0.053 C 
ENDROOT
BRANCH   2   8
ATOM      8  C   UNL     1      -1.666  -6.210  30.603  0.00  0.00    +0.032 C 
ATOM      9  C   UNL     1      -1.954  -7.582  30.626  0.00  0.00    +0.126 C 
ATOM     10  N   UNL     1      -2.966  -8.053  31.375  0.00  0.00    -0.200 NA
ATOM     11  C   UNL     1      -3.727  -7.226  32.122  0.00  0.00    +0.215 C 
ATOM     12  N   UNL     1      -3.482  -5.911  32.124  0.00  0.00    -0.213 NA
ATOM     13  C   UNL     1      -2.456  -5.413  31.367  0.00  0.00    +0.100 C 
ATOM     14  N   UNL     1      -4.795  -7.794  32.913  0.00  0.00    -0.327 N 
ATOM     15  H   UNL     1      -4.957  -8.765  32.896  0.00  0.00    +0.145 HD
ATOM     16  H   UNL     1      -5.360  -7.210  33.469  0.00  0.00    +0.145 HD
BRANCH   9  17
ATOM     17  N   UNL     1      -1.198  -8.523  29.886  0.00  0.00    -0.343 N 
ATOM     18  H   UNL     1      -0.448  -8.220  29.325  0.00  0.00    +0.144 HD
ATOM     19  H   UNL     1      -1.422  -9.481  29.933  0.00  0.00    +0.144 HD
ENDBRANCH   9  17
ENDBRANCH   2   8
BRANCH   6  20
ATOM     20  N   UNL     1       1.609  -2.520  27.973  0.00  0.00    -0.180 N 
ATOM     21  C   UNL     1       1.342  -1.210  27.379  0.00  0.00    +0.309 C 
ATOM     22  O   UNL     1       2.276  -0.565  26.780  0.00  0.00    -0.252 OA
ATOM     23  N   UNL     1       0.056  -0.656  27.466  0.00  0.00    -0.313 N 
ATOM     24  C   UNL     1       2.974  -2.894  27.835  0.00  0.00    +0.409 C 
ATOM     25  O   UNL     1       3.520  -3.903  28.301  0.00  0.00    -0.226 OA
ATOM     26  H   UNL     1      -0.662  -1.149  27.925  0.00  0.00    +0.146 HD
ATOM     27  H   UNL     1      -0.128   0.225  27.068  0.00  0.00    +0.146 HD
BRANCH  24  28
ATOM     28  O   UNL     1       3.815  -2.024  27.082  0.00  0.00    -0.466 OA
ATOM     29  H   UNL     1       3.462  -1.243  26.703  0.00  0.00    +0.297 HD
ENDBRANCH  24  28
ENDBRANCH   6  20
BRANCH   1  30
ATOM     30  N   UNL     1       1.819  -5.826  30.396  0.00  0.00    -0.265 NA
ATOM     31  C   UNL     1       1.781  -7.091  29.630  0.00  0.00    +0.090 C 
BRANCH  30  32
ATOM     32  C   UNL     1       2.085  -6.275  31.777  0.00  0.00    +0.119 C 
BRANCH  32  33
ATOM     33  C   UNL     1       0.976  -6.601  32.628  0.00  0.00    +0.080 C 
ATOM     34  N   UNL     1       0.703  -7.735  33.131  0.00  0.00    -0.300 NA
ATOM     35  H   UNL     1      -0.090  -7.841  33.704  0.00  0.00    +0.186 HD
ENDBRANCH  32  33
ENDBRANCH  30  32
ENDBRANCH   1  30
TORSDOF 7
