REMARK  Name = =
REMARK  3 active torsions:
REMARK  status: ('A' for Active; 'I' for Inactive)
REMARK    1  A    between atoms: C_1  and  O_8
REMARK    2  A    between atoms: O_8  and  N_9
REMARK    3  A    between atoms: N_9  and  O_10
REMARK                            x       y       z     vdW  Elec       q    Type
REMARK                         _______ _______ _______ _____ _____    ______ ____
ROOT
ATOM      1  C   UNL     1      61.568 161.240  38.922  0.00  0.00    +0.168 C 
ATOM      2  C   UNL     1      60.885 161.828  37.875  0.00  0.00    +0.042 C 
ATOM      3  C   UNL     1      59.603 161.371  37.649  0.00  0.00    +0.033 C 
ATOM      4  C   UNL     1      59.021 160.377  38.424  0.00  0.00    +0.140 C 
ATOM      5  C   UNL     1      59.724 159.806  39.464  0.00  0.00    +0.033 C 
ATOM      6  C   UNL     1      61.010 160.247  39.709  0.00  0.00    +0.042 C 
ATOM      7  F   UNL     1      57.746 159.951  38.170  0.00  0.00    -0.204 F 
ENDROOT
BRANCH   1   8
ATOM      8  O   UNL     1      62.864 161.646  39.212  0.00  0.00    -0.381 OA
BRANCH   8   9
ATOM      9  N   UNL     1      63.214 162.972  39.090  0.00  0.00    -0.032 NA
ATOM     10  H   UNL     1      63.448 163.332  40.015  0.00  0.00    +0.201 HD
BRANCH   9  11
ATOM     11  O   UNL     1      64.260 163.168  38.280  0.00  0.00    -0.282 OA
ATOM     12  H   UNL     1      64.051 162.830  37.395  0.00  0.00    +0.240 HD
ENDBRANCH   9  11
ENDBRANCH   8   9
ENDBRANCH   1   8
TORSDOF 3
