REMARK  Name = =
REMARK  7 active torsions:
REMARK  status: ('A' for Active; 'I' for Inactive)
REMARK    1  A    between atoms: N_1  and  N_20
REMARK    2  A    between atoms: C_12  and  O_39
REMARK    3  A    between atoms: N_20  and  C_23
REMARK    4  A    between atoms: C_21  and  O_32
REMARK    5  A    between atoms: C_26  and  C_29
REMARK    6  A    between atoms: C_29  and  O_31
REMARK    7  A    between atoms: O_32  and  C_33
REMARK                            x       y       z     vdW  Elec       q    Type
REMARK                         _______ _______ _______ _____ _____    ______ ____
ROOT
ATOM      1  N   UNL     1      52.751 154.581  28.516  0.00  0.00    -0.197 NA
ATOM      2  C   UNL     1      53.029 153.158  28.496  0.00  0.00    +0.081 C 
ATOM      3  C   UNL     1      52.963 152.692  27.101  0.00  0.00    +0.025 C 
ATOM      4  C   UNL     1      53.968 153.350  26.238  0.00  0.00    +0.068 C 
ATOM      5  C   UNL     1      54.093 152.945  24.807  0.00  0.00    +0.226 C 
ATOM      6  O   UNL     1      55.536 152.962  24.582  0.00  0.00    -0.469 OA
ATOM      7  C   UNL     1      56.155 152.697  25.805  0.00  0.00    +0.168 C 
ATOM      8  C   UNL     1      55.248 152.905  26.791  0.00  0.00    +0.014 C 
ATOM      9  C   UNL     1      55.471 152.744  28.100  0.00  0.00    -0.022 C 
ATOM     10  C   UNL     1      56.749 152.330  28.491  0.00  0.00    -0.001 C 
ATOM     11  C   UNL     1      57.733 152.101  27.521  0.00  0.00    +0.039 C 
ATOM     12  C   UNL     1      57.427 152.289  26.166  0.00  0.00    +0.167 C 
ATOM     13  C   UNL     1      54.392 152.938  29.105  0.00  0.00    +0.044 C 
ATOM     14  C   UNL     1      53.531 151.596  24.540  0.00  0.00    +0.191 C 
ATOM     15  O   UNL     1      53.928 151.028  23.532  0.00  0.00    -0.292 OA
ATOM     16  C   UNL     1      52.551 150.914  25.390  0.00  0.00    +0.068 C 
ATOM     17  C   UNL     1      52.588 151.318  26.825  0.00  0.00    +0.010 C 
ATOM     18  C   UNL     1      53.772 154.845  26.349  0.00  0.00    +0.027 C 
ATOM     19  C   UNL     1      52.520 155.059  27.163  0.00  0.00    +0.093 C 
ENDROOT
BRANCH   1  20
ATOM     20  N   UNL     1      51.680 154.916  29.351  0.00  0.00    -0.165 N 
ATOM     21  C   UNL     1      50.985 153.892  30.027  0.00  0.00    +0.427 C 
ATOM     22  O   UNL     1      50.024 154.197  30.777  0.00  0.00    -0.224 OA
BRANCH  20  23
ATOM     23  C   UNL     1      51.298 156.254  29.512  0.00  0.00    +0.073 C 
ATOM     24  C   UNL     1      49.978 156.582  29.769  0.00  0.00    +0.017 C 
ATOM     25  C   UNL     1      49.548 157.882  29.935  0.00  0.00    +0.008 C 
ATOM     26  C   UNL     1      50.448 158.923  29.845  0.00  0.00    +0.076 C 
ATOM     27  C   UNL     1      51.768 158.615  29.589  0.00  0.00    +0.008 C 
ATOM     28  C   UNL     1      52.181 157.309  29.426  0.00  0.00    +0.017 C 
BRANCH  26  29
ATOM     29  C   UNL     1      50.010 160.308  30.019  0.00  0.00    +0.338 C 
ATOM     30  O   UNL     1      50.801 161.254  29.961  0.00  0.00    -0.245 OA
BRANCH  29  31
ATOM     31  O   UNL     1      48.668 160.554  30.255  0.00  0.00    -0.477 OA
ATOM     32  H   UNL     1      48.062 159.841  30.300  0.00  0.00    +0.295 HD
ENDBRANCH  29  31
ENDBRANCH  26  29
ENDBRANCH  20  23
BRANCH  21  33
ATOM     33  O   UNL     1      51.276 152.540  29.932  0.00  0.00    -0.409 OA
BRANCH  33  34
ATOM     34  C   UNL     1      50.400 151.525  30.291  0.00  0.00    +0.150 C 
ATOM     35  C   UNL     1      50.170 150.406  29.518  0.00  0.00    +0.038 C 
ATOM     36  C   UNL     1      49.308 149.406  29.871  0.00  0.00    +0.003 C 
ATOM     37  C   UNL     1      48.609 149.490  31.069  0.00  0.00    +0.000 C 
ATOM     38  C   UNL     1      48.813 150.583  31.859  0.00  0.00    +0.003 C 
ATOM     39  C   UNL     1      49.682 151.579  31.490  0.00  0.00    +0.038 C 
ENDBRANCH  33  34
ENDBRANCH  21  33
ENDBRANCH   1  20
BRANCH  12  40
ATOM     40  O   UNL     1      58.421 152.053  25.234  0.00  0.00    -0.503 OA
ATOM     41  H   UNL     1      58.245 152.171  24.321  0.00  0.00    +0.292 HD
ENDBRANCH  12  40
TORSDOF 7
