REMARK  Name = =
REMARK  5 active torsions:
REMARK  status: ('A' for Active; 'I' for Inactive)
REMARK    1  A    between atoms: C_1  and  O_11
REMARK    2  A    between atoms: C_3  and  O_10
REMARK    3  A    between atoms: C_5  and  O_9
REMARK    4  A    between atoms: C_6  and  C_7
REMARK    5  A    between atoms: O_11  and  N_12
REMARK                            x       y       z     vdW  Elec       q    Type
REMARK                         _______ _______ _______ _____ _____    ______ ____
ROOT
ATOM      1  C   UNL     1       0.675  -7.550  29.507  0.00  0.00    +0.180 C 
ATOM      2  C   UNL     1      -0.471  -7.405  30.266  0.00  0.00    +0.077 C 
ATOM      3  C   UNL     1      -1.569  -8.195  30.013  0.00  0.00    +0.140 C 
ATOM      4  C   UNL     1      -1.530  -9.124  29.014  0.00  0.00    +0.073 C 
ATOM      5  C   UNL     1      -0.379  -9.288  28.233  0.00  0.00    +0.143 C 
ATOM      6  C   UNL     1       0.715  -8.498  28.487  0.00  0.00    +0.113 C 
ENDROOT
BRANCH   6   7
ATOM      7  C   UNL     1       1.952  -8.597  27.729  0.00  0.00    +0.240 C 
ATOM      8  O   UNL     1       2.132  -7.961  26.665  0.00  0.00    -0.283 OA
ENDBRANCH   6   7
BRANCH   5   9
ATOM      9  O   UNL     1      -0.355 -10.231  27.226  0.00  0.00    -0.505 OA
ATOM     10  H   UNL     1       0.416 -10.340  26.704  0.00  0.00    +0.292 HD
ENDBRANCH   5   9
BRANCH   3  11
ATOM     11  O   UNL     1      -2.709  -8.033  30.788  0.00  0.00    -0.505 OA
ATOM     12  H   UNL     1      -2.724  -7.392  31.471  0.00  0.00    +0.292 HD
ENDBRANCH   3  11
BRANCH   1  13
ATOM     13  O   UNL     1       1.796  -6.771  29.735  0.00  0.00    -0.380 OA
BRANCH  13  14
ATOM     14  N   UNL     1       2.065  -6.208  30.956  0.00  0.00    -0.123 N 
ATOM     15  C   UNL     1       2.350  -6.988  32.150  0.00  0.00    +0.137 C 
ATOM     16  C   UNL     1       2.723  -5.944  33.194  0.00  0.00    +0.035 C 
ATOM     17  C   UNL     1       1.981  -4.684  32.774  0.00  0.00    +0.090 C 
ATOM     18  C   UNL     1       2.118  -4.815  31.277  0.00  0.00    +0.257 C 
ATOM     19  O   UNL     1       2.255  -3.920  30.424  0.00  0.00    -0.272 OA
ENDBRANCH  13  14
ENDBRANCH   1  13
TORSDOF 5
