REMARK  Name = =
REMARK  7 active torsions:
REMARK  status: ('A' for Active; 'I' for Inactive)
REMARK    1  A    between atoms: C_1  and  O_24
REMARK    2  A    between atoms: C_2  and  N_7
REMARK    3  A    between atoms: C_3  and  O_23
REMARK    4  A    between atoms: C_5  and  O_22
REMARK    5  A    between atoms: C_6  and  C_14
REMARK    6  A    between atoms: C_14  and  C_16
REMARK    7  A    between atoms: O_24  and  N_25
REMARK                            x       y       z     vdW  Elec       q    Type
REMARK                         _______ _______ _______ _____ _____    ______ ____
ROOT
ATOM      1  C   UNL     1       0.402  -7.263  29.570  0.00  0.00    +0.189 C 
ATOM      2  C   UNL     1      -0.893  -7.797  29.785  0.00  0.00    +0.127 C 
ATOM      3  C   UNL     1      -1.633  -8.417  28.820  0.00  0.00    +0.153 C 
ATOM      4  C   UNL     1      -1.104  -8.539  27.569  0.00  0.00    +0.074 C 
ATOM      5  C   UNL     1       0.172  -8.028  27.324  0.00  0.00    +0.138 C 
ATOM      6  C   UNL     1       0.948  -7.404  28.260  0.00  0.00    +0.084 C 
ENDROOT
BRANCH   2   7
ATOM      7  N   UNL     1      -1.465  -7.762  31.091  0.00  0.00    -0.228 N 
ATOM      8  C   UNL     1      -1.383  -8.861  32.051  0.00  0.00    +0.185 C 
ATOM      9  C   UNL     1      -2.421  -8.552  33.037  0.00  0.00    +0.250 C 
ATOM     10  O   UNL     1      -2.927  -9.321  33.881  0.00  0.00    -0.273 OA
ATOM     11  N   UNL     1      -2.796  -7.201  32.897  0.00  0.00    -0.238 N 
ATOM     12  C   UNL     1      -2.194  -6.733  31.678  0.00  0.00    +0.314 C 
ATOM     13  O   UNL     1      -2.351  -5.547  31.265  0.00  0.00    -0.252 OA
ATOM     14  H   UNL     1      -3.360  -6.680  33.513  0.00  0.00    +0.159 HD
ENDBRANCH   2   7
BRANCH   6  15
ATOM     15  C   UNL     1       2.337  -7.116  28.148  0.00  0.00    +0.198 C 
ATOM     16  O   UNL     1       2.656  -5.886  28.399  0.00  0.00    -0.214 OA
BRANCH  15  17
ATOM     17  C   UNL     1       3.509  -7.938  27.855  0.00  0.00    -0.014 C 
ATOM     18  C   UNL     1       3.593  -9.234  27.989  0.00  0.00    -0.032 C 
ATOM     19  C   UNL     1       4.822 -10.064  27.659  0.00  0.00    +0.025 C 
ATOM     20  C   UNL     1       5.283  -9.441  26.329  0.00  0.00    +0.005 C 
ATOM     21  C   UNL     1       5.776  -8.080  26.722  0.00  0.00    +0.005 C 
ATOM     22  C   UNL     1       4.732  -7.229  27.295  0.00  0.00    +0.025 C 
ENDBRANCH  15  17
ENDBRANCH   6  15
BRANCH   5  23
ATOM     23  O   UNL     1       0.636  -8.163  26.014  0.00  0.00    -0.506 OA
ATOM     24  H   UNL     1       0.105  -8.591  25.371  0.00  0.00    +0.292 HD
ENDBRANCH   5  23
BRANCH   3  25
ATOM     25  O   UNL     1      -2.912  -8.917  29.129  0.00  0.00    -0.504 OA
ATOM     26  H   UNL     1      -3.255  -8.822  29.996  0.00  0.00    +0.292 HD
ENDBRANCH   3  25
BRANCH   1  27
ATOM     27  O   UNL     1       1.045  -6.687  30.510  0.00  0.00    -0.380 OA
BRANCH  27  28
ATOM     28  N   UNL     1       1.693  -6.115  31.430  0.00  0.00    -0.123 N 
ATOM     29  C   UNL     1       2.335  -6.708  32.603  0.00  0.00    +0.137 C 
ATOM     30  C   UNL     1       2.285  -5.586  33.615  0.00  0.00    +0.035 C 
ATOM     31  C   UNL     1       2.735  -4.416  32.747  0.00  0.00    +0.090 C 
ATOM     32  C   UNL     1       1.954  -4.684  31.518  0.00  0.00    +0.257 C 
ATOM     33  O   UNL     1       1.563  -3.845  30.660  0.00  0.00    -0.272 OA
ENDBRANCH  27  28
ENDBRANCH   1  27
TORSDOF 7
