REMARK  Name = =
REMARK  4 active torsions:
REMARK  status: ('A' for Active; 'I' for Inactive)
REMARK    1  A    between atoms: C_1  and  C_14
REMARK    2  A    between atoms: C_13  and  C_15
REMARK    3  A    between atoms: O_18  and  O_19
REMARK    4  A    between atoms: O_20  and  O_21
REMARK                            x       y       z     vdW  Elec       q    Type
REMARK                         _______ _______ _______ _____ _____    ______ ____
ROOT
ATOM      1  F   UNL     1      48.793 156.011  29.492  0.00  0.00    -0.204 F 
ATOM      2  C   UNL     1      49.485 157.136  29.782  0.00  0.00    +0.140 C 
ATOM      3  C   UNL     1      48.811 158.216  30.363  0.00  0.00    +0.030 C 
ATOM      4  C   UNL     1      49.514 159.367  30.662  0.00  0.00    +0.002 C 
ATOM      5  C   UNL     1      50.846 159.449  30.395  0.00  0.00    +0.003 C 
ATOM      6  C   UNL     1      51.514 158.358  29.811  0.00  0.00    +0.044 C 
ATOM      7  C   UNL     1      50.833 157.204  29.506  0.00  0.00    +0.031 C 
ENDROOT
BRANCH   7   8
ATOM      8  C   UNL     1      51.505 156.073  28.906  0.00  0.00    +0.002 C 
ATOM      9  C   UNL     1      51.986 156.137  27.599  0.00  0.00    +0.001 C 
ATOM     10  C   UNL     1      52.631 155.095  26.972  0.00  0.00    +0.011 C 
ATOM     11  C   UNL     1      52.806 153.932  27.677  0.00  0.00    +0.058 C 
ATOM     12  C   UNL     1      52.338 153.826  28.990  0.00  0.00    +0.011 C 
ATOM     13  C   UNL     1      51.705 154.874  29.584  0.00  0.00    +0.001 C 
ATOM     14 CL   UNL     1      53.601 152.566  26.980  0.00  0.00    -0.082 Cl
ENDBRANCH   7   8
BRANCH   6  15
ATOM     15  C   UNL     1      52.930 158.432  29.519  0.00  0.00    +0.234 C 
ATOM     16  O   UNL     1      53.472 157.544  28.837  0.00  0.00    -0.283 OA
ENDBRANCH   6  15
TORSDOF 2
REMARK  Name = =
REMARK  4 active torsions:
REMARK  status: ('A' for Active; 'I' for Inactive)
REMARK    1  A    between atoms: C_1  and  C_14
REMARK    2  A    between atoms: C_13  and  C_15
REMARK    3  A    between atoms: O_18  and  O_19
REMARK    4  A    between atoms: O_20  and  O_21
REMARK                            x       y       z     vdW  Elec       q    Type
REMARK                         _______ _______ _______ _____ _____    ______ ____
ROOT
ATOM      1  P   UNL     1      53.217 155.240  25.302  0.00  0.00    +0.000 P 
ENDROOT
TORSDOF 0
REMARK  Name = =
REMARK  4 active torsions:
REMARK  status: ('A' for Active; 'I' for Inactive)
REMARK    1  A    between atoms: C_1  and  C_14
REMARK    2  A    between atoms: C_13  and  C_15
REMARK    3  A    between atoms: O_18  and  O_19
REMARK    4  A    between atoms: O_20  and  O_21
REMARK                            x       y       z     vdW  Elec       q    Type
REMARK                         _______ _______ _______ _____ _____    ______ ____
ROOT
ATOM      1  O   UNL     1      54.237 156.151  25.940  0.00  0.00    -0.253 OA
ATOM      2  H   UNL     1      54.876 156.533  26.562  0.00  0.00    +0.253 HD
ENDROOT
BRANCH   1   3
ATOM      3  O   UNL     1      54.889 155.078  25.162  0.00  0.00    -0.253 OA
ATOM      4  H   UNL     1      54.250 154.696  24.540  0.00  0.00    +0.253 HD
ENDBRANCH   1   3
TORSDOF 1
REMARK  Name = =
REMARK  4 active torsions:
REMARK  status: ('A' for Active; 'I' for Inactive)
REMARK    1  A    between atoms: C_1  and  C_14
REMARK    2  A    between atoms: C_13  and  C_15
REMARK    3  A    between atoms: O_18  and  O_19
REMARK    4  A    between atoms: O_20  and  O_21
REMARK                            x       y       z     vdW  Elec       q    Type
REMARK                         _______ _______ _______ _____ _____    ______ ____
ROOT
ATOM      1  O   UNL     1      52.613 153.770  24.710  0.00  0.00    -0.253 OA
ATOM      2  H   UNL     1      53.115 153.293  24.031  0.00  0.00    +0.253 HD
ENDROOT
BRANCH   1   3
ATOM      3  O   UNL     1      52.059 155.245  24.074  0.00  0.00    -0.253 OA
ATOM      4  H   UNL     1      51.557 155.722  24.753  0.00  0.00    +0.253 HD
ENDBRANCH   1   3
TORSDOF 1
