REMARK  Name = =
REMARK  3 active torsions:
REMARK  status: ('A' for Active; 'I' for Inactive)
REMARK    1  A    between atoms: C_1  and  C_8
REMARK    2  A    between atoms: C_2  and  O_12
REMARK    3  A    between atoms: C_4  and  N_11
REMARK                            x       y       z     vdW  Elec       q    Type
REMARK                         _______ _______ _______ _____ _____    ______ ____
ROOT
ATOM      1  C   UNL     1      51.035 157.099  29.451  0.00  0.00    +0.088 C 
ATOM      2  C   UNL     1      52.152 157.668  28.869  0.00  0.00    +0.139 C 
ATOM      3  C   UNL     1      52.972 156.905  28.060  0.00  0.00    +0.052 C 
ATOM      4  C   UNL     1      52.730 155.573  27.794  0.00  0.00    +0.055 C 
ATOM      5  C   UNL     1      51.615 155.010  28.376  0.00  0.00    +0.071 C 
ATOM      6  C   UNL     1      50.792 155.758  29.183  0.00  0.00    +0.020 C 
ATOM      7 CL   UNL     1      51.283 153.312  28.053  0.00  0.00    -0.081 Cl
ENDROOT
BRANCH   1   8
ATOM      8  C   UNL     1      50.146 157.861  30.308  0.00  0.00    +0.246 C 
ATOM      9  O   UNL     1      49.030 157.399  30.597  0.00  0.00    -0.270 OA
ATOM     10  N   UNL     1      50.574 159.108  30.791  0.00  0.00    -0.325 N 
ATOM     11  H   UNL     1      51.464 159.451  30.547  0.00  0.00    +0.145 HD
ATOM     12  H   UNL     1      49.984 159.639  31.374  0.00  0.00    +0.145 HD
ENDBRANCH   1   8
BRANCH   4  13
ATOM     13  N   UNL     1      53.578 154.786  26.958  0.00  0.00    -0.356 N 
ATOM     14  H   UNL     1      54.374 155.191  26.544  0.00  0.00    +0.142 HD
ATOM     15  H   UNL     1      53.367 153.838  26.796  0.00  0.00    +0.142 HD
ENDBRANCH   4  13
BRANCH   2  16
ATOM     16  O   UNL     1      52.394 159.012  29.140  0.00  0.00    -0.505 OA
ATOM     17  H   UNL     1      51.810 159.491  29.695  0.00  0.00    +0.292 HD
ENDBRANCH   2  16
TORSDOF 3
