REMARK  Name = =
REMARK  0 active torsions:
REMARK  status: ('A' for Active; 'I' for Inactive)
REMARK                            x       y       z     vdW  Elec       q    Type
REMARK                         _______ _______ _______ _____ _____    ______ ____
ROOT
ATOM      1  N   UNL     1      50.751 156.115  29.573  0.00  0.00    -0.224 NA
ATOM      2  C   UNL     1      50.909 157.383  29.990  0.00  0.00    +0.199 C 
ATOM      3  N   UNL     1      51.839 158.128  29.368  0.00  0.00    -0.222 NA
ATOM      4  C   UNL     1      52.600 157.644  28.359  0.00  0.00    +0.102 C 
ATOM      5  C   UNL     1      52.426 156.350  27.946  0.00  0.00    +0.037 C 
ATOM      6  C   UNL     1      53.182 155.808  26.917  0.00  0.00    +0.003 C 
ATOM      7  C   UNL     1      52.982 154.498  26.525  0.00  0.00    +0.000 C 
ATOM      8  C   UNL     1      52.037 153.699  27.138  0.00  0.00    +0.002 C 
ATOM      9  C   UNL     1      51.305 154.269  28.154  0.00  0.00    +0.019 C 
ATOM     10  C   UNL     1      51.470 155.569  28.578  0.00  0.00    +0.085 C 
ENDROOT
TORSDOF 0
