REMARK  Name = =
REMARK  2 active torsions:
REMARK  status: ('A' for Active; 'I' for Inactive)
REMARK    1  A    between atoms: N_11  and  CA_12
REMARK    2  A    between atoms: CA_12  and  C_14
REMARK                            x       y       z     vdW  Elec       q    Type
REMARK                         _______ _______ _______ _____ _____    ______ ____
ROOT
ATOM      1  N   UNK A   0      51.437 157.661  29.643  0.00  0.00    -0.214 NA
ATOM      2  C   UNK A   0      50.583 156.635  29.478  0.00  0.00    +0.217 C 
ATOM      3  N   UNK A   0      49.310 156.831  29.860  0.00  0.00    -0.212 NA
ATOM      4  C   UNK A   0      48.857 157.979  30.393  0.00  0.00    +0.103 C 
ATOM      5  C   UNK A   0      49.741 159.032  30.561  0.00  0.00    +0.037 C 
ATOM      6  C   UNK A   0      49.327 160.242  31.105  0.00  0.00    +0.003 C 
ATOM      7  C   UNK A   0      50.235 161.260  31.256  0.00  0.00    +0.000 C 
ATOM      8  C   UNK A   0      51.526 161.080  30.873  0.00  0.00    +0.002 C 
ATOM      9  C   UNK A   0      51.952 159.887  30.333  0.00  0.00    +0.019 C 
ATOM     10  C   UNK A   0      51.049 158.838  30.170  0.00  0.00    +0.086 C 
ATOM     11  N   ALA A   1      50.997 155.385  28.919  0.00  0.00    -0.298 N 
ATOM     12  H   ALA A   1      50.325 154.672  28.822  0.00  0.00    +0.150 HD
ENDROOT
BRANCH  11  13
ATOM     13  CA  ALA A   1      52.332 155.116  28.494  0.00  0.00    +0.137 C 
ATOM     14  CB  ALA A   1      52.569 155.758  27.161  0.00  0.00    +0.030 C 
BRANCH  13  15
ATOM     15  C   ALA A   1      52.576 153.637  28.388  0.00  0.00    +0.227 C 
ATOM     16  O   ALA A   1      53.696 153.170  28.361  0.00  0.00    -0.286 OA
ENDBRANCH  13  15
ENDBRANCH  11  13
TORSDOF 2
