REMARK  Name = =
REMARK  6 active torsions:
REMARK  status: ('A' for Active; 'I' for Inactive)
REMARK    1  A    between atoms: N_11  and  C_12
REMARK    2  A    between atoms: N_11  and  S_16
REMARK    3  A    between atoms: C_12  and  C_14
REMARK    4  A    between atoms: S_16  and  P_17
REMARK    5  A    between atoms: P_17  and  O_19
REMARK    6  A    between atoms: P_17  and  O_20
REMARK                            x       y       z     vdW  Elec       q    Type
REMARK                         _______ _______ _______ _____ _____    ______ ____
ROOT
ATOM      1  N   UNL     1      51.490 157.759  28.948  0.00  0.00    -0.213 NA
ATOM      2  C   UNL     1      51.529 156.544  28.416  0.00  0.00    +0.230 C 
ATOM      3  N   UNL     1      50.516 155.692  28.687  0.00  0.00    -0.211 NA
ATOM      4  C   UNL     1      49.481 155.990  29.453  0.00  0.00    +0.103 C 
ATOM      5  C   UNL     1      49.423 157.245  30.013  0.00  0.00    +0.037 C 
ATOM      6  C   UNL     1      48.385 157.655  30.825  0.00  0.00    +0.003 C 
ATOM      7  C   UNL     1      48.344 158.925  31.378  0.00  0.00    +0.000 C 
ATOM      8  C   UNL     1      49.361 159.820  31.122  0.00  0.00    +0.002 C 
ATOM      9  C   UNL     1      50.399 159.401  30.307  0.00  0.00    +0.019 C 
ATOM     10  C   UNL     1      50.453 158.138  29.749  0.00  0.00    +0.086 C 
ATOM     11  N   UNL     1      52.544 156.030  27.573  0.00  0.00    -0.217 N 
ENDROOT
BRANCH  11  12
ATOM     12  C   UNL     1      52.510 156.287  26.181  0.00  0.00    +0.152 C 
ATOM     13  C   UNL     1      52.055 157.663  25.798  0.00  0.00    +0.031 C 
BRANCH  12  14
ATOM     14  C   UNL     1      53.686 155.805  25.426  0.00  0.00    +0.228 C 
ATOM     15  O   UNL     1      53.446 154.946  24.563  0.00  0.00    -0.286 OA
ENDBRANCH  12  14
ENDBRANCH  11  12
BRANCH  11  16
ATOM     16  S   UNL     1      53.859 155.059  28.220  0.00  0.00    +0.067 S 
BRANCH  16  17
ATOM     17  P   UNL     1      53.436 152.998  28.050  0.00  0.00    +0.404 P 
ATOM     18  O   UNL     1      53.274 152.697  26.568  0.00  0.00    -0.245 OA
BRANCH  17  19
ATOM     19  O   UNL     1      52.051 152.567  28.924  0.00  0.00    -0.315 OA
ATOM     20  H   UNL     1      52.185 152.771  29.863  0.00  0.00    +0.221 HD
ENDBRANCH  17  19
BRANCH  17  21
ATOM     21  O   UNL     1      54.793 152.176  28.695  0.00  0.00    -0.315 OA
ATOM     22  H   UNL     1      54.877 152.382  29.639  0.00  0.00    +0.221 HD
ENDBRANCH  17  21
ENDBRANCH  16  17
ENDBRANCH  11  16
TORSDOF 6
