REMARK  Name = =
REMARK  9 active torsions:
REMARK  status: ('A' for Active; 'I' for Inactive)
REMARK    1  A    between atoms: N_11  and  C_12
REMARK    2  A    between atoms: N_11  and  S_16
REMARK    3  A    between atoms: C_12  and  C_14
REMARK    4  A    between atoms: S_16  and  P_17
REMARK    5  A    between atoms: S_16  and  S_21
REMARK    6  A    between atoms: P_17  and  O_19
REMARK    7  A    between atoms: P_17  and  O_20
REMARK    8  A    between atoms: S_21  and  S_22
REMARK    9  A    between atoms: S_21  and  S_23
REMARK                            x       y       z     vdW  Elec       q    Type
REMARK                         _______ _______ _______ _____ _____    ______ ____
ROOT
ATOM      1  N   UNL     1      51.529 156.745  29.250  0.00  0.00    -0.213 NA
ATOM      2  C   UNL     1      52.167 157.066  28.108  0.00  0.00    +0.229 C 
ATOM      3  N   UNL     1      52.094 158.325  27.718  0.00  0.00    -0.211 NA
ATOM      4  C   UNL     1      51.442 159.276  28.372  0.00  0.00    +0.103 C 
ATOM      5  C   UNL     1      50.783 158.984  29.538  0.00  0.00    +0.037 C 
ATOM      6  C   UNL     1      50.107 159.951  30.226  0.00  0.00    +0.003 C 
ATOM      7  C   UNL     1      49.447 159.640  31.401  0.00  0.00    +0.000 C 
ATOM      8  C   UNL     1      49.515 158.326  31.817  0.00  0.00    +0.002 C 
ATOM      9  C   UNL     1      50.195 157.347  31.130  0.00  0.00    +0.019 C 
ATOM     10  C   UNL     1      50.850 157.660  29.964  0.00  0.00    +0.086 C 
ATOM     11  N   UNL     1      52.872 156.051  27.382  0.00  0.00    -0.229 N 
ENDROOT
BRANCH  11  12
ATOM     12  C   UNL     1      53.551 156.483  26.176  0.00  0.00    +0.151 C 
ATOM     13  C   UNL     1      52.562 156.838  25.080  0.00  0.00    +0.031 C 
BRANCH  12  14
ATOM     14  C   UNL     1      54.362 157.691  26.423  0.00  0.00    +0.228 C 
ATOM     15  O   UNL     1      54.750 158.067  27.492  0.00  0.00    -0.286 OA
ENDBRANCH  12  14
ENDBRANCH  11  12
BRANCH  11  16
ATOM     16  S   UNL     1      52.873 154.527  27.902  0.00  0.00    -0.034 S 
ATOM     17  H   UNL     1      53.527 154.391  29.087  0.00  0.00    +0.123 HD
BRANCH  16  18
ATOM     18  P   UNL     1      53.645 153.538  26.718  0.00  0.00    +0.390 P 
ATOM     19  O   UNL     1      54.548 152.463  27.357  0.00  0.00    -0.246 OA
BRANCH  18  20
ATOM     20  O   UNL     1      52.487 152.597  25.853  0.00  0.00    -0.316 OA
ATOM     21  H   UNL     1      51.886 152.166  26.481  0.00  0.00    +0.221 HD
ENDBRANCH  18  20
BRANCH  18  22
ATOM     22  O   UNL     1      54.624 154.231  25.526  0.00  0.00    -0.316 OA
ATOM     23  H   UNL     1      55.305 154.780  25.946  0.00  0.00    +0.221 HD
ENDBRANCH  18  22
ENDBRANCH  16  18
BRANCH  16  24
ATOM     24  S   UNL     1      51.032 154.017  28.051  0.00  0.00    -0.106 S 
ATOM     25  H   UNL     1      50.451 154.278  26.850  0.00  0.00    +0.114 HD
BRANCH  24  26
ATOM     26  S   UNL     1      51.038 152.522  28.495  0.00  0.00    -0.113 S 
ATOM     27  H   UNL     1      51.647 152.411  29.706  0.00  0.00    +0.114 HD
ENDBRANCH  24  26
BRANCH  24  28
ATOM     28  S   UNL     1      50.267 154.731  29.027  0.00  0.00    -0.113 S 
ATOM     29  H   UNL     1      50.794 154.515  30.262  0.00  0.00    +0.114 HD
ENDBRANCH  24  28
ENDBRANCH  16  24
ENDBRANCH  11  16
TORSDOF 9
