REMARK  Name = =
REMARK  11 active torsions:
REMARK  status: ('A' for Active; 'I' for Inactive)
REMARK    1  A    between atoms: S_1  and  N_12
REMARK    2  A    between atoms: S_1  and  P_17
REMARK    3  A    between atoms: S_1  and  S_21
REMARK    4  A    between atoms: N_12  and  C_13
REMARK    5  A    between atoms: C_13  and  C_15
REMARK    6  A    between atoms: P_17  and  O_19
REMARK    7  A    between atoms: P_17  and  O_20
REMARK    8  A    between atoms: S_21  and  S_22
REMARK    9  A    between atoms: S_21  and  S_23
REMARK   10  A    between atoms: S_23  and  N_24
REMARK   11  A    between atoms: N_24  and  O_25
REMARK                            x       y       z     vdW  Elec       q    Type
REMARK                         _______ _______ _______ _____ _____    ______ ____
ROOT
ATOM      1  S   UNL     1      53.634 154.063  27.967  0.00  0.00    -0.032 S 
ATOM      2  H   UNL     1      54.354 154.123  29.119  0.00  0.00    +0.123 HD
ENDROOT
BRANCH   1  13
ATOM      3  N   UNL     1      51.861 157.275  27.863  0.00  0.00    -0.213 NA
ATOM      4  C   UNL     1      53.008 156.626  27.985  0.00  0.00    +0.229 C 
ATOM      5  N   UNL     1      53.928 156.987  28.931  0.00  0.00    -0.211 NA
ATOM      6  C   UNL     1      53.741 157.998  29.778  0.00  0.00    +0.103 C 
ATOM      7  C   UNL     1      52.541 158.692  29.664  0.00  0.00    +0.037 C 
ATOM      8  C   UNL     1      52.350 159.735  30.537  0.00  0.00    +0.003 C 
ATOM      9  C   UNL     1      51.186 160.451  30.462  0.00  0.00    +0.000 C 
ATOM     10  C   UNL     1      50.243 160.095  29.509  0.00  0.00    +0.002 C 
ATOM     11  C   UNL     1      50.460 159.032  28.632  0.00  0.00    +0.019 C 
ATOM     12  C   UNL     1      51.627 158.312  28.705  0.00  0.00    +0.086 C 
ATOM     13  N   UNL     1      53.412 155.510  27.193  0.00  0.00    -0.229 N 
BRANCH  13  14
ATOM     14  C   UNL     1      53.614 155.714  25.801  0.00  0.00    +0.151 C 
ATOM     15  C   UNL     1      54.303 157.002  25.513  0.00  0.00    +0.031 C 
BRANCH  14  16
ATOM     16  C   UNL     1      52.472 155.495  24.920  0.00  0.00    +0.228 C 
ATOM     17  O   UNL     1      52.348 156.230  23.927  0.00  0.00    -0.286 OA
ENDBRANCH  14  16
ENDBRANCH  13  14
ENDBRANCH   1  13
BRANCH   1  18
ATOM     18  P   UNL     1      54.407 153.079  26.789  0.00  0.00    +0.390 P 
ATOM     19  O   UNL     1      53.533 151.958  26.239  0.00  0.00    -0.246 OA
BRANCH  18  20
ATOM     20  O   UNL     1      54.979 153.931  25.439  0.00  0.00    -0.316 OA
ATOM     21  H   UNL     1      55.545 154.661  25.734  0.00  0.00    +0.221 HD
ENDBRANCH  18  20
BRANCH  18  22
ATOM     22  O   UNL     1      55.789 152.283  27.431  0.00  0.00    -0.316 OA
ATOM     23  H   UNL     1      55.533 151.771  28.214  0.00  0.00    +0.221 HD
ENDBRANCH  18  22
ENDBRANCH   1  18
BRANCH   1  24
ATOM     24  S   UNL     1      51.902 153.399  28.331  0.00  0.00    -0.087 S 
ATOM     25  H   UNL     1      52.192 152.215  28.934  0.00  0.00    +0.116 HD
BRANCH  24  26
ATOM     26  S   UNL     1      50.987 153.136  27.149  0.00  0.00    -0.112 S 
ATOM     27  H   UNL     1      50.688 154.313  26.536  0.00  0.00    +0.114 HD
ENDBRANCH  24  26
BRANCH  24  28
ATOM     28  S   UNL     1      51.139 154.368  29.133  0.00  0.00    +0.012 S 
BRANCH  28  29
ATOM     29  N   UNL     1      51.212 155.517  30.240  0.00  0.00    -0.137 NA
ATOM     30  H   UNL     1      51.336 156.387  29.722  0.00  0.00    +0.168 HD
BRANCH  29  31
ATOM     31  O   UNL     1      50.264 155.768  31.134  0.00  0.00    -0.304 OA
ATOM     32  H   UNL     1      50.099 154.971  31.662  0.00  0.00    +0.237 HD
ENDBRANCH  29  31
ENDBRANCH  28  29
ENDBRANCH  24  28
ENDBRANCH   1  24
TORSDOF 11
