MODEL 1
REMARK VINA RESULT:    -6.869      0.000      0.000
REMARK INTER + INTRA:          -9.133
REMARK INTER:                  -8.676
REMARK INTRA:                  -0.457
REMARK UNBOUND:                -0.457
REMARK  Name = 
REMARK  7 active torsions:
REMARK  status: ('A' for Active; 'I' for Inactive)
REMARK    1  A    between atoms: C_1  and  S_2
REMARK    2  A    between atoms: C_6  and  C_11
REMARK    3  A    between atoms: N_8  and  C_10
REMARK    4  A    between atoms: C_11  and  N_12
REMARK    5  A    between atoms: N_12  and  C_16
REMARK    6  A    between atoms: C_13  and  C_15
REMARK    7  A    between atoms: C_17  and  O_23
REMARK                            x       y       z     vdW  Elec       q    Type
REMARK                         _______ _______ _______ _____ _____    ______ ____
ROOT
ATOM      1  N   UNL     1       1.101  -6.774  31.086  0.00  0.00    +0.000 N 
ATOM      2  C   UNL     1       1.558  -6.653  32.453  0.00  0.00    +0.000 C 
ATOM      3  O   UNL     1       2.702  -6.247  32.762  0.00  0.00    +0.000 OA
ATOM      4  C   UNL     1       0.640  -7.021  33.554  0.00  0.00    +0.000 C 
ENDROOT
BRANCH   1   5
ATOM      5  C   UNL     1       2.060  -6.442  30.058  0.00  0.00    +0.000 C 
ATOM      6  C   UNL     1       2.432  -5.006  29.950  0.00  0.00    +0.000 C 
ATOM      7  C   UNL     1       1.556  -4.206  29.022  0.00  0.00    +0.000 C 
ATOM      8  C   UNL     1       1.830  -4.503  27.570  0.00  0.00    +0.000 C 
ATOM      9  N   UNL     1       2.913  -5.374  27.332  0.00  0.00    +0.000 NA
ATOM     10  C   UNL     1       2.812  -6.714  27.760  0.00  0.00    +0.000 C 
ATOM     11  C   UNL     1       1.670  -7.014  28.708  0.00  0.00    +0.000 C 
ATOM     12  H   UNL     1       3.838  -4.974  27.201  0.00  0.00    +0.000 HD
BRANCH   6  13
ATOM     13  O   UNL     1       3.770  -4.868  29.534  0.00  0.00    +0.000 OA
ATOM     14  H   UNL     1       4.224  -4.134  30.003  0.00  0.00    +0.000 HD
ENDBRANCH   6  13
ENDBRANCH   1   5
BRANCH   1  15
ATOM     15  C   UNL     1      -0.231  -7.250  30.843  0.00  0.00    +0.000 C 
BRANCH  15  17
ATOM     16  C   UNL     1      -2.598  -6.491  30.991  0.00  0.00    +0.000 A 
ATOM     17  C   UNL     1      -1.262  -6.208  30.717  0.00  0.00    +0.000 A 
ATOM     18  N   UNL     1      -1.244  -4.925  30.380  0.00  0.00    +0.000 NA
ATOM     19  N   UNL     1      -2.469  -4.393  30.427  0.00  0.00    +0.000 N 
ATOM     20  C   UNL     1      -3.337  -5.346  30.806  0.00  0.00    +0.000 A 
ATOM     21  C   UNL     1      -2.829  -3.024  30.126  0.00  0.00    +0.000 C 
BRANCH  16  22
ATOM     22  S   UNL     1      -3.288  -8.015  31.492  0.00  0.00    +0.000 S 
ATOM     23  O   UNL     1      -4.773  -7.855  31.558  0.00  0.00    +0.000 OA
ATOM     24  O   UNL     1      -2.989  -9.041  30.437  0.00  0.00    +0.000 OA
ATOM     25 CL   UNL     1      -2.508  -8.667  33.264  0.00  0.00    +0.000 Cl
ENDBRANCH  16  22
ENDBRANCH  15  17
ENDBRANCH   1  15
TORSDOF 5
ENDMDL
