MODEL 1
REMARK VINA RESULT:    -6.383      0.000      0.000
REMARK INTER + INTRA:         -12.181
REMARK INTER:                  -9.928
REMARK INTRA:                  -2.253
REMARK UNBOUND:                -2.253
REMARK  Name = 
REMARK  13 active torsions:
REMARK  status: ('A' for Active; 'I' for Inactive)
REMARK    1  A    between atoms: C_1  and  C_22
REMARK    2  A    between atoms: C_2  and  C_21
REMARK    3  A    between atoms: C_4  and  N_20
REMARK    4  A    between atoms: C_5  and  C_18
REMARK    5  A    between atoms: C_6  and  C_7
REMARK    6  A    between atoms: C_8  and  O_9
REMARK    7  A    between atoms: O_9  and  C_10
REMARK    8  A    between atoms: C_10  and  C_11
REMARK    9  A    between atoms: C_11  and  C_12
REMARK   10  A    between atoms: C_12  and  C_13
REMARK   11  A    between atoms: C_22  and  O_24
REMARK   12  A    between atoms: O_24  and  C_25
REMARK   13  A    between atoms: C_25  and  C_26
REMARK                            x       y       z     vdW  Elec       q    Type
REMARK                         _______ _______ _______ _____ _____    ______ ____
ROOT
ATOM      1  C   UNL     1      -2.388  -6.887  31.327  0.00  0.00    +0.000 C 
ATOM      2  C   UNL     1      -3.091  -7.942  30.977  0.00  0.00    +0.000 C 
ATOM      3  O   UNL     1      -2.607  -8.911  30.078  0.00  0.00    +0.000 OA
ATOM      4  C   UNL     1      -1.345  -8.700  29.574  0.00  0.00    +0.000 C 
ATOM      5  C   UNL     1      -0.586  -7.683  29.871  0.00  0.00    +0.000 C 
ATOM      6  C   UNL     1      -1.021  -6.619  30.811  0.00  0.00    +0.000 C 
ATOM      7  C   UNL     1      -4.465  -8.120  31.560  0.00  0.00    +0.000 C 
ENDROOT
BRANCH   6   8
ATOM      8  C   UNL     1      -0.969  -5.344  30.052  0.00  0.00    +0.000 A 
ATOM      9  C   UNL     1       0.044  -4.429  30.349  0.00  0.00    +0.000 A 
ATOM     10  C   UNL     1       0.060  -3.206  29.654  0.00  0.00    +0.000 A 
ATOM     11  C   UNL     1      -0.907  -2.955  28.717  0.00  0.00    +0.000 A 
ATOM     12  C   UNL     1      -1.890  -3.884  28.451  0.00  0.00    +0.000 A 
ATOM     13  C   UNL     1      -1.915  -5.078  29.122  0.00  0.00    +0.000 A 
BRANCH   9  14
ATOM     14  O   UNL     1       0.974  -4.682  31.246  0.00  0.00    +0.000 OA
BRANCH  14  15
ATOM     15  C   UNL     1       2.187  -5.022  31.657  0.00  0.00    +0.000 C 
BRANCH  15  16
ATOM     16  C   UNL     1       2.383  -6.268  32.461  0.00  0.00    +0.000 C 
BRANCH  16  17
ATOM     17  C   UNL     1       1.479  -6.517  33.594  0.00  0.00    +0.000 C 
ATOM     18  C   UNL     1       0.756  -7.847  33.518  0.00  0.00    +0.000 C 
ENDBRANCH  16  17
ENDBRANCH  15  16
ENDBRANCH  14  15
ENDBRANCH   9  14
ENDBRANCH   6   8
BRANCH   4  19
ATOM     19  N   UNL     1      -0.797  -9.660  28.648  0.00  0.00    +0.000 N 
ATOM     20  H   UNL     1      -1.449 -10.256  28.092  0.00  0.00    +0.000 HD
ATOM     21  H   UNL     1       0.214  -9.762  28.534  0.00  0.00    +0.000 HD
ENDBRANCH   4  19
BRANCH   5  22
ATOM     22  C   UNL     1       0.754  -7.565  29.264  0.00  0.00    +0.000 C 
ATOM     23  N   UNL     1       1.811  -7.477  28.806  0.00  0.00    +0.000 NA
ENDBRANCH   5  22
BRANCH   1  24
ATOM     24  C   UNL     1      -2.962  -5.917  32.273  0.00  0.00    +0.000 C 
ATOM     25  O   UNL     1      -2.669  -5.907  33.494  0.00  0.00    +0.000 OA
BRANCH  24  26
ATOM     26  O   UNL     1      -3.869  -4.942  31.889  0.00  0.00    +0.000 OA
BRANCH  26  27
ATOM     27  C   UNL     1      -3.643  -3.560  32.092  0.00  0.00    +0.000 C 
ATOM     28  C   UNL     1      -4.383  -2.782  31.030  0.00  0.00    +0.000 C 
ENDBRANCH  26  27
ENDBRANCH  24  26
ENDBRANCH   1  24
TORSDOF 10
ENDMDL
