MODEL 1
REMARK VINA RESULT:    -8.903      0.000      0.000
REMARK INTER + INTRA:         -15.410
REMARK INTER:                 -13.848
REMARK INTRA:                  -1.562
REMARK UNBOUND:                -1.562
REMARK  Name = 
REMARK  16 active torsions:
REMARK  status: ('A' for Active; 'I' for Inactive)
REMARK    1  A    between atoms: C_1  and  N_10
REMARK    2  A    between atoms: C_2  and  C_8
REMARK    3  A    between atoms: C_4  and  O_7
REMARK    4  A    between atoms: C_5  and  O_6
REMARK    5  A    between atoms: C_8  and  N_9
REMARK    6  A    between atoms: C_14  and  N_15
REMARK    7  A    between atoms: C_16  and  C_34
REMARK    8  A    between atoms: C_16  and  C_35
REMARK    9  A    between atoms: C_18  and  N_23
REMARK   10  A    between atoms: C_20  and  C_21
REMARK   11  A    between atoms: C_20  and  C_22
REMARK   12  A    between atoms: N_23  and  C_24
REMARK   13  A    between atoms: C_24  and  C_25
REMARK   14  A    between atoms: C_26  and  O_27
REMARK   15  A    between atoms: O_27  and  C_28
REMARK   16  A    between atoms: C_28  and  C_29
REMARK                            x       y       z     vdW  Elec       q    Type
REMARK                         _______ _______ _______ _____ _____    ______ ____
ROOT
ATOM      1  N   UNL     1      -2.331  -5.586  31.285  0.00  0.00    +0.000 NA
ATOM      2  C   UNL     1      -2.755  -4.618  30.318  0.00  0.00    +0.000 C 
ATOM      3  C   UNL     1      -4.272  -4.300  30.389  0.00  0.00    +0.000 C 
ATOM      4  C   UNL     1      -4.523  -3.860  31.750  0.00  0.00    +0.000 C 
ATOM      5  C   UNL     1      -3.956  -4.812  32.802  0.00  0.00    +0.000 C 
ATOM      6  C   UNL     1      -3.319  -6.038  32.183  0.00  0.00    +0.000 C 
ATOM      7  C   UNL     1      -4.432  -6.879  31.682  0.00  0.00    +0.000 C 
ATOM      8  C   UNL     1      -2.801  -6.700  33.474  0.00  0.00    +0.000 C 
ATOM      9  C   UNL     1      -2.512  -4.896  28.881  0.00  0.00    +0.000 C 
ATOM     10  C   UNL     1      -2.123  -3.237  30.628  0.00  0.00    +0.000 C 
ENDROOT
BRANCH   1  15
ATOM     11  N   UNL     1       0.040  -6.176  31.475  0.00  0.00    +0.000 NA
ATOM     12  C   UNL     1       0.463  -7.313  32.262  0.00  0.00    +0.000 C 
ATOM     13  C   UNL     1      -0.413  -8.467  31.976  0.00  0.00    +0.000 C 
ATOM     14  C   UNL     1      -1.465  -7.917  31.014  0.00  0.00    +0.000 C 
ATOM     15  C   UNL     1      -1.256  -6.443  30.961  0.00  0.00    +0.000 C 
BRANCH  11  16
ATOM     16  C   UNL     1       1.097  -5.907  30.563  0.00  0.00    +0.000 C 
ATOM     17  C   UNL     1       0.933  -6.165  29.136  0.00  0.00    +0.000 C 
ATOM     18  C   UNL     1       1.816  -5.187  28.374  0.00  0.00    +0.000 C 
ATOM     19  C   UNL     1       2.597  -4.428  29.387  0.00  0.00    +0.000 C 
ATOM     20  C   UNL     1       1.724  -4.555  30.620  0.00  0.00    +0.000 C 
BRANCH  20  21
ATOM     21  O   UNL     1       2.455  -4.300  31.792  0.00  0.00    +0.000 OA
ATOM     22  H   UNL     1       1.923  -4.468  32.598  0.00  0.00    +0.000 HD
ENDBRANCH  20  21
BRANCH  19  23
ATOM     23  O   UNL     1       3.876  -4.836  29.609  0.00  0.00    +0.000 OA
ATOM     24  H   UNL     1       4.465  -4.055  29.333  0.00  0.00    +0.000 HD
ENDBRANCH  19  23
BRANCH  17  25
ATOM     25  C   UNL     1       1.316  -7.546  28.643  0.00  0.00    +0.000 C 
BRANCH  25  26
ATOM     26  N   UNL     1       2.742  -7.748  28.649  0.00  0.00    +0.000 NA
ATOM     27  H   UNL     1       3.225  -6.865  28.903  0.00  0.00    +0.000 HD
ATOM     28  H   UNL     1       3.091  -8.497  29.258  0.00  0.00    +0.000 HD
ENDBRANCH  25  26
ENDBRANCH  17  25
ENDBRANCH  11  16
ENDBRANCH   1  15
BRANCH   4  29
ATOM     29  N   UNL     1      -5.718  -3.331  32.192  0.00  0.00    +0.000 NA
ATOM     30  H   UNL     1      -6.372  -3.014  31.390  0.00  0.00    +0.000 HD
BRANCH  29  31
ATOM     31  C   UNL     1      -5.918  -2.395  33.230  0.00  0.00    +0.000 C 
BRANCH  31  32
ATOM     32  C   UNL     1      -6.700  -1.259  32.581  0.00  0.00    +0.000 A 
ATOM     33  C   UNL     1      -8.027  -1.434  32.275  0.00  0.00    +0.000 A 
ATOM     34  C   UNL     1      -8.742  -0.409  31.643  0.00  0.00    +0.000 A 
ATOM     35  C   UNL     1      -8.080   0.774  31.336  0.00  0.00    +0.000 A 
ATOM     36  C   UNL     1      -6.788   0.931  31.635  0.00  0.00    +0.000 A 
ATOM     37  C   UNL     1      -6.060  -0.092  32.275  0.00  0.00    +0.000 A 
BRANCH  33  38
ATOM     38  O   UNL     1      -8.693  -2.574  32.576  0.00  0.00    +0.000 OA
BRANCH  38  39
ATOM     39  C   UNL     1      -9.922  -3.035  32.321  0.00  0.00    +0.000 C 
ATOM     40  C   UNL     1     -10.625  -3.430  33.628  0.00  0.00    +0.000 C 
ENDBRANCH  38  39
ENDBRANCH  33  38
ENDBRANCH  31  32
ENDBRANCH  29  31
ENDBRANCH   4  29
TORSDOF 11
ENDMDL
