MODEL 1
REMARK VINA RESULT:    -7.395      0.000      0.000
REMARK INTER + INTRA:          -9.683
REMARK INTER:                  -9.341
REMARK INTRA:                  -0.342
REMARK UNBOUND:                -0.342
REMARK  Name = 
REMARK  5 active torsions:
REMARK  status: ('A' for Active; 'I' for Inactive)
REMARK    1  A    between atoms: N_3  and  N_4
REMARK    2  A    between atoms: C_5  and  C_6
REMARK    3  A    between atoms: C_15  and  C_18
REMARK    4  A    between atoms: C_18  and  C_19
REMARK    5  A    between atoms: C_19  and  O_21
REMARK                            x       y       z     vdW  Elec       q    Type
REMARK                         _______ _______ _______ _____ _____    ______ ____
ROOT
ATOM      1  N   UNL     1      -3.554  -4.482  31.983  0.00  0.00    +0.000 N 
ATOM      2  C   UNL     1      -4.399  -4.716  33.081  0.00  0.00    +0.000 C 
ATOM      3  N   UNL     1      -5.245  -3.918  33.580  0.00  0.00    +0.000 NA
ATOM      4  S   UNL     1      -4.055  -6.364  33.648  0.00  0.00    +0.000 S 
ATOM      5  C   UNL     1      -2.633  -6.657  32.510  0.00  0.00    +0.000 C 
ATOM      6  C   UNL     1      -2.955  -5.643  31.476  0.00  0.00    +0.000 C 
ATOM      7  O   UNL     1      -2.684  -5.862  30.243  0.00  0.00    +0.000 OA
ATOM      8  H   UNL     1      -3.392  -3.530  31.588  0.00  0.00    +0.000 HD
ENDROOT
BRANCH   3   9
ATOM      9  N   UNL     1      -5.495  -2.627  33.115  0.00  0.00    +0.000 NA
ATOM     10  C   UNL     1      -6.575  -2.240  32.579  0.00  0.00    +0.000 C 
BRANCH  10  11
ATOM     11  C   UNL     1      -6.762  -0.870  32.115  0.00  0.00    +0.000 A 
ATOM     12  C   UNL     1      -8.012  -0.313  31.930  0.00  0.00    +0.000 A 
ATOM     13  C   UNL     1      -8.192   0.987  31.489  0.00  0.00    +0.000 A 
ATOM     14  C   UNL     1      -7.091   1.767  31.223  0.00  0.00    +0.000 A 
ATOM     15  C   UNL     1      -5.828   1.244  31.396  0.00  0.00    +0.000 A 
ATOM     16  C   UNL     1      -5.680  -0.054  31.836  0.00  0.00    +0.000 A 
ATOM     17 CL   UNL     1      -7.295   3.432  30.659  0.00  0.00    +0.000 Cl
ATOM     18 CL   UNL     1      -9.414  -1.317  32.273  0.00  0.00    +0.000 Cl
ENDBRANCH  10  11
ENDBRANCH   3   9
BRANCH   5  19
ATOM     19  C   UNL     1      -2.666  -8.060  32.001  0.00  0.00    +0.000 C 
BRANCH  19  20
ATOM     20  C   UNL     1      -1.303  -8.536  31.772  0.00  0.00    +0.000 C 
ATOM     21  O   UNL     1      -0.310  -8.311  32.499  0.00  0.00    +0.000 OA
BRANCH  20  22
ATOM     22  O   UNL     1      -1.065  -9.322  30.636  0.00  0.00    +0.000 OA
ATOM     23  H   UNL     1      -0.550 -10.211  30.721  0.00  0.00    +0.000 HD
ENDBRANCH  20  22
ENDBRANCH  19  20
ENDBRANCH   5  19
TORSDOF 5
ENDMDL
