MODEL 1
REMARK VINA RESULT:    -8.674      0.000      0.000
REMARK INTER + INTRA:         -14.922
REMARK INTER:                 -13.491
REMARK INTRA:                  -1.431
REMARK UNBOUND:                -1.431
REMARK  Name = 
REMARK  12 active torsions:
REMARK  status: ('A' for Active; 'I' for Inactive)
REMARK    1  A    between atoms: N_1  and  C_2
REMARK    2  A    between atoms: C_2  and  C_3
REMARK    3  A    between atoms: C_2  and  C_11
REMARK    4  A    between atoms: C_5  and  O_6
REMARK    5  A    between atoms: O_6  and  C_7
REMARK    6  A    between atoms: C_11  and  N_12
REMARK    7  A    between atoms: C_16  and  N_17
REMARK    8  A    between atoms: C_20  and  C_21
REMARK    9  A    between atoms: C_21  and  C_22
REMARK   10  A    between atoms: C_22  and  C_23
REMARK   11  A    between atoms: C_24  and  O_25
REMARK   12  A    between atoms: O_25  and  C_26
REMARK                            x       y       z     vdW  Elec       q    Type
REMARK                         _______ _______ _______ _____ _____    ______ ____
ROOT
ATOM      1  N   UNL     1       0.727  -6.024  28.768  0.00  0.00    +0.000 NA
ATOM      2  C   UNL     1       1.943  -6.723  28.513  0.00  0.00    +0.000 C 
ATOM      3  C   UNL     1       2.196  -6.577  27.014  0.00  0.00    +0.000 C 
ATOM      4  C   UNL     1       1.628  -5.208  26.792  0.00  0.00    +0.000 C 
ATOM      5  C   UNL     1       0.370  -5.199  27.688  0.00  0.00    +0.000 C 
ENDROOT
BRANCH   5   6
ATOM      6  N   UNL     1       0.172  -3.800  27.962  0.00  0.00    +0.000 NA
ATOM      7  C   UNL     1      -1.038  -3.322  27.370  0.00  0.00    +0.000 C 
ATOM      8  C   UNL     1      -1.882  -2.579  28.375  0.00  0.00    +0.000 C 
ATOM      9  C   UNL     1      -2.111  -3.523  29.552  0.00  0.00    +0.000 C 
ATOM     10  C   UNL     1      -0.758  -3.613  30.250  0.00  0.00    +0.000 C 
ATOM     11  C   UNL     1       0.350  -3.325  29.265  0.00  0.00    +0.000 C 
BRANCH   9  12
ATOM     12  C   UNL     1      -3.167  -2.945  30.449  0.00  0.00    +0.000 C 
BRANCH  12  13
ATOM     13  C   UNL     1      -4.443  -3.732  30.455  0.00  0.00    +0.000 C 
BRANCH  13  14
ATOM     14  C   UNL     1      -4.263  -4.858  31.428  0.00  0.00    +0.000 A 
ATOM     15  C   UNL     1      -4.364  -4.606  32.780  0.00  0.00    +0.000 A 
ATOM     16  C   UNL     1      -4.199  -5.619  33.718  0.00  0.00    +0.000 A 
ATOM     17  C   UNL     1      -3.929  -6.914  33.327  0.00  0.00    +0.000 A 
ATOM     18  C   UNL     1      -3.830  -7.161  31.974  0.00  0.00    +0.000 A 
ATOM     19  C   UNL     1      -3.994  -6.147  31.027  0.00  0.00    +0.000 A 
BRANCH  15  20
ATOM     20  O   UNL     1      -4.636  -3.298  33.174  0.00  0.00    +0.000 OA
ATOM     21  C   UNL     1      -5.919  -2.990  33.669  0.00  0.00    +0.000 C 
ENDBRANCH  15  20
ENDBRANCH  13  14
ENDBRANCH  12  13
ENDBRANCH   9  12
ENDBRANCH   5   6
BRANCH   1  22
ATOM     22  C   UNL     1      -0.267  -6.766  29.444  0.00  0.00    +0.000 C 
BRANCH  22  23
ATOM     23  C   UNL     1       0.228  -6.901  30.864  0.00  0.00    +0.000 A 
ATOM     24  C   UNL     1       1.366  -6.194  31.272  0.00  0.00    +0.000 A 
ATOM     25  C   UNL     1       1.832  -6.291  32.565  0.00  0.00    +0.000 A 
ATOM     26  C   UNL     1       1.189  -7.087  33.486  0.00  0.00    +0.000 A 
ATOM     27  C   UNL     1       0.075  -7.785  33.100  0.00  0.00    +0.000 A 
ATOM     28  C   UNL     1      -0.374  -7.673  31.806  0.00  0.00    +0.000 A 
BRANCH  25  29
ATOM     29  O   UNL     1       2.953  -5.589  32.949  0.00  0.00    +0.000 OA
ATOM     30  C   UNL     1       2.871  -4.700  34.040  0.00  0.00    +0.000 C 
ENDBRANCH  25  29
ENDBRANCH  22  23
BRANCH  22  31
ATOM     31  C   UNL     1      -0.605  -8.121  28.948  0.00  0.00    +0.000 C 
BRANCH  31  32
ATOM     32  N   UNL     1      -1.901  -8.316  28.401  0.00  0.00    +0.000 NA
ATOM     33  H   UNL     1      -2.012  -7.864  27.457  0.00  0.00    +0.000 HD
ATOM     34  H   UNL     1      -2.645  -7.855  29.017  0.00  0.00    +0.000 HD
ENDBRANCH  31  32
ENDBRANCH  22  31
ENDBRANCH   1  22
TORSDOF 10
ENDMDL
