MODEL 1
REMARK VINA RESULT:    -7.144      0.000      0.000
REMARK INTER + INTRA:          -9.466
REMARK INTER:                  -9.024
REMARK INTRA:                  -0.443
REMARK UNBOUND:                -0.443
REMARK  Name = 
REMARK  5 active torsions:
REMARK  status: ('A' for Active; 'I' for Inactive)
REMARK    1  A    between atoms: S_1  and  C_4
REMARK    2  A    between atoms: S_1  and  N_21
REMARK    3  A    between atoms: C_7  and  N_8
REMARK    4  A    between atoms: C_9  and  C_11
REMARK    5  A    between atoms: C_12  and  C_13
REMARK                            x       y       z     vdW  Elec       q    Type
REMARK                         _______ _______ _______ _____ _____    ______ ____
ROOT
ATOM      1  C   UNL     1      -4.692  -3.886  31.706  0.00  0.00    +0.000 A 
ATOM      2  C   UNL     1      -4.146  -3.754  30.444  0.00  0.00    +0.000 A 
ATOM      3  C   UNL     1      -3.320  -4.748  29.972  0.00  0.00    +0.000 A 
ATOM      4  C   UNL     1      -3.005  -5.895  30.717  0.00  0.00    +0.000 A 
ATOM      5  C   UNL     1      -3.545  -6.018  31.952  0.00  0.00    +0.000 A 
ATOM      6  C   UNL     1      -4.391  -5.008  32.446  0.00  0.00    +0.000 A 
ENDROOT
BRANCH   4   7
ATOM      7  N   UNL     1      -2.168  -6.839  30.122  0.00  0.00    +0.000 N 
ATOM      8  C   UNL     1      -0.778  -6.813  30.167  0.00  0.00    +0.000 C 
ATOM      9  O   UNL     1      -0.157  -5.911  30.757  0.00  0.00    +0.000 OA
ATOM     10  H   UNL     1      -2.642  -7.644  29.597  0.00  0.00    +0.000 HD
BRANCH   8  11
ATOM     11  C   UNL     1       0.049  -7.850  29.520  0.00  0.00    +0.000 C 
ATOM     12  C   UNL     1      -0.120  -8.322  28.329  0.00  0.00    +0.000 C 
BRANCH  12  13
ATOM     13  C   UNL     1       0.719  -9.352  27.715  0.00  0.00    +0.000 A 
ATOM     14  C   UNL     1       2.081  -9.091  27.495  0.00  0.00    +0.000 A 
ATOM     15  C   UNL     1       2.901 -10.037  26.919  0.00  0.00    +0.000 A 
ATOM     16  C   UNL     1       2.443 -11.277  26.531  0.00  0.00    +0.000 A 
ATOM     17  C   UNL     1       1.109 -11.542  26.742  0.00  0.00    +0.000 A 
ATOM     18  C   UNL     1       0.280 -10.590  27.323  0.00  0.00    +0.000 A 
ENDBRANCH  12  13
ENDBRANCH   8  11
ENDBRANCH   4   7
BRANCH   1  19
ATOM     19  S   UNL     1      -5.737  -2.657  32.337  0.00  0.00    +0.000 S 
ATOM     20  O   UNL     1      -5.320  -1.295  31.802  0.00  0.00    +0.000 OA
ATOM     21  O   UNL     1      -7.158  -2.857  31.903  0.00  0.00    +0.000 OA
BRANCH  19  22
ATOM     22  N   UNL     1      -5.698  -2.598  34.065  0.00  0.00    +0.000 NA
ATOM     23  H   UNL     1      -6.587  -2.166  34.398  0.00  0.00    +0.000 HD
ATOM     24  H   UNL     1      -5.532  -3.541  34.481  0.00  0.00    +0.000 HD
ENDBRANCH  19  22
ENDBRANCH   1  19
TORSDOF 5
ENDMDL
