MODEL 1
REMARK VINA RESULT:    -7.016      0.000      0.000
REMARK INTER + INTRA:          -9.166
REMARK INTER:                  -9.681
REMARK INTRA:                   0.515
REMARK UNBOUND:                 0.515
REMARK  Name = 
REMARK  8 active torsions:
REMARK  status: ('A' for Active; 'I' for Inactive)
REMARK    1  A    between atoms: S_1  and  C_4
REMARK    2  A    between atoms: S_1  and  N_10
REMARK    3  A    between atoms: N_6  and  C_9
REMARK    4  A    between atoms: C_12  and  C_13
REMARK    5  A    between atoms: C_13  and  O_15
REMARK    6  A    between atoms: C_18  and  N_19
REMARK    7  A    between atoms: C_23  and  C_26
REMARK    8  A    between atoms: C_26  and  C_27
REMARK                            x       y       z     vdW  Elec       q    Type
REMARK                         _______ _______ _______ _____ _____    ______ ____
ROOT
ATOM      1  N   UNL     1      -1.524  -5.509  31.102  0.00  0.00    +0.000 NA
ATOM      2  C   UNL     1      -2.555  -6.432  31.547  0.00  0.00    +0.000 C 
ATOM      3  C   UNL     1      -1.945  -7.246  32.680  0.00  0.00    +0.000 C 
ATOM      4  C   UNL     1      -0.428  -7.316  32.466  0.00  0.00    +0.000 C 
ATOM      5  C   UNL     1      -0.101  -7.407  30.998  0.00  0.00    +0.000 C 
ATOM      6  C   UNL     1      -0.716  -6.279  30.183  0.00  0.00    +0.000 C 
ENDROOT
BRANCH   6   7
ATOM      7  N   UNL     1       0.319  -5.512  29.510  0.00  0.00    +0.000 N 
ATOM      8  C   UNL     1       1.329  -4.816  30.195  0.00  0.00    +0.000 C 
ATOM      9  O   UNL     1       1.629  -4.858  31.397  0.00  0.00    +0.000 OA
ATOM     10  S   UNL     1       2.150  -3.806  28.975  0.00  0.00    +0.000 S 
ATOM     11  C   UNL     1       0.980  -4.163  27.598  0.00  0.00    +0.000 C 
ATOM     12  C   UNL     1       0.398  -5.426  28.102  0.00  0.00    +0.000 C 
ATOM     13  O   UNL     1       0.017  -6.324  27.266  0.00  0.00    +0.000 OA
BRANCH  11  14
ATOM     14  C   UNL     1       1.745  -4.408  26.317  0.00  0.00    +0.000 C 
BRANCH  14  15
ATOM     15  C   UNL     1       2.226  -3.158  25.702  0.00  0.00    +0.000 C 
ATOM     16  O   UNL     1       3.400  -3.025  25.403  0.00  0.00    +0.000 OA
ATOM     17 CL   UNL     1       1.081  -1.868  25.411  0.00  0.00    +0.000 Cl
ENDBRANCH  14  15
ENDBRANCH  11  14
ENDBRANCH   6   7
BRANCH   1  18
ATOM     18  S   UNL     1      -2.164  -4.159  30.276  0.00  0.00    +0.000 S 
ATOM     19  O   UNL     1      -1.093  -3.098  30.233  0.00  0.00    +0.000 OA
ATOM     20  O   UNL     1      -2.544  -4.553  28.881  0.00  0.00    +0.000 OA
BRANCH  18  21
ATOM     21  C   UNL     1      -3.505  -3.423  31.110  0.00  0.00    +0.000 A 
ATOM     22  C   UNL     1      -4.081  -3.757  32.303  0.00  0.00    +0.000 A 
ATOM     23  N   UNL     1      -5.070  -2.909  32.526  0.00  0.00    +0.000 N 
ATOM     24  N   UNL     1      -5.131  -2.058  31.516  0.00  0.00    +0.000 NA
ATOM     25  C   UNL     1      -4.181  -2.327  30.602  0.00  0.00    +0.000 A 
ATOM     26  C   UNL     1      -5.917  -2.960  33.715  0.00  0.00    +0.000 C 
ENDBRANCH  18  21
ENDBRANCH   1  18
BRANCH   3  27
ATOM     27  C   UNL     1      -2.463  -8.650  32.657  0.00  0.00    +0.000 C 
ATOM     28  O   UNL     1      -2.854  -9.245  33.685  0.00  0.00    +0.000 OA
BRANCH  27  29
ATOM     29  O   UNL     1      -2.518  -9.338  31.454  0.00  0.00    +0.000 OA
ATOM     30  H   UNL     1      -1.742  -9.897  31.107  0.00  0.00    +0.000 HD
ENDBRANCH  27  29
ENDBRANCH   3  27
TORSDOF 7
ENDMDL
