MODEL 1
REMARK VINA RESULT:    -6.875      0.000      0.000
REMARK INTER + INTRA:         -13.673
REMARK INTER:                 -11.095
REMARK INTRA:                  -2.579
REMARK UNBOUND:                -2.579
REMARK  Name = 
REMARK  13 active torsions:
REMARK  status: ('A' for Active; 'I' for Inactive)
REMARK    1  A    between atoms: N_1  and  C_14
REMARK    2  A    between atoms: C_8  and  C_9
REMARK    3  A    between atoms: C_14  and  C_15
REMARK    4  A    between atoms: C_15  and  O_17
REMARK    5  A    between atoms: O_17  and  N_18
REMARK    6  A    between atoms: N_18  and  C_19
REMARK    7  A    between atoms: N_18  and  C_26
REMARK    8  A    between atoms: C_19  and  C_20
REMARK    9  A    between atoms: C_20  and  O_21
REMARK   10  A    between atoms: C_20  and  C_22
REMARK   11  A    between atoms: C_22  and  O_23
REMARK   12  A    between atoms: O_23  and  C_24
REMARK   13  A    between atoms: C_24  and  C_25
REMARK                            x       y       z     vdW  Elec       q    Type
REMARK                         _______ _______ _______ _____ _____    ______ ____
ROOT
ATOM      1  C   UNL     1       1.710  -7.024  28.690  0.00  0.00    +0.000 C 
ATOM      2  O   UNL     1       2.639  -7.670  28.097  0.00  0.00    +0.000 OA
ENDROOT
BRANCH   1   3
ATOM      3  C   UNL     1       0.452  -7.691  29.081  0.00  0.00    +0.000 C 
BRANCH   3   4
ATOM      4  N   UNL     1      -0.218  -7.096  30.200  0.00  0.00    +0.000 N 
ATOM      5  C   UNL     1       0.314  -6.936  31.514  0.00  0.00    +0.000 C 
ATOM      6  O   UNL     1       1.421  -7.249  31.975  0.00  0.00    +0.000 OA
ATOM      7  N   UNL     1      -0.693  -6.304  32.317  0.00  0.00    +0.000 N 
ATOM      8  C   UNL     1      -1.987  -6.593  31.681  0.00  0.00    +0.000 C 
ATOM      9  C   UNL     1      -1.553  -6.545  30.246  0.00  0.00    +0.000 C 
ATOM     10  O   UNL     1      -2.149  -6.134  29.236  0.00  0.00    +0.000 OA
ATOM     11  C   UNL     1      -2.382  -7.978  32.079  0.00  0.00    +0.000 C 
ATOM     12  C   UNL     1      -2.032  -8.915  30.929  0.00  0.00    +0.000 C 
ATOM     13  C   UNL     1      -3.845  -8.153  32.358  0.00  0.00    +0.000 C 
ATOM     14  C   UNL     1      -4.452  -7.061  33.165  0.00  0.00    +0.000 C 
ATOM     15  C   UNL     1      -3.549  -5.880  33.404  0.00  0.00    +0.000 C 
ATOM     16  C   UNL     1      -2.936  -5.518  32.059  0.00  0.00    +0.000 C 
ATOM     17  H   UNL     1      -0.586  -5.744  33.182  0.00  0.00    +0.000 HD
ENDBRANCH   3   4
ENDBRANCH   1   3
BRANCH   1  18
ATOM     18  O   UNL     1       1.995  -5.685  28.916  0.00  0.00    +0.000 OA
BRANCH  18  19
ATOM     19  N   UNL     1       1.575  -4.695  28.045  0.00  0.00    +0.000 N 
BRANCH  19  20
ATOM     20  C   UNL     1       0.383  -3.935  28.346  0.00  0.00    +0.000 A 
ATOM     21  C   UNL     1       0.088  -3.499  29.612  0.00  0.00    +0.000 A 
ATOM     22  C   UNL     1      -1.044  -2.750  29.901  0.00  0.00    +0.000 A 
ATOM     23  C   UNL     1      -1.883  -2.451  28.851  0.00  0.00    +0.000 A 
ATOM     24  C   UNL     1      -1.613  -2.877  27.566  0.00  0.00    +0.000 A 
ATOM     25  C   UNL     1      -0.480  -3.618  27.317  0.00  0.00    +0.000 A 
ENDBRANCH  19  20
BRANCH  19  26
ATOM     26  C   UNL     1       2.356  -4.429  26.869  0.00  0.00    +0.000 C 
BRANCH  26  27
ATOM     27  C   UNL     1       3.566  -3.612  27.244  0.00  0.00    +0.000 C 
BRANCH  27  28
ATOM     28  O   UNL     1       3.845  -3.728  28.618  0.00  0.00    +0.000 OA
ATOM     29  H   UNL     1       3.504  -2.892  29.062  0.00  0.00    +0.000 HD
ENDBRANCH  27  28
BRANCH  27  30
ATOM     30  C   UNL     1       3.295  -2.143  26.973  0.00  0.00    +0.000 C 
BRANCH  30  31
ATOM     31  O   UNL     1       2.986  -1.476  28.153  0.00  0.00    +0.000 OA
BRANCH  31  32
ATOM     32  C   UNL     1       1.873  -0.676  27.909  0.00  0.00    +0.000 C 
ATOM     33  C   UNL     1       1.695  -0.580  26.404  0.00  0.00    +0.000 C 
ENDBRANCH  31  32
ENDBRANCH  30  31
ENDBRANCH  27  30
ENDBRANCH  26  27
ENDBRANCH  19  26
ENDBRANCH  18  19
ENDBRANCH   1  18
TORSDOF 11
ENDMDL
