MODEL 1
REMARK VINA RESULT:    -7.962      0.000      0.000
REMARK INTER + INTRA:         -10.603
REMARK INTER:                  -9.823
REMARK INTRA:                  -0.780
REMARK UNBOUND:                -0.780
REMARK  Name = 
REMARK  5 active torsions:
REMARK  status: ('A' for Active; 'I' for Inactive)
REMARK    1  A    between atoms: C_2  and  C_4
REMARK    2  A    between atoms: C_4  and  C_5
REMARK    3  A    between atoms: C_12  and  C_13
REMARK    4  A    between atoms: C_16  and  O_19
REMARK    5  A    between atoms: O_19  and  C_20
REMARK                            x       y       z     vdW  Elec       q    Type
REMARK                         _______ _______ _______ _____ _____    ______ ____
ROOT
ATOM      1  N   UNL     1      -2.463  -7.849  31.680  0.00  0.00    +0.000 N 
ATOM      2  C   UNL     1      -3.072  -7.128  32.720  0.00  0.00    +0.000 C 
ATOM      3  O   UNL     1      -4.004  -7.662  33.421  0.00  0.00    +0.000 OA
ATOM      4  C   UNL     1      -1.417  -7.310  30.861  0.00  0.00    +0.000 C 
ATOM      5  C   UNL     1      -1.026  -8.348  29.793  0.00  0.00    +0.000 C 
ATOM      6  N   UNL     1      -2.156  -8.893  29.142  0.00  0.00    +0.000 NA
ATOM      7  C   UNL     1      -3.307  -9.185  29.946  0.00  0.00    +0.000 C 
ATOM      8  C   UNL     1      -2.895  -9.191  31.402  0.00  0.00    +0.000 C 
ATOM      9  H   UNL     1      -2.405  -8.451  28.231  0.00  0.00    +0.000 HD
ENDROOT
BRANCH   4  10
ATOM     10  C   UNL     1      -0.232  -6.854  31.577  0.00  0.00    +0.000 A 
ATOM     11  C   UNL     1       0.499  -5.798  31.086  0.00  0.00    +0.000 A 
ATOM     12  C   UNL     1       1.631  -5.343  31.742  0.00  0.00    +0.000 A 
ATOM     13  C   UNL     1       2.044  -5.942  32.906  0.00  0.00    +0.000 A 
ATOM     14  C   UNL     1       1.316  -7.011  33.417  0.00  0.00    +0.000 A 
ATOM     15  C   UNL     1       0.190  -7.446  32.741  0.00  0.00    +0.000 A 
BRANCH  13  16
ATOM     16  O   UNL     1       3.192  -5.480  33.573  0.00  0.00    +0.000 OA
ATOM     17  C   UNL     1       3.092  -4.324  34.373  0.00  0.00    +0.000 C 
ENDBRANCH  13  16
ENDBRANCH   4  10
BRANCH   2  18
ATOM     18  C   UNL     1      -2.704  -5.738  33.083  0.00  0.00    +0.000 C 
BRANCH  18  19
ATOM     19  C   UNL     1      -3.685  -4.793  32.487  0.00  0.00    +0.000 A 
ATOM     20  C   UNL     1      -4.623  -4.216  33.318  0.00  0.00    +0.000 A 
ATOM     21  C   UNL     1      -5.550  -3.335  32.812  0.00  0.00    +0.000 A 
ATOM     22  F   UNL     1      -6.478  -2.772  33.663  0.00  0.00    +0.000 F 
ATOM     23  C   UNL     1      -5.556  -3.015  31.472  0.00  0.00    +0.000 A 
ATOM     24  C   UNL     1      -4.620  -3.584  30.622  0.00  0.00    +0.000 A 
ATOM     25  C   UNL     1      -3.701  -4.466  31.164  0.00  0.00    +0.000 A 
ENDBRANCH  18  19
ENDBRANCH   2  18
TORSDOF 4
ENDMDL
