MODEL 1
REMARK VINA RESULT:    -7.657      0.000      0.000
REMARK INTER + INTRA:         -11.384
REMARK INTER:                 -10.566
REMARK INTRA:                  -0.818
REMARK UNBOUND:                -0.818
REMARK  Name = 
REMARK  8 active torsions:
REMARK  status: ('A' for Active; 'I' for Inactive)
REMARK    1  A    between atoms: S_1  and  O_4
REMARK    2  A    between atoms: S_1  and  C_17
REMARK    3  A    between atoms: O_4  and  C_5
REMARK    4  A    between atoms: C_6  and  C_7
REMARK    5  A    between atoms: N_8  and  N_9
REMARK    6  A    between atoms: N_9  and  C_10
REMARK    7  A    between atoms: C_10  and  N_12
REMARK    8  A    between atoms: C_20  and  C_23
REMARK                            x       y       z     vdW  Elec       q    Type
REMARK                         _______ _______ _______ _____ _____    ______ ____
ROOT
ATOM      1  C   UNL     1      -3.385  -6.384  31.454  0.00  0.00    +0.000 A 
ATOM      2  C   UNL     1      -3.506  -5.028  31.152  0.00  0.00    +0.000 A 
ATOM      3  C   UNL     1      -4.069  -4.157  32.064  0.00  0.00    +0.000 A 
ATOM      4  C   UNL     1      -4.529  -4.569  33.288  0.00  0.00    +0.000 A 
ATOM      5  C   UNL     1      -4.416  -5.908  33.598  0.00  0.00    +0.000 A 
ATOM      6  C   UNL     1      -3.853  -6.783  32.688  0.00  0.00    +0.000 A 
ENDROOT
BRANCH   2   7
ATOM      7  C   UNL     1      -3.025  -4.575  29.865  0.00  0.00    +0.000 C 
ATOM      8  N   UNL     1      -2.932  -3.313  29.623  0.00  0.00    +0.000 NA
BRANCH   8   9
ATOM      9  N   UNL     1      -2.487  -2.770  28.430  0.00  0.00    +0.000 N 
ATOM     10  H   UNL     1      -2.647  -3.296  27.549  0.00  0.00    +0.000 HD
BRANCH   9  11
ATOM     11  C   UNL     1      -1.818  -1.521  28.340  0.00  0.00    +0.000 C 
ATOM     12  S   UNL     1      -0.369  -1.389  27.585  0.00  0.00    +0.000 S 
BRANCH  11  13
ATOM     13  N   UNL     1      -2.367  -0.335  28.897  0.00  0.00    +0.000 N 
ATOM     14  H   UNL     1      -2.867  -0.345  29.817  0.00  0.00    +0.000 HD
ATOM     15  H   UNL     1      -2.305   0.604  28.429  0.00  0.00    +0.000 HD
ENDBRANCH  11  13
ENDBRANCH   9  11
ENDBRANCH   8   9
ENDBRANCH   2   7
BRANCH   1  16
ATOM     16  O   UNL     1      -2.819  -7.255  30.532  0.00  0.00    +0.000 OA
BRANCH  16  17
ATOM     17  S   UNL     1      -1.573  -8.290  30.982  0.00  0.00    +0.000 S 
ATOM     18  O   UNL     1      -1.000  -9.019  29.783  0.00  0.00    +0.000 OA
ATOM     19  O   UNL     1      -2.122  -9.365  31.898  0.00  0.00    +0.000 OA
BRANCH  17  20
ATOM     20  C   UNL     1      -0.257  -7.477  31.766  0.00  0.00    +0.000 A 
ATOM     21  C   UNL     1       0.085  -7.659  33.088  0.00  0.00    +0.000 A 
ATOM     22  C   UNL     1       1.151  -6.973  33.643  0.00  0.00    +0.000 A 
ATOM     23  C   UNL     1       1.911  -6.085  32.901  0.00  0.00    +0.000 A 
ATOM     24  C   UNL     1       1.568  -5.898  31.563  0.00  0.00    +0.000 A 
ATOM     25  C   UNL     1       0.506  -6.590  31.037  0.00  0.00    +0.000 A 
ATOM     26  C   UNL     1       3.065  -5.337  33.490  0.00  0.00    +0.000 C 
ENDBRANCH  17  20
ENDBRANCH  16  17
ENDBRANCH   1  16
TORSDOF 7
ENDMDL
