MODEL 1
REMARK VINA RESULT:    -8.384      0.000      0.000
REMARK INTER + INTRA:         -12.705
REMARK INTER:                 -11.080
REMARK INTRA:                  -1.625
REMARK UNBOUND:                -1.625
REMARK  Name = 
REMARK  6 active torsions:
REMARK  status: ('A' for Active; 'I' for Inactive)
REMARK    1  A    between atoms: C_1  and  C_27
REMARK    2  A    between atoms: C_2  and  N_26
REMARK    3  A    between atoms: C_6  and  C_7
REMARK    4  A    between atoms: C_8  and  O_9
REMARK    5  A    between atoms: O_9  and  C_10
REMARK    6  A    between atoms: C_10  and  C_11
REMARK                            x       y       z     vdW  Elec       q    Type
REMARK                         _______ _______ _______ _____ _____    ______ ____
ROOT
ATOM      1  C   UNL     1       1.045  -6.088  31.701  0.00  0.00    +0.000 C 
ATOM      2  C   UNL     1       1.967  -5.147  31.793  0.00  0.00    +0.000 C 
ATOM      3  O   UNL     1       1.882  -4.073  30.932  0.00  0.00    +0.000 OA
ATOM      4  C   UNL     1       0.866  -3.978  29.999  0.00  0.00    +0.000 C 
ATOM      5  C   UNL     1      -0.054  -4.901  29.896  0.00  0.00    +0.000 C 
ATOM      6  C   UNL     1      -0.080  -6.103  30.757  0.00  0.00    +0.000 C 
ATOM      7  C   UNL     1      -1.114  -4.725  28.863  0.00  0.00    +0.000 C 
ATOM      8  O   UNL     1      -1.723  -5.725  28.455  0.00  0.00    +0.000 OA
ATOM      9  C   UNL     1      -1.348  -3.345  28.409  0.00  0.00    +0.000 C 
ATOM     10  C   UNL     1       0.026  -2.836  27.944  0.00  0.00    +0.000 C 
ATOM     11  C   UNL     1       0.923  -2.744  29.141  0.00  0.00    +0.000 C 
ENDROOT
BRANCH   6  12
ATOM     12  C   UNL     1      -0.044  -7.287  29.852  0.00  0.00    +0.000 A 
ATOM     13  C   UNL     1      -0.896  -8.379  30.010  0.00  0.00    +0.000 A 
ATOM     14  C   UNL     1      -0.808  -9.438  29.132  0.00  0.00    +0.000 A 
ATOM     15  C   UNL     1       0.096  -9.483  28.081  0.00  0.00    +0.000 A 
ATOM     16  C   UNL     1       0.930  -8.399  27.937  0.00  0.00    +0.000 A 
ATOM     17  C   UNL     1       0.852  -7.337  28.806  0.00  0.00    +0.000 A 
BRANCH  13  18
ATOM     18  O   UNL     1      -1.776  -8.311  31.053  0.00  0.00    +0.000 OA
BRANCH  18  19
ATOM     19  C   UNL     1      -3.159  -8.149  31.002  0.00  0.00    +0.000 C 
BRANCH  19  20
ATOM     20  C   UNL     1      -3.643  -7.000  31.796  0.00  0.00    +0.000 A 
ATOM     21  C   UNL     1      -3.924  -7.189  33.136  0.00  0.00    +0.000 A 
ATOM     22  C   UNL     1      -4.367  -6.108  33.872  0.00  0.00    +0.000 A 
ATOM     23  C   UNL     1      -4.529  -4.869  33.303  0.00  0.00    +0.000 A 
ATOM     24  C   UNL     1      -4.244  -4.682  31.947  0.00  0.00    +0.000 A 
ATOM     25  C   UNL     1      -3.799  -5.765  31.206  0.00  0.00    +0.000 A 
ENDBRANCH  19  20
ENDBRANCH  18  19
ENDBRANCH  13  18
ENDBRANCH   6  12
BRANCH   2  26
ATOM     26  N   UNL     1       3.027  -5.238  32.761  0.00  0.00    +0.000 N 
ATOM     27  H   UNL     1       2.804  -5.055  33.743  0.00  0.00    +0.000 HD
ATOM     28  H   UNL     1       3.988  -5.479  32.478  0.00  0.00    +0.000 HD
ENDBRANCH   2  26
BRANCH   1  29
ATOM     29  C   UNL     1       1.184  -7.198  32.635  0.00  0.00    +0.000 C 
ATOM     30  N   UNL     1       1.279  -8.082  33.388  0.00  0.00    +0.000 NA
ENDBRANCH   1  29
TORSDOF 6
ENDMDL
