MODEL 1
REMARK VINA RESULT:    -8.421      0.000      0.000
REMARK INTER + INTRA:         -14.373
REMARK INTER:                 -13.591
REMARK INTRA:                  -0.783
REMARK UNBOUND:                -0.783
REMARK  Name = 
REMARK  11 active torsions:
REMARK  status: ('A' for Active; 'I' for Inactive)
REMARK    1  A    between atoms: S_1  and  C_4
REMARK    2  A    between atoms: S_1  and  C_11
REMARK    3  A    between atoms: C_4  and  C_5
REMARK    4  A    between atoms: C_14  and  C_17
REMARK    5  A    between atoms: C_17  and  N_18
REMARK    6  A    between atoms: N_18  and  C_19
REMARK    7  A    between atoms: C_26  and  C_28
REMARK    8  A    between atoms: C_28  and  C_29
REMARK    9  A    between atoms: C_29  and  C_30
REMARK   10  A    between atoms: C_30  and  C_31
REMARK   11  A    between atoms: C_31  and  O_33
REMARK                            x       y       z     vdW  Elec       q    Type
REMARK                         _______ _______ _______ _____ _____    ______ ____
ROOT
ATOM      1  C   UNL     1      -5.067  -3.452  31.962  0.00  0.00    +0.000 A 
ATOM      2  C   UNL     1      -4.755  -3.651  30.641  0.00  0.00    +0.000 A 
ATOM      3  C   UNL     1      -3.928  -4.686  30.258  0.00  0.00    +0.000 A 
ATOM      4  C   UNL     1      -3.402  -5.537  31.211  0.00  0.00    +0.000 A 
ATOM      5  C   UNL     1      -3.730  -5.316  32.522  0.00  0.00    +0.000 A 
ATOM      6  C   UNL     1      -4.564  -4.273  32.917  0.00  0.00    +0.000 A 
ENDROOT
BRANCH   1   7
ATOM      7  S   UNL     1      -6.122  -2.137  32.477  0.00  0.00    +0.000 S 
ATOM      8  O   UNL     1      -5.908  -1.949  33.945  0.00  0.00    +0.000 OA
ATOM      9  O   UNL     1      -5.767  -0.851  31.793  0.00  0.00    +0.000 OA
BRANCH   7  10
ATOM     10  C   UNL     1      -7.802  -2.558  32.095  0.00  0.00    +0.000 C 
BRANCH  10  11
ATOM     11  C   UNL     1      -8.481  -1.412  31.381  0.00  0.00    +0.000 A 
ATOM     12  N   UNL     1      -8.346  -0.131  31.656  0.00  0.00    +0.000 NA
ATOM     13  C   UNL     1      -8.808   0.789  31.186  0.00  0.00    +0.000 A 
ATOM     14  S   UNL     1      -9.881  -0.022  29.835  0.00  0.00    +0.000 S 
ATOM     15  C   UNL     1      -9.338  -1.671  30.337  0.00  0.00    +0.000 A 
ATOM     16  N   UNL     1      -8.881   2.258  31.228  0.00  0.00    +0.000 N 
ATOM     17  H   UNL     1      -9.042   2.695  32.147  0.00  0.00    +0.000 HD
ATOM     18  H   UNL     1      -8.780   2.833  30.389  0.00  0.00    +0.000 HD
ENDBRANCH  10  11
ENDBRANCH   7  10
ENDBRANCH   1   7
BRANCH   4  19
ATOM     19  C   UNL     1      -2.530  -6.630  30.764  0.00  0.00    +0.000 C 
BRANCH  19  20
ATOM     20  N   UNL     1      -1.123  -6.362  30.779  0.00  0.00    +0.000 N 
ATOM     21  C   UNL     1      -0.286  -6.959  31.745  0.00  0.00    +0.000 C 
ATOM     22  O   UNL     1      -0.805  -7.677  32.634  0.00  0.00    +0.000 OA
BRANCH  20  23
ATOM     23  C   UNL     1      -0.553  -5.507  29.801  0.00  0.00    +0.000 A 
ATOM     24  C   UNL     1      -0.245  -5.978  28.537  0.00  0.00    +0.000 A 
ATOM     25  I   UNL     1      -0.593  -7.989  27.964  0.00  0.00    +0.000 I 
ATOM     26  C   UNL     1       0.310  -5.084  27.640  0.00  0.00    +0.000 A 
ATOM     27  C   UNL     1       0.553  -3.771  27.971  0.00  0.00    +0.000 A 
ATOM     28  C   UNL     1       0.230  -3.343  29.241  0.00  0.00    +0.000 A 
ATOM     29  C   UNL     1      -0.321  -4.179  30.177  0.00  0.00    +0.000 A 
ENDBRANCH  20  23
BRANCH  21  30
ATOM     30  C   UNL     1       1.190  -6.787  31.767  0.00  0.00    +0.000 C 
BRANCH  30  31
ATOM     31  C   UNL     1       1.721  -7.049  33.144  0.00  0.00    +0.000 C 
BRANCH  31  32
ATOM     32  C   UNL     1       1.761  -5.866  34.058  0.00  0.00    +0.000 C 
BRANCH  32  33
ATOM     33  C   UNL     1       2.930  -4.989  33.839  0.00  0.00    +0.000 C 
ATOM     34  O   UNL     1       2.980  -3.817  34.245  0.00  0.00    +0.000 OA
BRANCH  33  35
ATOM     35  O   UNL     1       4.011  -5.546  33.138  0.00  0.00    +0.000 OA
ATOM     36  H   UNL     1       3.879  -6.042  32.278  0.00  0.00    +0.000 HD
ENDBRANCH  33  35
ENDBRANCH  32  33
ENDBRANCH  31  32
ENDBRANCH  30  31
ENDBRANCH  21  30
ENDBRANCH  19  20
ENDBRANCH   4  19
TORSDOF 11
ENDMDL
