MODEL 1
REMARK VINA RESULT:    -7.201      0.000      0.000
REMARK INTER + INTRA:          -9.245
REMARK INTER:                  -8.885
REMARK INTRA:                  -0.360
REMARK UNBOUND:                -0.360
REMARK  Name = 
REMARK  7 active torsions:
REMARK  status: ('A' for Active; 'I' for Inactive)
REMARK    1  A    between atoms: C_4  and  C_8
REMARK    2  A    between atoms: C_6  and  C_7
REMARK    3  A    between atoms: C_10  and  C_23
REMARK    4  A    between atoms: C_13  and  C_19
REMARK    5  A    between atoms: C_19  and  C_20
REMARK    6  A    between atoms: C_20  and  O_22
REMARK    7  A    between atoms: C_23  and  O_25
REMARK                            x       y       z     vdW  Elec       q    Type
REMARK                         _______ _______ _______ _____ _____    ______ ____
ROOT
ATOM      1  C   UNK A   0      -0.145  -7.134  29.724  0.00  0.00    +0.000 C 
ATOM      2  N   UNK A   0      -1.062  -7.006  30.796  0.00  0.00    +0.000 N 
ATOM      3  N   UNK A   0      -2.328  -6.758  30.901  0.00  0.00    +0.000 NA
ATOM      4  C   UNK A   0      -2.759  -6.779  32.149  0.00  0.00    +0.000 A 
ATOM      5  C   UNK A   0      -1.677  -7.068  32.957  0.00  0.00    +0.000 A 
ATOM      6  C   UNK A   0      -0.624  -7.206  32.082  0.00  0.00    +0.000 A 
ATOM      7  C   UNK A   0       0.757  -7.521  32.500  0.00  0.00    +0.000 C 
ATOM      8  C   UNK A   0      -4.127  -6.546  32.659  0.00  0.00    +0.000 C 
ATOM      9  N   UNK A   1      -0.083  -8.233  29.064  0.00  0.00    +0.000 NA
ATOM     10  C   UNK A   1       0.640  -8.779  28.046  0.00  0.00    +0.000 C 
ATOM     11  C   UNK A   1       1.655  -8.035  27.541  0.00  0.00    +0.000 C 
ATOM     12  S   UNK A   1       1.934  -6.455  28.346  0.00  0.00    +0.000 S 
ATOM     13  C   UNK A   0       0.388  -5.890  29.182  0.00  0.00    +0.000 C 
ATOM     14  C   UNK A   0       0.727  -4.687  29.831  0.00  0.00    +0.000 C 
ATOM     15  N   UNK A   0       1.865  -4.100  29.768  0.00  0.00    +0.000 NA
ATOM     16  O   UNK A   0       3.022  -4.362  29.170  0.00  0.00    +0.000 OA
ATOM     17  N   UNK A   1       3.148  -5.507  28.438  0.00  0.00    +0.000 NA
ATOM     18  N   UNK A   0      -0.277  -3.995  30.633  0.00  0.00    +0.000 N 
ATOM     19  H   UNK A   0      -0.809  -4.511  31.328  0.00  0.00    +0.000 HD
ATOM     20  H   UNK A   0      -0.457  -2.976  30.516  0.00  0.00    +0.000 HD
ENDROOT
BRANCH  10  21
ATOM     21  C   UNK A   1       0.382 -10.089  27.483  0.00  0.00    +0.000 C 
ATOM     22  O   UNK A   1       0.875 -10.409  26.375  0.00  0.00    +0.000 OA
BRANCH  21  23
ATOM     23  O   UNK A   1      -0.408 -11.024  28.133  0.00  0.00    +0.000 OA
ATOM     24  H   UNK A   1      -1.372 -11.188  27.828  0.00  0.00    +0.000 HD
ENDBRANCH  21  23
ENDBRANCH  10  21
BRANCH  13  25
ATOM     25  C   UNK A   0      -0.572  -5.466  27.977  0.00  0.00    +0.000 C 
BRANCH  25  26
ATOM     26  C   UNK A   0      -0.204  -4.214  27.371  0.00  0.00    +0.000 C 
ATOM     27  O   UNK A   0      -0.959  -3.161  27.457  0.00  0.00    +0.000 OA
BRANCH  26  28
ATOM     28  O   UNK A   0       0.958  -3.968  26.637  0.00  0.00    +0.000 OA
ATOM     29  H   UNK A   0       1.489  -3.117  26.741  0.00  0.00    +0.000 HD
ENDBRANCH  26  28
ENDBRANCH  25  26
ENDBRANCH  13  25
TORSDOF 5
ENDMDL
