MODEL 1
REMARK VINA RESULT:    -6.862      0.000      0.000
REMARK INTER + INTRA:          -8.673
REMARK INTER:                  -8.066
REMARK INTRA:                  -0.607
REMARK UNBOUND:                -0.607
REMARK  Name = 
REMARK  4 active torsions:
REMARK  status: ('A' for Active; 'I' for Inactive)
REMARK    1  A    between atoms: C_1  and  C_2
REMARK    2  A    between atoms: C_2  and  C_3
REMARK    3  A    between atoms: C_2  and  O_10
REMARK    4  A    between atoms: C_11  and  N_17
REMARK                            x       y       z     vdW  Elec       q    Type
REMARK                         _______ _______ _______ _____ _____    ______ ____
ROOT
ATOM      1  C   UNL     1      -1.227  -7.620  30.766  0.00  0.00    +0.000 A 
ATOM      2  C   UNL     1      -0.837  -7.730  29.454  0.00  0.00    +0.000 A 
ATOM      3  C   UNL     1       0.430  -7.419  29.022  0.00  0.00    +0.000 A 
ATOM      4  C   UNL     1       1.367  -6.975  29.917  0.00  0.00    +0.000 A 
ATOM      5  C   UNL     1       1.010  -6.852  31.245  0.00  0.00    +0.000 A 
ATOM      6  C   UNL     1      -0.288  -7.175  31.663  0.00  0.00    +0.000 A 
ATOM      7 BR   UNL     1       2.312  -6.237  32.488  0.00  0.00    +0.000 Br
ENDROOT
BRANCH   2   8
ATOM      8  N   UNL     1      -1.778  -8.185  28.492  0.00  0.00    +0.000 N 
ATOM      9  H   UNL     1      -1.561  -8.404  27.506  0.00  0.00    +0.000 HD
ATOM     10  H   UNL     1      -2.772  -8.308  28.807  0.00  0.00    +0.000 HD
ENDBRANCH   2   8
BRANCH   1  11
ATOM     11  C   UNL     1      -2.570  -7.960  31.206  0.00  0.00    +0.000 C 
BRANCH  11  12
ATOM     12  C   UNL     1      -3.308  -6.808  31.785  0.00  0.00    +0.000 A 
ATOM     13  C   UNL     1      -3.739  -6.862  33.103  0.00  0.00    +0.000 A 
ATOM     14  C   UNL     1      -4.423  -5.794  33.646  0.00  0.00    +0.000 A 
ATOM     15  C   UNL     1      -4.709  -4.648  32.939  0.00  0.00    +0.000 A 
ATOM     16  C   UNL     1      -4.277  -4.602  31.632  0.00  0.00    +0.000 A 
ATOM     17  C   UNL     1      -3.583  -5.671  31.058  0.00  0.00    +0.000 A 
ATOM     18 CL   UNL     1      -5.578  -3.296  33.642  0.00  0.00    +0.000 Cl
ENDBRANCH  11  12
BRANCH  11  19
ATOM     19  O   UNL     1      -2.570  -9.010  32.129  0.00  0.00    +0.000 OA
ATOM     20  H   UNL     1      -3.404  -9.544  32.106  0.00  0.00    +0.000 HD
ENDBRANCH  11  19
ENDBRANCH   1  11
TORSDOF 4
ENDMDL
