MODEL 1
REMARK VINA RESULT:    -6.788      0.000      0.000
REMARK INTER + INTRA:         -11.679
REMARK INTER:                  -9.963
REMARK INTRA:                  -1.716
REMARK UNBOUND:                -1.716
REMARK  Name = 
REMARK  9 active torsions:
REMARK  status: ('A' for Active; 'I' for Inactive)
REMARK    1  A    between atoms: C_1  and  O_2
REMARK    2  A    between atoms: O_2  and  C_3
REMARK    3  A    between atoms: C_3  and  C_4
REMARK    4  A    between atoms: C_7  and  C_8
REMARK    5  A    between atoms: C_8  and  N_9
REMARK    6  A    between atoms: N_9  and  C_10
REMARK    7  A    between atoms: C_10  and  C_11
REMARK    8  A    between atoms: C_20  and  O_21
REMARK    9  A    between atoms: O_21  and  C_22
REMARK                            x       y       z     vdW  Elec       q    Type
REMARK                         _______ _______ _______ _____ _____    ______ ____
ROOT
ATOM      1  C   UNL     1      -3.183  -5.800  31.316  0.00  0.00    +0.000 A 
ATOM      2  C   UNL     1      -3.373  -7.187  31.635  0.00  0.00    +0.000 A 
ATOM      3  C   UNL     1      -3.983  -7.594  32.750  0.00  0.00    +0.000 A 
ATOM      4  C   UNL     1      -4.495  -6.659  33.672  0.00  0.00    +0.000 A 
ATOM      5  C   UNL     1      -4.323  -5.342  33.372  0.00  0.00    +0.000 A 
ATOM      6  C   UNL     1      -3.675  -4.919  32.207  0.00  0.00    +0.000 A 
ENDROOT
BRANCH   6   7
ATOM      7  O   UNL     1      -3.559  -3.533  31.982  0.00  0.00    +0.000 OA
ATOM      8  C   UNL     1      -4.603  -2.907  31.207  0.00  0.00    +0.000 C 
ENDBRANCH   6   7
BRANCH   1   9
ATOM      9  O   UNL     1      -2.531  -5.631  30.176  0.00  0.00    +0.000 OA
BRANCH   9  10
ATOM     10  C   UNL     1      -2.075  -4.837  29.237  0.00  0.00    +0.000 C 
BRANCH  10  11
ATOM     11  C   UNL     1      -0.811  -4.031  29.396  0.00  0.00    +0.000 C 
ATOM     12  O   UNL     1       0.227  -4.261  28.851  0.00  0.00    +0.000 OA
ATOM     13  N   UNL     1      -1.016  -2.940  30.329  0.00  0.00    +0.000 N 
ATOM     14  H   UNL     1      -1.288  -2.019  29.939  0.00  0.00    +0.000 HD
ATOM     15  H   UNL     1      -0.874  -3.099  31.321  0.00  0.00    +0.000 HD
ENDBRANCH  10  11
ENDBRANCH   9  10
ENDBRANCH   1   9
BRANCH   2  16
ATOM     16  C   UNL     1      -2.744  -8.174  30.740  0.00  0.00    +0.000 C 
BRANCH  16  17
ATOM     17  N   UNL     1      -1.360  -8.309  30.799  0.00  0.00    +0.000 NA
ATOM     18  H   UNL     1      -0.852  -8.125  29.904  0.00  0.00    +0.000 HD
BRANCH  17  19
ATOM     19  C   UNL     1      -0.687  -8.532  31.968  0.00  0.00    +0.000 C 
BRANCH  19  20
ATOM     20  C   UNL     1       0.277  -7.417  32.316  0.00  0.00    +0.000 A 
ATOM     21  C   UNL     1       0.873  -6.697  31.367  0.00  0.00    +0.000 A 
ATOM     22  N   UNL     1       1.845  -5.775  31.710  0.00  0.00    +0.000 NA
ATOM     23  C   UNL     1       2.196  -5.602  32.995  0.00  0.00    +0.000 A 
ATOM     24  C   UNL     1       1.600  -6.330  34.005  0.00  0.00    +0.000 A 
ATOM     25  C   UNL     1       0.619  -7.246  33.643  0.00  0.00    +0.000 A 
ENDBRANCH  19  20
ENDBRANCH  17  19
ENDBRANCH  16  17
ENDBRANCH   2  16
TORSDOF 8
ENDMDL
