MODEL 1
REMARK VINA RESULT:    -6.596      0.000      0.000
REMARK INTER + INTRA:          -9.601
REMARK INTER:                  -8.717
REMARK INTRA:                  -0.883
REMARK UNBOUND:                -0.883
REMARK  Name = 
REMARK  9 active torsions:
REMARK  status: ('A' for Active; 'I' for Inactive)
REMARK    1  A    between atoms: C_2  and  C_12
REMARK    2  A    between atoms: C_3  and  N_11
REMARK    3  A    between atoms: C_12  and  O_14
REMARK    4  A    between atoms: O_14  and  C_15
REMARK    5  A    between atoms: C_15  and  C_16
REMARK    6  A    between atoms: C_17  and  C_23
REMARK    7  A    between atoms: C_18  and  C_22
REMARK    8  A    between atoms: C_23  and  O_25
REMARK    9  A    between atoms: O_25  and  C_26
REMARK                            x       y       z     vdW  Elec       q    Type
REMARK                         _______ _______ _______ _____ _____    ______ ____
ROOT
ATOM      1  C   UNL     1      -0.289  -6.690  30.141  0.00  0.00    +0.000 C 
ATOM      2  C   UNL     1      -1.616  -7.112  30.528  0.00  0.00    +0.000 C 
ATOM      3  C   UNL     1      -2.173  -8.198  30.091  0.00  0.00    +0.000 C 
ATOM      4  O   UNL     1      -1.583  -9.090  29.208  0.00  0.00    +0.000 OA
ATOM      5  C   UNL     1      -0.298  -8.762  28.778  0.00  0.00    +0.000 A 
ATOM      6  C   UNL     1       0.344  -7.646  29.192  0.00  0.00    +0.000 A 
ATOM      7  C   UNL     1       1.633  -7.373  28.724  0.00  0.00    +0.000 A 
ATOM      8  C   UNL     1       2.205  -8.251  27.859  0.00  0.00    +0.000 A 
ATOM      9  C   UNL     1       1.558  -9.403  27.423  0.00  0.00    +0.000 A 
ATOM     10  C   UNL     1       0.295  -9.677  27.877  0.00  0.00    +0.000 A 
ATOM     11  C   UNL     1      -0.230  -5.315  29.625  0.00  0.00    +0.000 C 
ATOM     12  C   UNL     1       0.590  -4.613  30.348  0.00  0.00    +0.000 C 
ATOM     13  N   UNL     1       1.169  -5.364  31.393  0.00  0.00    +0.000 N 
ATOM     14  C   UNL     1       0.651  -6.664  31.305  0.00  0.00    +0.000 C 
ATOM     15  O   UNL     1       0.929  -7.639  32.070  0.00  0.00    +0.000 OA
ATOM     16  C   UNL     1       0.891  -3.149  30.097  0.00  0.00    +0.000 C 
ATOM     17  H   UNL     1       1.875  -5.014  32.124  0.00  0.00    +0.000 HD
ENDROOT
BRANCH   3  18
ATOM     18  N   UNL     1      -3.515  -8.477  30.582  0.00  0.00    +0.000 N 
ATOM     19  H   UNL     1      -3.755  -9.324  31.111  0.00  0.00    +0.000 HD
ATOM     20  H   UNL     1      -4.219  -7.746  30.353  0.00  0.00    +0.000 HD
ENDBRANCH   3  18
BRANCH   2  21
ATOM     21  C   UNL     1      -2.386  -6.269  31.472  0.00  0.00    +0.000 C 
ATOM     22  O   UNL     1      -3.210  -5.455  30.996  0.00  0.00    +0.000 OA
BRANCH  21  23
ATOM     23  O   UNL     1      -2.247  -6.331  32.838  0.00  0.00    +0.000 OA
BRANCH  23  24
ATOM     24  C   UNL     1      -3.355  -5.993  33.687  0.00  0.00    +0.000 C 
ATOM     25  C   UNL     1      -4.398  -7.073  33.680  0.00  0.00    +0.000 C 
ENDBRANCH  23  24
ENDBRANCH  21  23
ENDBRANCH   2  21
BRANCH  11  26
ATOM     26  C   UNL     1      -0.993  -4.809  28.458  0.00  0.00    +0.000 C 
ATOM     27  O   UNL     1      -0.545  -4.891  27.289  0.00  0.00    +0.000 OA
BRANCH  26  28
ATOM     28  O   UNL     1      -2.236  -4.225  28.618  0.00  0.00    +0.000 OA
ATOM     29  C   UNL     1      -2.432  -2.812  28.465  0.00  0.00    +0.000 C 
ENDBRANCH  26  28
ENDBRANCH  11  26
TORSDOF 6
ENDMDL
