MODEL 1
REMARK VINA RESULT:    -9.118      0.000      0.000
REMARK INTER + INTRA:         -10.433
REMARK INTER:                 -10.184
REMARK INTRA:                  -0.250
REMARK UNBOUND:                -0.250
REMARK  Name = 
REMARK  4 active torsions:
REMARK  status: ('A' for Active; 'I' for Inactive)
REMARK    1  A    between atoms: C_1  and  C_20
REMARK    2  A    between atoms: C_6  and  C_9
REMARK    3  A    between atoms: C_21  and  C_26
REMARK    4  A    between atoms: C_24  and  C_25
REMARK                            x       y       z     vdW  Elec       q    Type
REMARK                         _______ _______ _______ _____ _____    ______ ____
ROOT
ATOM      1  C   UNL     1      -0.061  -6.083  30.483  0.00  0.00    +0.000 C 
ATOM      2  O   UNL     1       0.219  -7.184  31.219  0.00  0.00    +0.000 OA
ATOM      3  N   UNL     1      -1.393  -5.769  30.691  0.00  0.00    +0.000 N 
ATOM      4  C   UNL     1      -2.146  -6.584  31.673  0.00  0.00    +0.000 C 
ATOM      5  C   UNL     1      -3.147  -5.716  32.395  0.00  0.00    +0.000 C 
ATOM      6  C   UNL     1      -4.212  -5.218  31.451  0.00  0.00    +0.000 C 
ATOM      7  C   UNL     1      -3.635  -5.096  30.085  0.00  0.00    +0.000 C 
ATOM      8  C   UNL     1      -2.141  -4.780  30.022  0.00  0.00    +0.000 C 
ATOM      9  N   UNL     1      -3.626  -6.308  33.594  0.00  0.00    +0.000 NA
ATOM     10  C   UNL     1      -4.036  -7.665  33.541  0.00  0.00    +0.000 C 
ATOM     11  C   UNL     1      -2.923  -8.676  33.446  0.00  0.00    +0.000 C 
ATOM     12  C   UNL     1      -2.539  -8.987  32.022  0.00  0.00    +0.000 C 
ATOM     13  C   UNL     1      -2.774  -7.796  31.106  0.00  0.00    +0.000 C 
ATOM     14  H   UNL     1      -3.097  -6.034  34.423  0.00  0.00    +0.000 HD
ENDROOT
BRANCH   1  15
ATOM     15  C   UNL     1       1.040  -5.592  29.741  0.00  0.00    +0.000 A 
ATOM     16  C   UNL     1       1.362  -5.550  28.432  0.00  0.00    +0.000 A 
ATOM     17  O   UNL     1       2.591  -5.045  28.278  0.00  0.00    +0.000 OA
ATOM     18  N   UNL     1       3.080  -4.755  29.429  0.00  0.00    +0.000 NA
ATOM     19  C   UNL     1       2.185  -5.062  30.380  0.00  0.00    +0.000 A 
ATOM     20  C   UNL     1       2.401  -4.868  31.825  0.00  0.00    +0.000 C 
ATOM     21  C   UNL     1       0.566  -5.958  27.270  0.00  0.00    +0.000 C 
ENDBRANCH   1  15
BRANCH   6  22
ATOM     22  C   UNL     1      -4.835  -3.987  31.980  0.00  0.00    +0.000 A 
ATOM     23  C   UNL     1      -5.333  -3.886  33.260  0.00  0.00    +0.000 A 
ATOM     24  C   UNL     1      -5.908  -2.715  33.726  0.00  0.00    +0.000 A 
ATOM     25  C   UNL     1      -6.009  -1.597  32.933  0.00  0.00    +0.000 A 
ATOM     26  C   UNL     1      -5.519  -1.667  31.652  0.00  0.00    +0.000 A 
ATOM     27  C   UNL     1      -4.953  -2.837  31.207  0.00  0.00    +0.000 A 
ENDBRANCH   6  22
TORSDOF 2
ENDMDL
