MODEL 1
REMARK VINA RESULT:    -8.231      0.000      0.000
REMARK INTER + INTRA:         -12.029
REMARK INTER:                 -10.877
REMARK INTRA:                  -1.152
REMARK UNBOUND:                -1.152
REMARK  Name = 
REMARK  8 active torsions:
REMARK  status: ('A' for Active; 'I' for Inactive)
REMARK    1  A    between atoms: C_4  and  N_20
REMARK    2  A    between atoms: C_5  and  C_18
REMARK    3  A    between atoms: C_6  and  C_7
REMARK    4  A    between atoms: C_10  and  N_11
REMARK    5  A    between atoms: N_11  and  C_12
REMARK    6  A    between atoms: N_11  and  C_14
REMARK    7  A    between atoms: C_12  and  C_13
REMARK    8  A    between atoms: C_14  and  C_15
REMARK                            x       y       z     vdW  Elec       q    Type
REMARK                         _______ _______ _______ _____ _____    ______ ____
ROOT
ATOM      1  C   UNL     1      -1.917  -5.433  29.746  0.00  0.00    +0.000 A 
ATOM      2  C   UNL     1      -2.730  -5.151  30.817  0.00  0.00    +0.000 A 
ATOM      3  O   UNL     1      -3.281  -3.898  31.007  0.00  0.00    +0.000 OA
ATOM      4  C   UNL     1      -2.974  -2.913  30.050  0.00  0.00    +0.000 C 
ATOM      5  C   UNL     1      -2.209  -3.120  29.007  0.00  0.00    +0.000 C 
ATOM      6  C   UNL     1      -1.590  -4.442  28.740  0.00  0.00    +0.000 C 
ATOM      7  C   UNL     1      -3.055  -6.111  31.784  0.00  0.00    +0.000 A 
ATOM      8  C   UNL     1      -2.525  -7.386  31.638  0.00  0.00    +0.000 A 
ATOM      9  O   UNL     1      -1.759  -7.615  30.613  0.00  0.00    +0.000 OA
ATOM     10  C   UNL     1      -1.438  -6.740  29.693  0.00  0.00    +0.000 A 
ATOM     11  O   UNL     1      -0.682  -7.110  28.756  0.00  0.00    +0.000 OA
ATOM     12  C   UNL     1      -2.858  -8.318  32.598  0.00  0.00    +0.000 A 
ATOM     13  C   UNL     1      -3.673  -8.036  33.670  0.00  0.00    +0.000 A 
ATOM     14  C   UNL     1      -4.191  -6.745  33.790  0.00  0.00    +0.000 A 
ATOM     15  C   UNL     1      -3.865  -5.820  32.842  0.00  0.00    +0.000 A 
ENDROOT
BRANCH   6  16
ATOM     16  C   UNL     1      -0.147  -4.190  28.528  0.00  0.00    +0.000 A 
ATOM     17  C   UNL     1       0.740  -3.889  29.542  0.00  0.00    +0.000 A 
ATOM     18  C   UNL     1       2.092  -3.643  29.298  0.00  0.00    +0.000 A 
ATOM     19  C   UNL     1       2.575  -3.698  28.010  0.00  0.00    +0.000 A 
ATOM     20  C   UNL     1       1.700  -3.997  26.981  0.00  0.00    +0.000 A 
ATOM     21  C   UNL     1       0.368  -4.235  27.252  0.00  0.00    +0.000 A 
BRANCH  19  22
ATOM     22  N   UNL     1       3.958  -3.434  27.694  0.00  0.00    +0.000 N 
BRANCH  22  23
ATOM     23  C   UNL     1       4.294  -2.221  26.974  0.00  0.00    +0.000 C 
ATOM     24  C   UNL     1       5.698  -2.214  26.434  0.00  0.00    +0.000 C 
ENDBRANCH  22  23
BRANCH  22  25
ATOM     25  C   UNL     1       4.956  -4.365  28.113  0.00  0.00    +0.000 C 
ATOM     26  C   UNL     1       4.837  -5.742  27.530  0.00  0.00    +0.000 C 
ENDBRANCH  22  25
ENDBRANCH  19  22
ENDBRANCH   6  16
BRANCH   4  27
ATOM     27  N   UNL     1      -3.526  -1.586  30.209  0.00  0.00    +0.000 N 
ATOM     28  H   UNL     1      -4.065  -1.102  29.465  0.00  0.00    +0.000 HD
ATOM     29  H   UNL     1      -3.379  -1.085  31.108  0.00  0.00    +0.000 HD
ENDBRANCH   4  27
BRANCH   5  30
ATOM     30  C   UNL     1      -1.983  -2.010  28.093  0.00  0.00    +0.000 C 
ATOM     31  N   UNL     1      -1.791  -1.104  27.368  0.00  0.00    +0.000 NA
ENDBRANCH   5  30
TORSDOF 6
ENDMDL
