MODEL 1
REMARK VINA RESULT:    -7.462      0.000      0.000
REMARK INTER + INTRA:         -15.264
REMARK INTER:                 -12.697
REMARK INTRA:                  -2.567
REMARK UNBOUND:                -2.567
REMARK  Name = 
REMARK  15 active torsions:
REMARK  status: ('A' for Active; 'I' for Inactive)
REMARK    1  A    between atoms: C_2  and  C_29
REMARK    2  A    between atoms: C_9  and  C_12
REMARK    3  A    between atoms: C_12  and  C_13
REMARK    4  A    between atoms: C_13  and  C_14
REMARK    5  A    between atoms: C_13  and  C_17
REMARK    6  A    between atoms: C_14  and  O_16
REMARK    7  A    between atoms: C_17  and  N_18
REMARK    8  A    between atoms: N_18  and  C_19
REMARK    9  A    between atoms: N_18  and  C_27
REMARK   10  A    between atoms: C_21  and  O_22
REMARK   11  A    between atoms: O_22  and  C_23
REMARK   12  A    between atoms: C_27  and  C_28
REMARK   13  A    between atoms: C_29  and  C_30
REMARK   14  A    between atoms: C_30  and  C_31
REMARK   15  A    between atoms: C_31  and  O_33
REMARK                            x       y       z     vdW  Elec       q    Type
REMARK                         _______ _______ _______ _____ _____    ______ ____
ROOT
ATOM      1  C   UNL     1      -0.483  -2.852  27.110  0.00  0.00    +0.000 C 
ENDROOT
BRANCH   1  10
ATOM      2  N   UNL     1      -2.600  -5.419  30.699  0.00  0.00    +0.000 NA
ATOM      3  C   UNL     1      -3.426  -5.496  31.781  0.00  0.00    +0.000 A 
ATOM      4  C   UNL     1      -4.101  -4.384  32.238  0.00  0.00    +0.000 A 
ATOM      5  O   UNL     1      -4.871  -4.471  33.250  0.00  0.00    +0.000 OA
ATOM      6  O   UNL     1      -3.916  -3.256  31.593  0.00  0.00    +0.000 OA
ATOM      7  C   UNL     1      -3.125  -3.155  30.548  0.00  0.00    +0.000 A 
ATOM      8  C   UNL     1      -2.429  -4.247  30.057  0.00  0.00    +0.000 A 
ATOM      9  C   UNL     1      -1.595  -4.154  28.964  0.00  0.00    +0.000 A 
ATOM     10  C   UNL     1      -1.413  -2.945  28.300  0.00  0.00    +0.000 A 
ATOM     11  C   UNL     1      -2.098  -1.859  28.778  0.00  0.00    +0.000 A 
ATOM     12  C   UNL     1      -2.943  -1.960  29.887  0.00  0.00    +0.000 A 
BRANCH   3  13
ATOM     13  C   UNL     1      -3.593  -6.796  32.472  0.00  0.00    +0.000 C 
BRANCH  13  14
ATOM     14  C   UNL     1      -4.062  -7.827  31.472  0.00  0.00    +0.000 C 
BRANCH  14  15
ATOM     15  C   UNL     1      -2.995  -8.720  31.023  0.00  0.00    +0.000 C 
ATOM     16  O   UNL     1      -2.034  -8.990  31.803  0.00  0.00    +0.000 OA
BRANCH  15  17
ATOM     17  O   UNL     1      -2.962  -9.304  29.769  0.00  0.00    +0.000 OA
ATOM     18  H   UNL     1      -2.392  -8.880  29.023  0.00  0.00    +0.000 HD
ENDBRANCH  15  17
ENDBRANCH  14  15
ENDBRANCH  13  14
ENDBRANCH   3  13
ENDBRANCH   1  10
BRANCH   1  19
ATOM     19  C   UNL     1       0.919  -2.948  27.572  0.00  0.00    +0.000 C 
BRANCH  19  20
ATOM     20  C   UNL     1       1.521  -1.569  27.714  0.00  0.00    +0.000 C 
ATOM     21  O   UNL     1       1.416  -0.720  26.798  0.00  0.00    +0.000 OA
BRANCH  20  22
ATOM     22  O   UNL     1       2.206  -1.203  28.862  0.00  0.00    +0.000 OA
ATOM     23  H   UNL     1       3.204  -1.118  28.899  0.00  0.00    +0.000 HD
ENDBRANCH  20  22
ENDBRANCH  19  20
BRANCH  19  24
ATOM     24  C   UNL     1       1.862  -3.934  27.058  0.00  0.00    +0.000 C 
BRANCH  24  25
ATOM     25  N   UNL     1       2.724  -4.621  27.971  0.00  0.00    +0.000 N 
BRANCH  25  26
ATOM     26  C   UNL     1       2.079  -5.340  29.067  0.00  0.00    +0.000 A 
ATOM     27  C   UNL     1       2.331  -5.054  30.385  0.00  0.00    +0.000 A 
ATOM     28  C   UNL     1       1.701  -5.777  31.393  0.00  0.00    +0.000 A 
ATOM     29  C   UNL     1       0.800  -6.806  31.078  0.00  0.00    +0.000 A 
ATOM     30  C   UNL     1       0.567  -7.066  29.751  0.00  0.00    +0.000 A 
ATOM     31  C   UNL     1       1.201  -6.341  28.738  0.00  0.00    +0.000 A 
BRANCH  28  32
ATOM     32  O   UNL     1       1.931  -5.522  32.720  0.00  0.00    +0.000 OA
ATOM     33  C   UNL     1       1.569  -6.429  33.726  0.00  0.00    +0.000 C 
ENDBRANCH  28  32
ENDBRANCH  25  26
BRANCH  25  34
ATOM     34  C   UNL     1       4.134  -4.657  27.935  0.00  0.00    +0.000 C 
ATOM     35  C   UNL     1       4.756  -3.322  27.537  0.00  0.00    +0.000 C 
ENDBRANCH  25  34
ENDBRANCH  24  25
ENDBRANCH  19  24
ENDBRANCH   1  19
TORSDOF 13
ENDMDL
