MODEL 1
REMARK VINA RESULT:    -8.362      0.000      0.000
REMARK INTER + INTRA:         -13.401
REMARK INTER:                 -12.762
REMARK INTRA:                  -0.639
REMARK UNBOUND:                -0.639
REMARK  Name = 
REMARK  10 active torsions:
REMARK  status: ('A' for Active; 'I' for Inactive)
REMARK    1  A    between atoms: N_5  and  N_8
REMARK    2  A    between atoms: N_9  and  C_10
REMARK    3  A    between atoms: C_21  and  C_22
REMARK    4  A    between atoms: C_22  and  C_23
REMARK    5  A    between atoms: C_22  and  C_29
REMARK    6  A    between atoms: C_22  and  N_35
REMARK    7  A    between atoms: N_35  and  C_36
REMARK    8  A    between atoms: C_36  and  C_37
REMARK    9  A    between atoms: C_37  and  C_38
REMARK   10  A    between atoms: C_38  and  O_39
REMARK                            x       y       z     vdW  Elec       q    Type
REMARK                         _______ _______ _______ _____ _____    ______ ____
ROOT
ATOM      1  C   UNL     1      -2.013  -3.838  29.345  0.00  0.00    +0.000 A 
ATOM      2  C   UNL     1      -2.678  -4.871  29.908  0.00  0.00    +0.000 A 
ATOM      3  N   UNL     1      -3.816  -4.722  30.666  0.00  0.00    +0.000 NA
ATOM      4  C   UNL     1      -4.348  -3.497  30.898  0.00  0.00    +0.000 A 
ATOM      5  N   UNL     1      -3.707  -2.482  30.356  0.00  0.00    +0.000 N 
ATOM      6  C   UNL     1      -2.584  -2.575  29.601  0.00  0.00    +0.000 A 
ATOM      7  O   UNL     1      -2.080  -1.503  29.148  0.00  0.00    +0.000 OA
ATOM      8  N   UNL     1      -5.507  -3.473  31.707  0.00  0.00    +0.000 N 
ATOM      9  S   UNL     1      -1.802  -6.272  29.453  0.00  0.00    +0.000 S 
ATOM     10  C   UNL     1      -0.516  -5.429  28.482  0.00  0.00    +0.000 A 
ATOM     11  C   UNL     1      -0.898  -4.148  28.612  0.00  0.00    +0.000 A 
ATOM     12  C   UNL     1       0.133  -3.328  27.827  0.00  0.00    +0.000 C 
ATOM     13  C   UNL     1       0.840  -4.300  26.981  0.00  0.00    +0.000 C 
ATOM     14  C   UNL     1       0.682  -5.599  27.663  0.00  0.00    +0.000 C 
ATOM     15  H   UNL     1      -5.830  -4.402  32.178  0.00  0.00    +0.000 HD
ENDROOT
BRANCH   8  16
ATOM     16  C   UNL     1      -6.351  -2.402  32.016  0.00  0.00    +0.000 A 
ATOM     17  C   UNL     1      -6.009  -1.399  32.890  0.00  0.00    +0.000 A 
ATOM     18  C   UNL     1      -6.916  -0.362  33.150  0.00  0.00    +0.000 A 
ATOM     19  C   UNL     1      -8.161  -0.313  32.546  0.00  0.00    +0.000 A 
ATOM     20  C   UNL     1      -8.482  -1.318  31.680  0.00  0.00    +0.000 A 
ATOM     21  C   UNL     1      -7.604  -2.345  31.415  0.00  0.00    +0.000 A 
ENDBRANCH   8  16
BRANCH   5  22
ATOM     22  N   UNL     1      -4.199  -1.181  30.599  0.00  0.00    +0.000 N 
ATOM     23  H   UNL     1      -3.634  -0.365  30.283  0.00  0.00    +0.000 HD
ATOM     24  H   UNL     1      -5.093  -1.028  31.080  0.00  0.00    +0.000 HD
ENDBRANCH   5  22
BRANCH  14  25
ATOM     25  C   UNL     1       1.889  -6.107  28.400  0.00  0.00    +0.000 C 
BRANCH  25  26
ATOM     26  C   UNL     1       3.068  -5.379  27.715  0.00  0.00    +0.000 A 
ATOM     27  C   UNL     1       3.897  -4.607  28.477  0.00  0.00    +0.000 A 
ATOM     28  C   UNL     1       4.977  -3.922  27.913  0.00  0.00    +0.000 A 
ATOM     29  N   UNL     1       5.161  -4.059  26.596  0.00  0.00    +0.000 NA
ATOM     30  C   UNL     1       4.355  -4.817  25.808  0.00  0.00    +0.000 A 
ATOM     31  C   UNL     1       3.272  -5.507  26.362  0.00  0.00    +0.000 A 
ENDBRANCH  25  26
BRANCH  25  32
ATOM     32  C   UNL     1       2.180  -7.523  27.993  0.00  0.00    +0.000 A 
ATOM     33  C   UNL     1       1.120  -8.342  27.553  0.00  0.00    +0.000 A 
ATOM     34  C   UNL     1       1.300  -9.652  27.181  0.00  0.00    +0.000 A 
ATOM     35  C   UNL     1       2.555 -10.221  27.226  0.00  0.00    +0.000 A 
ATOM     36  C   UNL     1       3.609  -9.459  27.649  0.00  0.00    +0.000 A 
ATOM     37  C   UNL     1       3.397  -8.127  28.023  0.00  0.00    +0.000 A 
ENDBRANCH  25  32
BRANCH  25  38
ATOM     38  N   UNL     1       1.809  -5.817  29.757  0.00  0.00    +0.000 NA
ATOM     39  H   UNL     1       1.113  -5.017  29.909  0.00  0.00    +0.000 HD
BRANCH  38  40
ATOM     40  C   UNL     1       1.703  -6.794  30.748  0.00  0.00    +0.000 C 
BRANCH  40  41
ATOM     41  C   UNL     1       1.299  -6.404  32.128  0.00  0.00    +0.000 C 
BRANCH  41  42
ATOM     42  C   UNL     1       2.388  -5.569  32.809  0.00  0.00    +0.000 C 
BRANCH  42  43
ATOM     43  O   UNL     1       2.294  -4.235  32.427  0.00  0.00    +0.000 OA
ATOM     44  H   UNL     1       2.231  -4.138  31.424  0.00  0.00    +0.000 HD
ENDBRANCH  42  43
ENDBRANCH  41  42
ENDBRANCH  40  41
ENDBRANCH  38  40
ENDBRANCH  25  38
ENDBRANCH  14  25
TORSDOF 10
ENDMDL
