MODEL 1
REMARK VINA RESULT:    -8.737      0.000      0.000
REMARK INTER + INTRA:         -13.275
REMARK INTER:                 -12.313
REMARK INTRA:                  -0.962
REMARK UNBOUND:                -0.962
REMARK  Name = 
REMARK  8 active torsions:
REMARK  status: ('A' for Active; 'I' for Inactive)
REMARK    1  A    between atoms: C_2  and  C_25
REMARK    2  A    between atoms: N_5  and  C_6
REMARK    3  A    between atoms: C_6  and  C_7
REMARK    4  A    between atoms: C_7  and  N_8
REMARK    5  A    between atoms: C_9  and  C_11
REMARK    6  A    between atoms: C_11  and  O_12
REMARK    7  A    between atoms: C_11  and  C_20
REMARK    8  A    between atoms: O_12  and  C_13
REMARK                            x       y       z     vdW  Elec       q    Type
REMARK                         _______ _______ _______ _____ _____    ______ ____
ROOT
ATOM      1  C   UNL     1      -8.022   0.358  31.632  0.00  0.00    +0.000 C 
ENDROOT
BRANCH   1   6
ATOM      2  N   UNL     1      -9.577  -1.410  32.434  0.00  0.00    +0.000 NA
ATOM      3  C   UNL     1     -10.527  -2.234  31.963  0.00  0.00    +0.000 A 
ATOM      4  C   UNL     1     -10.627  -1.979  30.618  0.00  0.00    +0.000 A 
ATOM      5  C   UNL     1      -9.710  -0.989  30.334  0.00  0.00    +0.000 A 
ATOM      6  N   UNL     1      -9.076  -0.655  31.474  0.00  0.00    +0.000 N 
ATOM      7  N   UNL     1      -9.610  -0.557  29.073  0.00  0.00    +0.000 NA
ATOM      8  C   UNL     1     -10.412  -1.108  28.125  0.00  0.00    +0.000 A 
ATOM      9  C   UNL     1     -11.328  -2.099  28.414  0.00  0.00    +0.000 A 
ATOM     10  N   UNL     1     -11.430  -2.540  29.697  0.00  0.00    +0.000 NA
BRANCH   3  11
ATOM     11  C   UNL     1     -11.282  -3.200  32.766  0.00  0.00    +0.000 C 
ATOM     12  C   UNL     1     -12.749  -2.851  32.779  0.00  0.00    +0.000 C 
ATOM     13  N   UNL     1     -13.105  -2.500  34.118  0.00  0.00    +0.000 NA
ATOM     14  C   UNL     1     -11.846  -2.144  34.783  0.00  0.00    +0.000 C 
ATOM     15  C   UNL     1     -10.921  -3.186  34.231  0.00  0.00    +0.000 C 
ATOM     16  H   UNL     1     -13.532  -3.280  34.663  0.00  0.00    +0.000 HD
ENDBRANCH   3  11
ENDBRANCH   1   6
BRANCH   1  17
ATOM     17  C   UNL     1      -6.968  -0.270  32.510  0.00  0.00    +0.000 C 
BRANCH  17  18
ATOM     18  N   UNL     1      -6.289  -1.361  31.885  0.00  0.00    +0.000 N 
ATOM     19  C   UNL     1      -5.829  -2.450  32.647  0.00  0.00    +0.000 C 
ATOM     20  O   UNL     1      -5.968  -2.555  33.891  0.00  0.00    +0.000 OA
ATOM     21  H   UNL     1      -6.133  -1.355  30.862  0.00  0.00    +0.000 HD
BRANCH  19  22
ATOM     22  C   UNL     1      -5.121  -3.567  31.922  0.00  0.00    +0.000 C 
ATOM     23  C   UNL     1      -4.289  -2.924  30.792  0.00  0.00    +0.000 C 
BRANCH  22  24
ATOM     24  O   UNL     1      -4.250  -4.247  32.735  0.00  0.00    +0.000 OA
BRANCH  24  25
ATOM     25  C   UNL     1      -3.881  -5.559  32.585  0.00  0.00    +0.000 A 
ATOM     26  C   UNL     1      -3.281  -6.229  33.668  0.00  0.00    +0.000 A 
ATOM     27  C   UNL     1      -2.874  -7.524  33.642  0.00  0.00    +0.000 A 
ATOM     28  C   UNL     1      -3.046  -8.265  32.489  0.00  0.00    +0.000 A 
ATOM     29  F   UNL     1      -2.642  -9.562  32.450  0.00  0.00    +0.000 F 
ATOM     30  C   UNL     1      -3.627  -7.656  31.405  0.00  0.00    +0.000 A 
ATOM     31  C   UNL     1      -4.039  -6.322  31.453  0.00  0.00    +0.000 A 
ENDBRANCH  24  25
ENDBRANCH  22  24
ENDBRANCH  19  22
ENDBRANCH  17  18
ENDBRANCH   1  17
TORSDOF 7
ENDMDL
