MODEL 1
REMARK VINA RESULT:    -7.782      0.000      0.000
REMARK INTER + INTRA:         -11.884
REMARK INTER:                 -10.967
REMARK INTRA:                  -0.917
REMARK UNBOUND:                -0.917
REMARK  Name = 
REMARK  9 active torsions:
REMARK  status: ('A' for Active; 'I' for Inactive)
REMARK    1  A    between atoms: C_1  and  C_9
REMARK    2  A    between atoms: C_3  and  C_8
REMARK    3  A    between atoms: C_5  and  O_7
REMARK    4  A    between atoms: N_11  and  C_12
REMARK    5  A    between atoms: C_12  and  C_13
REMARK    6  A    between atoms: C_14  and  O_15
REMARK    7  A    between atoms: O_15  and  C_16
REMARK    8  A    between atoms: C_16  and  C_17
REMARK    9  A    between atoms: C_17  and  O_19
REMARK                            x       y       z     vdW  Elec       q    Type
REMARK                         _______ _______ _______ _____ _____    ______ ____
ROOT
ATOM      1  C   UNL     1      -8.642  -1.469  32.522  0.00  0.00    +0.000 C 
ATOM      2  C   UNL     1      -7.682  -2.339  31.781  0.00  0.00    +0.000 C 
ATOM      3  N   UNL     1      -6.388  -2.170  32.468  0.00  0.00    +0.000 NA
ATOM      4  C   UNL     1      -6.263  -0.775  32.868  0.00  0.00    +0.000 C 
ATOM      5  C   UNL     1      -7.141   0.130  32.047  0.00  0.00    +0.000 C 
ATOM      6  O   UNL     1      -8.483  -0.166  32.073  0.00  0.00    +0.000 OA
ENDROOT
BRANCH   1   7
ATOM      7  C   UNL     1     -10.057  -1.833  32.315  0.00  0.00    +0.000 A 
ATOM      8  N   UNL     1     -10.670  -1.839  31.119  0.00  0.00    +0.000 NA
ATOM      9  C   UNL     1     -11.968  -2.183  30.991  0.00  0.00    +0.000 A 
ATOM     10  N   UNL     1     -12.685  -2.533  32.071  0.00  0.00    +0.000 NA
ATOM     11  C   UNL     1     -12.147  -2.556  33.303  0.00  0.00    +0.000 A 
ATOM     12  C   UNL     1     -10.803  -2.196  33.416  0.00  0.00    +0.000 A 
ATOM     13  C   UNL     1     -12.660  -2.192  29.675  0.00  0.00    +0.000 C 
BRANCH  11  14
ATOM     14  O   UNL     1     -12.898  -2.919  34.410  0.00  0.00    +0.000 OA
ATOM     15  H   UNL     1     -12.529  -2.975  35.347  0.00  0.00    +0.000 HD
ENDBRANCH  11  14
ENDBRANCH   1   7
BRANCH   3  16
ATOM     16  C   UNL     1      -5.308  -2.560  31.588  0.00  0.00    +0.000 C 
BRANCH  16  17
ATOM     17  C   UNL     1      -4.738  -3.840  32.020  0.00  0.00    +0.000 A 
ATOM     18  C   UNL     1      -4.096  -4.607  31.039  0.00  0.00    +0.000 A 
ATOM     19  C   UNL     1      -3.540  -5.838  31.316  0.00  0.00    +0.000 A 
ATOM     20  C   UNL     1      -3.624  -6.319  32.604  0.00  0.00    +0.000 A 
ATOM     21  C   UNL     1      -4.239  -5.614  33.604  0.00  0.00    +0.000 A 
ATOM     22  C   UNL     1      -4.786  -4.380  33.282  0.00  0.00    +0.000 A 
BRANCH  18  23
ATOM     23  O   UNL     1      -4.028  -4.097  29.757  0.00  0.00    +0.000 OA
BRANCH  23  24
ATOM     24  C   UNL     1      -2.848  -3.848  29.049  0.00  0.00    +0.000 C 
BRANCH  24  25
ATOM     25  C   UNL     1      -2.095  -2.663  29.511  0.00  0.00    +0.000 C 
ATOM     26  O   UNL     1      -0.920  -2.851  29.918  0.00  0.00    +0.000 OA
BRANCH  25  27
ATOM     27  O   UNL     1      -2.584  -1.371  29.534  0.00  0.00    +0.000 OA
ATOM     28  H   UNL     1      -3.587  -1.205  29.417  0.00  0.00    +0.000 HD
ENDBRANCH  25  27
ENDBRANCH  24  25
ENDBRANCH  23  24
ENDBRANCH  18  23
ENDBRANCH  16  17
ENDBRANCH   3  16
TORSDOF 8
ENDMDL
