MODEL 1
REMARK VINA RESULT:    -7.610      0.000      0.000
REMARK INTER + INTRA:          -8.476
REMARK INTER:                  -8.500
REMARK INTRA:                   0.024
REMARK UNBOUND:                 0.024
REMARK  Name = 
REMARK  5 active torsions:
REMARK  status: ('A' for Active; 'I' for Inactive)
REMARK    1  A    between atoms: C_2  and  C_3
REMARK    2  A    between atoms: C_11  and  C_14
REMARK    3  A    between atoms: C_12  and  C_13
REMARK    4  A    between atoms: C_18  and  C_21
REMARK    5  A    between atoms: C_19  and  C_20
REMARK                            x       y       z     vdW  Elec       q    Type
REMARK                         _______ _______ _______ _____ _____    ______ ____
ROOT
ATOM      1  C   UNL     1      -2.495  -4.726  30.167  0.00  0.00    +0.000 C 
ATOM      2  C   UNL     1      -2.192  -3.605  29.684  0.00  0.00    +0.000 C 
ATOM      3  C   UNL     1      -1.831  -5.969  29.768  0.00  0.00    +0.000 A 
ATOM      4  C   UNL     1      -2.313  -6.960  30.566  0.00  0.00    +0.000 A 
ATOM      5  C   UNL     1      -3.296  -6.400  31.510  0.00  0.00    +0.000 C 
ATOM      6  C   UNL     1      -3.412  -5.067  31.281  0.00  0.00    +0.000 C 
ATOM      7  C   UNL     1      -4.274  -4.103  32.005  0.00  0.00    +0.000 C 
ATOM      8  N   UNL     1      -2.027  -8.308  30.428  0.00  0.00    +0.000 NA
ATOM      9  C   UNL     1      -1.132  -8.684  29.296  0.00  0.00    +0.000 A 
ATOM     10  C   UNL     1      -0.860  -7.554  28.726  0.00  0.00    +0.000 A 
ATOM     11  C   UNL     1      -0.967  -6.315  28.674  0.00  0.00    +0.000 A 
ATOM     12  C   UNL     1      -0.320  -5.377  27.785  0.00  0.00    +0.000 C 
ATOM     13  N   UNL     1      -0.849 -10.006  29.141  0.00  0.00    +0.000 N 
ATOM     14  H   UNL     1       0.138 -10.336  28.939  0.00  0.00    +0.000 HD
ATOM     15  H   UNL     1      -1.595 -10.761  29.227  0.00  0.00    +0.000 HD
ENDROOT
BRANCH   2  16
ATOM     16  C   UNL     1      -1.340  -2.983  28.777  0.00  0.00    +0.000 A 
ATOM     17  S   UNL     1       0.366  -2.426  29.142  0.00  0.00    +0.000 S 
ATOM     18  C   UNL     1       0.569  -1.459  27.528  0.00  0.00    +0.000 A 
ATOM     19  C   UNL     1      -0.617  -1.669  26.956  0.00  0.00    +0.000 A 
ATOM     20  C   UNL     1      -1.568  -2.396  27.521  0.00  0.00    +0.000 A 
ATOM     21 CL   UNL     1       1.982  -0.603  27.108  0.00  0.00    +0.000 Cl
ENDBRANCH   2  16
BRANCH   5  22
ATOM     22  C   UNL     1      -4.100  -7.093  32.376  0.00  0.00    +0.000 C 
ATOM     23  N   UNL     1      -4.822  -7.714  33.181  0.00  0.00    +0.000 NA
ENDBRANCH   5  22
BRANCH  10  24
ATOM     24  C   UNL     1      -0.137  -7.990  27.197  0.00  0.00    +0.000 C 
ATOM     25  N   UNL     1       0.294  -8.261  26.289  0.00  0.00    +0.000 NA
ENDBRANCH  10  24
TORSDOF 3
ENDMDL
