MODEL 1
REMARK VINA RESULT:    -7.892      0.000      0.000
REMARK INTER + INTRA:          -8.658
REMARK INTER:                  -8.353
REMARK INTRA:                  -0.304
REMARK UNBOUND:                -0.304
REMARK  Name = 
REMARK  1 active torsions:
REMARK  status: ('A' for Active; 'I' for Inactive)
REMARK    1  A    between atoms: N_14  and  C_15
REMARK                            x       y       z     vdW  Elec       q    Type
REMARK                         _______ _______ _______ _____ _____    ______ ____
ROOT
ATOM      1  C   UNL     1      -1.700  -4.189  30.271  0.00  0.00    +0.000 A 
ATOM      2  C   UNL     1      -1.684  -3.125  29.395  0.00  0.00    +0.000 A 
ATOM      3  C   UNL     1      -0.456  -2.571  28.843  0.00  0.00    +0.000 C 
ATOM      4  N   UNL     1      -0.445  -1.580  28.027  0.00  0.00    +0.000 NA
ATOM      5  C   UNL     1       0.743  -1.005  27.462  0.00  0.00    +0.000 C 
ATOM      6  C   UNL     1       1.804  -2.040  27.336  0.00  0.00    +0.000 C 
ATOM      7  C   UNL     1       2.048  -2.657  28.699  0.00  0.00    +0.000 C 
ATOM      8  N   UNL     1       0.786  -3.165  29.231  0.00  0.00    +0.000 N 
ATOM      9  C   UNL     1       0.758  -4.257  30.130  0.00  0.00    +0.000 C 
ATOM     10  O   UNL     1       1.830  -4.809  30.499  0.00  0.00    +0.000 OA
ATOM     11  N   UNL     1      -0.470  -4.781  30.658  0.00  0.00    +0.000 N 
ATOM     12  C   UNL     1      -3.015  -2.775  29.215  0.00  0.00    +0.000 A 
ATOM     13  N   UNL     1      -3.725  -3.612  29.957  0.00  0.00    +0.000 NA
ATOM     14  N   UNL     1      -2.964  -4.483  30.613  0.00  0.00    +0.000 N 
ATOM     15  H   UNL     1      -0.419  -5.601  31.328  0.00  0.00    +0.000 HD
ENDROOT
BRANCH  14  16
ATOM     16  C   UNL     1      -3.437  -5.512  31.496  0.00  0.00    +0.000 A 
ATOM     17  C   UNL     1      -3.929  -5.191  32.745  0.00  0.00    +0.000 A 
ATOM     18 CL   UNL     1      -3.944  -3.490  33.180  0.00  0.00    +0.000 Cl
ATOM     19  C   UNL     1      -4.394  -6.128  33.628  0.00  0.00    +0.000 A 
ATOM     20  C   UNL     1      -4.363  -7.467  33.239  0.00  0.00    +0.000 A 
ATOM     21  C   UNL     1      -3.880  -7.840  32.001  0.00  0.00    +0.000 A 
ATOM     22  C   UNL     1      -3.423  -6.847  31.145  0.00  0.00    +0.000 A 
ENDBRANCH  14  16
TORSDOF 1
ENDMDL
