MODEL 1
REMARK VINA RESULT:    -9.055      0.000      0.000
REMARK INTER + INTRA:         -11.380
REMARK INTER:                 -10.378
REMARK INTRA:                  -1.002
REMARK UNBOUND:                -1.002
REMARK  Name = 
REMARK  5 active torsions:
REMARK  status: ('A' for Active; 'I' for Inactive)
REMARK    1  A    between atoms: C_1  and  C_16
REMARK    2  A    between atoms: C_2  and  N_15
REMARK    3  A    between atoms: N_3  and  C_4
REMARK    4  A    between atoms: C_6  and  C_11
REMARK    5  A    between atoms: C_8  and  C_10
REMARK                            x       y       z     vdW  Elec       q    Type
REMARK                         _______ _______ _______ _____ _____    ______ ____
ROOT
ATOM      1  C   UNL     1      -3.747  -4.973  31.790  0.00  0.00    +0.000 C 
ATOM      2  C   UNL     1      -4.458  -3.986  31.260  0.00  0.00    +0.000 C 
ATOM      3  N   UNL     1      -5.195  -3.271  32.211  0.00  0.00    +0.000 N 
ATOM      4  C   UNL     1      -4.748  -3.738  33.530  0.00  0.00    +0.000 C 
ATOM      5  C   UNL     1      -4.009  -4.953  33.212  0.00  0.00    +0.000 C 
ATOM      6  O   UNL     1      -3.648  -5.844  34.017  0.00  0.00    +0.000 OA
ENDROOT
BRANCH   1   7
ATOM      7  C   UNL     1      -2.857  -5.931  31.095  0.00  0.00    +0.000 A 
ATOM      8  N   UNL     1      -2.666  -7.176  31.550  0.00  0.00    +0.000 N 
ATOM      9  C   UNL     1      -1.841  -8.039  30.884  0.00  0.00    +0.000 A 
ATOM     10  O   UNL     1      -1.667  -9.199  31.314  0.00  0.00    +0.000 OA
ATOM     11  C   UNL     1      -1.183  -7.665  29.731  0.00  0.00    +0.000 A 
ATOM     12  C   UNL     1      -1.396  -6.379  29.281  0.00  0.00    +0.000 A 
ATOM     13  N   UNL     1      -2.217  -5.568  29.974  0.00  0.00    +0.000 NA
ATOM     14  C   UNL     1      -0.746  -5.985  28.129  0.00  0.00    +0.000 A 
ATOM     15  C   UNL     1       0.095  -6.823  27.424  0.00  0.00    +0.000 A 
ATOM     16  C   UNL     1       0.304  -8.108  27.879  0.00  0.00    +0.000 A 
ATOM     17  C   UNL     1      -0.345  -8.518  29.040  0.00  0.00    +0.000 A 
ATOM     18  H   UNL     1      -3.133  -7.510  32.416  0.00  0.00    +0.000 HD
ENDBRANCH   1   7
BRANCH   3  19
ATOM     19  C   UNL     1      -6.193  -2.263  32.087  0.00  0.00    +0.000 A 
ATOM     20  C   UNL     1      -7.554  -2.561  32.218  0.00  0.00    +0.000 A 
ATOM     21  C   UNL     1      -8.544  -1.620  32.110  0.00  0.00    +0.000 A 
ATOM     22  C   UNL     1      -8.215  -0.312  31.860  0.00  0.00    +0.000 A 
ATOM     23  C   UNL     1      -6.899   0.030  31.723  0.00  0.00    +0.000 A 
ATOM     24  C   UNL     1      -5.897  -0.947  31.837  0.00  0.00    +0.000 A 
ATOM     25  C   UNL     1      -6.547   1.437  31.454  0.00  0.00    +0.000 C 
ATOM     26  C   UNL     1      -9.979  -1.972  32.254  0.00  0.00    +0.000 C 
ENDBRANCH   3  19
BRANCH   2  27
ATOM     27  N   UNL     1      -4.465  -3.690  29.851  0.00  0.00    +0.000 N 
ATOM     28  H   UNL     1      -5.379  -3.648  29.357  0.00  0.00    +0.000 HD
ATOM     29  H   UNL     1      -3.603  -3.515  29.312  0.00  0.00    +0.000 HD
ENDBRANCH   2  27
TORSDOF 3
ENDMDL
