MODEL 1
REMARK VINA RESULT:    -7.049      0.000      0.000
REMARK INTER + INTRA:         -10.399
REMARK INTER:                  -9.316
REMARK INTRA:                  -1.084
REMARK UNBOUND:                -1.084
REMARK  Name = 
REMARK  8 active torsions:
REMARK  status: ('A' for Active; 'I' for Inactive)
REMARK    1  A    between atoms: C_1  and  C_24
REMARK    2  A    between atoms: C_2  and  N_23
REMARK    3  A    between atoms: C_4  and  C_17
REMARK    4  A    between atoms: C_5  and  C_15
REMARK    5  A    between atoms: C_6  and  C_7
REMARK    6  A    between atoms: C_10  and  O_13
REMARK    7  A    between atoms: O_13  and  C_14
REMARK    8  A    between atoms: C_15  and  C_16
REMARK                            x       y       z     vdW  Elec       q    Type
REMARK                         _______ _______ _______ _____ _____    ______ ____
ROOT
ATOM      1  C   UNL     1       0.451  -8.264  28.109  0.00  0.00    +0.000 A 
ATOM      2  C   UNL     1      -0.355  -9.308  28.489  0.00  0.00    +0.000 A 
ATOM      3  N   UNL     1      -1.180  -9.162  29.507  0.00  0.00    +0.000 NA
ATOM      4  C   UNL     1      -1.262  -7.999  30.203  0.00  0.00    +0.000 A 
ATOM      5  C   UNL     1      -0.486  -6.909  29.881  0.00  0.00    +0.000 A 
ATOM      6  C   UNL     1       0.379  -7.070  28.810  0.00  0.00    +0.000 A 
ENDROOT
BRANCH   6   7
ATOM      7  C   UNL     1       1.228  -5.957  28.421  0.00  0.00    +0.000 A 
ATOM      8  C   UNL     1       0.920  -5.082  27.404  0.00  0.00    +0.000 A 
ATOM      9  C   UNL     1       1.762  -4.034  27.069  0.00  0.00    +0.000 A 
ATOM     10  C   UNL     1       2.937  -3.843  27.752  0.00  0.00    +0.000 A 
ATOM     11  C   UNL     1       3.263  -4.699  28.765  0.00  0.00    +0.000 A 
ATOM     12  C   UNL     1       2.409  -5.758  29.101  0.00  0.00    +0.000 A 
BRANCH  10  13
ATOM     13  O   UNL     1       3.806  -2.806  27.449  0.00  0.00    +0.000 OA
ATOM     14  C   UNL     1       3.423  -1.767  26.582  0.00  0.00    +0.000 C 
ENDBRANCH  10  13
ENDBRANCH   6   7
BRANCH   4  15
ATOM     15  C   UNL     1      -2.229  -7.965  31.271  0.00  0.00    +0.000 A 
ATOM     16  C   UNL     1      -1.912  -8.331  32.540  0.00  0.00    +0.000 A 
ATOM     17  C   UNL     1      -2.870  -8.255  33.572  0.00  0.00    +0.000 A 
ATOM     18  C   UNL     1      -4.144  -7.804  33.297  0.00  0.00    +0.000 A 
ATOM     19  C   UNL     1      -4.443  -7.435  31.981  0.00  0.00    +0.000 A 
ATOM     20  C   UNL     1      -3.498  -7.518  30.999  0.00  0.00    +0.000 A 
ENDBRANCH   4  15
BRANCH   2  21
ATOM     21  N   UNL     1      -0.268 -10.531  27.755  0.00  0.00    +0.000 N 
ATOM     22  H   UNL     1      -0.873 -11.337  27.949  0.00  0.00    +0.000 HD
ATOM     23  H   UNL     1       0.436 -10.591  27.003  0.00  0.00    +0.000 HD
ENDBRANCH   2  21
BRANCH   5  24
ATOM     24  C   UNL     1      -0.546  -5.610  30.541  0.00  0.00    +0.000 C 
ATOM     25  C   UNL     1      -1.607  -4.698  29.975  0.00  0.00    +0.000 C 
ENDBRANCH   5  24
BRANCH   1  26
ATOM     26  C   UNL     1       1.347  -8.406  27.008  0.00  0.00    +0.000 C 
ATOM     27  N   UNL     1       2.062  -8.537  26.113  0.00  0.00    +0.000 NA
ENDBRANCH   1  26
TORSDOF 6
ENDMDL
