MODEL 1
REMARK VINA RESULT:    -7.202      0.000      0.000
REMARK INTER + INTRA:         -10.750
REMARK INTER:                  -9.097
REMARK INTRA:                  -1.653
REMARK UNBOUND:                -1.653
REMARK  Name = 
REMARK  6 active torsions:
REMARK  status: ('A' for Active; 'I' for Inactive)
REMARK    1  A    between atoms: C_3  and  C_10
REMARK    2  A    between atoms: C_4  and  C_8
REMARK    3  A    between atoms: C_5  and  N_7
REMARK    4  A    between atoms: C_17  and  C_20
REMARK    5  A    between atoms: C_20  and  C_21
REMARK    6  A    between atoms: C_21  and  C_22
REMARK                            x       y       z     vdW  Elec       q    Type
REMARK                         _______ _______ _______ _____ _____    ______ ____
ROOT
ATOM      1  C   UNL     1      -1.596  -3.578  29.280  0.00  0.00    +0.000 A 
ATOM      2  C   UNL     1      -2.257  -4.633  29.821  0.00  0.00    +0.000 A 
ATOM      3  C   UNL     1      -1.959  -5.998  29.404  0.00  0.00    +0.000 C 
ATOM      4  C   UNL     1      -0.921  -6.090  28.387  0.00  0.00    +0.000 C 
ATOM      5  C   UNL     1      -0.314  -5.056  27.895  0.00  0.00    +0.000 C 
ATOM      6  O   UNL     1      -0.607  -3.758  28.303  0.00  0.00    +0.000 OA
ATOM      7  C   UNL     1      -3.180  -4.121  30.767  0.00  0.00    +0.000 A 
ATOM      8  N   UNL     1      -3.018  -2.794  30.736  0.00  0.00    +0.000 N 
ATOM      9  N   UNL     1      -2.091  -2.455  29.868  0.00  0.00    +0.000 NA
ATOM     10  H   UNL     1      -3.585  -2.134  31.349  0.00  0.00    +0.000 HD
ENDROOT
BRANCH   3  11
ATOM     11  C   UNL     1      -1.801  -6.952  30.509  0.00  0.00    +0.000 A 
ATOM     12  C   UNL     1      -0.776  -6.835  31.412  0.00  0.00    +0.000 A 
ATOM     13  C   UNL     1      -0.591  -7.718  32.447  0.00  0.00    +0.000 A 
ATOM     14 CL   UNL     1       0.714  -7.571  33.603  0.00  0.00    +0.000 Cl
ATOM     15  C   UNL     1      -1.506  -8.770  32.554  0.00  0.00    +0.000 A 
ATOM     16  C   UNL     1      -2.540  -8.926  31.679  0.00  0.00    +0.000 A 
ATOM     17  C   UNL     1      -2.679  -8.004  30.650  0.00  0.00    +0.000 A 
ENDBRANCH   3  11
BRANCH   5  18
ATOM     18  N   UNL     1       0.700  -5.284  26.887  0.00  0.00    +0.000 N 
ATOM     19  H   UNL     1       0.537  -4.896  25.931  0.00  0.00    +0.000 HD
ATOM     20  H   UNL     1       1.556  -5.807  27.089  0.00  0.00    +0.000 HD
ENDBRANCH   5  18
BRANCH   4  21
ATOM     21  C   UNL     1      -0.528  -7.409  27.878  0.00  0.00    +0.000 C 
ATOM     22  N   UNL     1      -0.199  -8.454  27.463  0.00  0.00    +0.000 NA
ENDBRANCH   4  21
BRANCH   7  23
ATOM     23  C   UNL     1      -4.104  -4.939  31.585  0.00  0.00    +0.000 C 
BRANCH  23  24
ATOM     24  C   UNL     1      -3.746  -4.921  33.061  0.00  0.00    +0.000 C 
ATOM     25  C   UNL     1      -4.194  -6.266  33.619  0.00  0.00    +0.000 C 
ENDBRANCH  23  24
ENDBRANCH   7  23
TORSDOF 5
ENDMDL
