MODEL 1
REMARK VINA RESULT:    -8.740      0.000      0.000
REMARK INTER + INTRA:         -12.369
REMARK INTER:                 -11.806
REMARK INTRA:                  -0.563
REMARK UNBOUND:                -0.563
REMARK  Name = 
REMARK  7 active torsions:
REMARK  status: ('A' for Active; 'I' for Inactive)
REMARK    1  A    between atoms: N_1  and  C_13
REMARK    2  A    between atoms: C_3  and  C_11
REMARK    3  A    between atoms: C_13  and  C_14
REMARK    4  A    between atoms: N_16  and  N_17
REMARK    5  A    between atoms: N_20  and  C_36
REMARK    6  A    between atoms: C_21  and  C_24
REMARK    7  A    between atoms: C_21  and  C_30
REMARK                            x       y       z     vdW  Elec       q    Type
REMARK                         _______ _______ _______ _____ _____    ______ ____
ROOT
ATOM      1  N   UNL     1       0.388  -4.524  30.574  0.00  0.00    +0.000 N 
ATOM      2  C   UNL     1       1.094  -5.462  31.388  0.00  0.00    +0.000 C 
ATOM      3  S   UNL     1       2.611  -5.145  31.990  0.00  0.00    +0.000 S 
ATOM      4  N   UNL     1       0.321  -6.604  31.580  0.00  0.00    +0.000 N 
ATOM      5  C   UNL     1      -0.837  -6.536  30.716  0.00  0.00    +0.000 C 
ATOM      6  C   UNL     1      -0.856  -5.127  30.271  0.00  0.00    +0.000 C 
ATOM      7  O   UNL     1      -1.838  -4.536  29.699  0.00  0.00    +0.000 OA
ATOM      8  C   UNL     1       0.673  -7.691  32.513  0.00  0.00    +0.000 C 
ENDROOT
BRANCH   5   9
ATOM      9  C   UNL     1      -0.694  -7.485  29.569  0.00  0.00    +0.000 A 
ATOM     10  C   UNL     1      -0.725  -8.835  29.789  0.00  0.00    +0.000 A 
ATOM     11  C   UNL     1      -0.568  -9.713  28.741  0.00  0.00    +0.000 A 
ATOM     12  C   UNL     1      -0.375  -9.260  27.443  0.00  0.00    +0.000 A 
ATOM     13  C   UNL     1      -0.348  -7.897  27.254  0.00  0.00    +0.000 A 
ATOM     14  C   UNL     1      -0.506  -7.008  28.305  0.00  0.00    +0.000 A 
ENDBRANCH   5   9
BRANCH   5  15
ATOM     15  C   UNL     1      -2.080  -6.817  31.465  0.00  0.00    +0.000 A 
ATOM     16  C   UNL     1      -2.241  -6.362  32.743  0.00  0.00    +0.000 A 
ATOM     17  C   UNL     1      -3.424  -6.655  33.421  0.00  0.00    +0.000 A 
ATOM     18  C   UNL     1      -4.428  -7.397  32.820  0.00  0.00    +0.000 A 
ATOM     19  C   UNL     1      -4.208  -7.837  31.513  0.00  0.00    +0.000 A 
ATOM     20  C   UNL     1      -3.052  -7.556  30.837  0.00  0.00    +0.000 A 
ENDBRANCH   5  15
BRANCH   1  23
ATOM     21  C   UNL     1       1.495  -3.082  28.878  0.00  0.00    +0.000 C 
ATOM     22  O   UNL     1       1.575  -4.101  28.137  0.00  0.00    +0.000 OA
ATOM     23  N   UNL     1       0.888  -3.257  30.162  0.00  0.00    +0.000 N 
ATOM     24  H   UNL     1       0.830  -2.435  30.786  0.00  0.00    +0.000 HD
BRANCH  21  25
ATOM     25  C   UNL     1       2.012  -1.774  28.429  0.00  0.00    +0.000 C 
BRANCH  25  26
ATOM     26  N   UNL     1       2.836  -1.836  27.249  0.00  0.00    +0.000 N 
ATOM     27  C   UNL     1       4.165  -2.080  27.343  0.00  0.00    +0.000 A 
ATOM     28  C   UNL     1       4.685  -2.019  26.081  0.00  0.00    +0.000 A 
ATOM     29  C   UNL     1       3.639  -1.734  25.226  0.00  0.00    +0.000 A 
ATOM     30  C   UNL     1       2.511  -1.627  25.969  0.00  0.00    +0.000 A 
ATOM     31  C   UNL     1       1.282  -1.357  25.357  0.00  0.00    +0.000 A 
ATOM     32  C   UNL     1       1.261  -1.205  23.989  0.00  0.00    +0.000 A 
ATOM     33  C   UNL     1       2.421  -1.315  23.245  0.00  0.00    +0.000 A 
ATOM     34  C   UNL     1       3.620  -1.578  23.837  0.00  0.00    +0.000 A 
ATOM     35 BR   UNL     1       2.333  -1.102  21.358  0.00  0.00    +0.000 Br
BRANCH  28  36
ATOM     36  C   UNL     1       6.087  -2.207  25.748  0.00  0.00    +0.000 C 
ATOM     37  O   UNL     1       6.848  -1.213  25.693  0.00  0.00    +0.000 OA
ENDBRANCH  28  36
ENDBRANCH  25  26
ENDBRANCH  21  25
ENDBRANCH   1  23
TORSDOF 6
ENDMDL
