MODEL 1
REMARK VINA RESULT:    -8.522      0.000      0.000
REMARK INTER + INTRA:          -8.194
REMARK INTER:                  -9.768
REMARK INTRA:                   1.574
REMARK UNBOUND:                 1.574
REMARK  Name = 
REMARK  5 active torsions:
REMARK  status: ('A' for Active; 'I' for Inactive)
REMARK    1  A    between atoms: C_7  and  C_9
REMARK    2  A    between atoms: C_15  and  C_16
REMARK    3  A    between atoms: C_21  and  C_37
REMARK    4  A    between atoms: C_23  and  C_25
REMARK    5  A    between atoms: C_37  and  O_39
REMARK                            x       y       z     vdW  Elec       q    Type
REMARK                         _______ _______ _______ _____ _____    ______ ____
ROOT
ATOM      1  C   UNL     1       0.023  -2.503  28.317  0.00  0.00    +0.000 C 
ATOM      2  C   UNL     1      -1.150  -1.743  27.855  0.00  0.00    +0.000 C 
ATOM      3  C   UNL     1      -1.441  -1.830  26.388  0.00  0.00    +0.000 C 
ATOM      4  N   UNL     1      -0.273  -1.694  25.565  0.00  0.00    +0.000 NA
ATOM      5  C   UNL     1       0.779  -2.632  25.875  0.00  0.00    +0.000 C 
ATOM      6  C   UNL     1       1.171  -2.624  27.348  0.00  0.00    +0.000 C 
ATOM      7  N   UNL     1       2.035  -3.716  27.596  0.00  0.00    +0.000 N 
ATOM      8  C   UNL     1       1.739  -5.033  27.220  0.00  0.00    +0.000 C 
ATOM      9  O   UNL     1       2.642  -5.924  27.531  0.00  0.00    +0.000 OA
ATOM     10  C   UNL     1       0.604  -5.644  26.536  0.00  0.00    +0.000 C 
ATOM     11  C   UNL     1       3.336  -3.606  28.273  0.00  0.00    +0.000 C 
ATOM     12  C   UNL     1       4.456  -3.987  27.347  0.00  0.00    +0.000 C 
ATOM     13  N   UNL     1       5.337  -2.938  26.964  0.00  0.00    +0.000 N 
ATOM     14  C   UNL     1       6.257  -1.782  26.914  0.00  0.00    +0.000 C 
ATOM     15  C   UNL     1       5.815  -2.585  25.711  0.00  0.00    +0.000 C 
ATOM     16  C   UNL     1       5.602  -3.079  24.519  0.00  0.00    +0.000 C 
ATOM     17  C   UNL     1       4.803  -4.147  24.032  0.00  0.00    +0.000 C 
ATOM     18  C   UNL     1       3.619  -4.190  23.442  0.00  0.00    +0.000 C 
ATOM     19  C   UNL     1       2.692  -3.168  23.060  0.00  0.00    +0.000 C 
ATOM     20  C   UNL     1       2.028  -2.264  23.732  0.00  0.00    +0.000 C 
ATOM     21  F   UNL     1       3.177  -5.494  23.118  0.00  0.00    +0.000 F 
ATOM     22  C   UNL     1       2.027  -2.004  25.178  0.00  0.00    +0.000 C 
ATOM     23  H   UNL     1      -0.559  -1.898  24.583  0.00  0.00    +0.000 HD
ENDROOT
BRANCH   1  38
ATOM     24  N   UNL     1       0.497  -4.302  29.966  0.00  0.00    +0.000 NA
ATOM     25  C   UNL     1       0.191  -5.372  30.727  0.00  0.00    +0.000 A 
ATOM     26  N   UNL     1       1.132  -5.947  31.633  0.00  0.00    +0.000 N 
ATOM     27  C   UNL     1       0.885  -7.069  32.466  0.00  0.00    +0.000 C 
ATOM     28  C   UNL     1       1.089  -6.655  33.922  0.00  0.00    +0.000 C 
ATOM     29  N   UNL     1       2.264  -5.791  34.004  0.00  0.00    +0.000 N 
ATOM     30  C   UNL     1       2.510  -5.038  35.169  0.00  0.00    +0.000 C 
ATOM     31  O   UNL     1       1.693  -5.133  36.120  0.00  0.00    +0.000 OA
ATOM     32  C   UNL     1       3.708  -4.143  35.296  0.00  0.00    +0.000 C 
ATOM     33  C   UNL     1       3.183  -5.710  32.879  0.00  0.00    +0.000 C 
ATOM     34  C   UNL     1       2.427  -5.293  31.668  0.00  0.00    +0.000 C 
ATOM     35  C   UNL     1      -1.069  -5.888  30.601  0.00  0.00    +0.000 A 
ATOM     36  N   UNL     1      -1.949  -5.317  29.733  0.00  0.00    +0.000 NA
ATOM     37  C   UNL     1      -1.584  -4.251  29.002  0.00  0.00    +0.000 A 
ATOM     38  C   UNL     1      -0.338  -3.703  29.093  0.00  0.00    +0.000 A 
ENDBRANCH   1  38
BRANCH   6  39
ATOM     39  C   UNL     1       1.825  -1.256  27.447  0.00  0.00    +0.000 C 
ATOM     40  O   UNL     1       2.145  -0.909  28.611  0.00  0.00    +0.000 OA
BRANCH  39  41
ATOM     41  O   UNL     1       2.102  -0.376  26.471  0.00  0.00    +0.000 OA
ATOM     42  H   UNL     1       2.435   0.561  26.631  0.00  0.00    +0.000 HD
ENDBRANCH  39  41
ENDBRANCH   6  39
TORSDOF 3
ENDMDL
