MODEL 1
REMARK VINA RESULT:    -9.045      0.000      0.000
REMARK INTER + INTRA:         -12.925
REMARK INTER:                 -11.954
REMARK INTRA:                  -0.971
REMARK UNBOUND:                -0.971
REMARK  Name = 
REMARK  8 active torsions:
REMARK  status: ('A' for Active; 'I' for Inactive)
REMARK    1  A    between atoms: C_5  and  C_7
REMARK    2  A    between atoms: C_16  and  N_17
REMARK    3  A    between atoms: C_20  and  C_24
REMARK    4  A    between atoms: C_25  and  C_27
REMARK    5  A    between atoms: C_27  and  C_28
REMARK    6  A    between atoms: C_28  and  C_29
REMARK    7  A    between atoms: C_29  and  C_30
REMARK    8  A    between atoms: C_30  and  O_32
REMARK                            x       y       z     vdW  Elec       q    Type
REMARK                         _______ _______ _______ _____ _____    ______ ____
ROOT
ATOM      1  N   UNL     1      -0.373  -6.862  31.686  0.00  0.00    +0.000 N 
ATOM      2  C   UNL     1      -1.725  -6.686  32.027  0.00  0.00    +0.000 A 
ATOM      3  N   UNL     1      -2.443  -5.618  31.640  0.00  0.00    +0.000 NA
ATOM      4  C   UNL     1      -3.707  -5.407  31.920  0.00  0.00    +0.000 A 
ATOM      5  C   UNL     1      -4.402  -6.343  32.683  0.00  0.00    +0.000 A 
ATOM      6  C   UNL     1      -3.743  -7.468  33.123  0.00  0.00    +0.000 A 
ATOM      7  C   UNL     1      -2.412  -7.633  32.794  0.00  0.00    +0.000 A 
ATOM      8  C   UNL     1      -4.459  -4.183  31.451  0.00  0.00    +0.000 C 
ATOM      9  C   UNL     1       0.575  -6.878  32.782  0.00  0.00    +0.000 C 
ATOM     10  O   UNL     1       0.176  -6.753  33.952  0.00  0.00    +0.000 OA
ENDROOT
BRANCH   1  26
ATOM     11  C   UNL     1       1.378  -4.890  27.678  0.00  0.00    +0.000 A 
ATOM     12  C   UNL     1       1.432  -3.685  28.342  0.00  0.00    +0.000 A 
ATOM     13  C   UNL     1       1.889  -2.554  27.689  0.00  0.00    +0.000 A 
ATOM     14  C   UNL     1       2.272  -2.682  26.392  0.00  0.00    +0.000 A 
ATOM     15  C   UNL     1       2.216  -3.892  25.731  0.00  0.00    +0.000 A 
ATOM     16  N   UNL     1       1.768  -4.982  26.387  0.00  0.00    +0.000 NA
ATOM     17  C   UNL     1       2.660  -3.955  24.288  0.00  0.00    +0.000 C 
ATOM     18 CL   UNL     1       1.989  -0.980  28.470  0.00  0.00    +0.000 Cl
ATOM     19  C   UNL     1       1.037  -3.548  29.656  0.00  0.00    +0.000 A 
ATOM     20  C   UNL     1       0.579  -4.645  30.315  0.00  0.00    +0.000 A 
ATOM     21  C   UNL     1       0.514  -5.878  29.668  0.00  0.00    +0.000 A 
ATOM     22  C   UNL     1       0.911  -6.028  28.338  0.00  0.00    +0.000 A 
ATOM     23  C   UNL     1       0.851  -7.239  27.680  0.00  0.00    +0.000 A 
ATOM     24  C   UNL     1       0.370  -8.334  28.401  0.00  0.00    +0.000 A 
ATOM     25  C   UNL     1      -0.028  -8.241  29.700  0.00  0.00    +0.000 A 
ATOM     26  C   UNL     1       0.042  -7.001  30.346  0.00  0.00    +0.000 A 
ENDBRANCH   1  26
BRANCH   9  27
ATOM     27  C   UNL     1       1.976  -7.031  32.450  0.00  0.00    +0.000 C 
BRANCH  27  28
ATOM     28  C   UNL     1       2.927  -5.978  32.794  0.00  0.00    +0.000 C 
BRANCH  28  29
ATOM     29  C   UNL     1       2.432  -4.706  33.353  0.00  0.00    +0.000 C 
BRANCH  29  30
ATOM     30  C   UNL     1       3.218  -4.053  34.402  0.00  0.00    +0.000 C 
ATOM     31  O   UNL     1       4.403  -4.486  34.664  0.00  0.00    +0.000 OA
BRANCH  30  32
ATOM     32  O   UNL     1       2.784  -2.987  35.151  0.00  0.00    +0.000 OA
ATOM     33  H   UNL     1       1.983  -3.105  35.748  0.00  0.00    +0.000 HD
ENDBRANCH  30  32
ENDBRANCH  29  30
ENDBRANCH  28  29
ENDBRANCH  27  28
ENDBRANCH   9  27
TORSDOF 6
ENDMDL
