MODEL 1
REMARK VINA RESULT:    -6.872      0.000      0.000
REMARK INTER + INTRA:         -11.866
REMARK INTER:                 -10.086
REMARK INTRA:                  -1.780
REMARK UNBOUND:                -1.780
REMARK  Name = 
REMARK  12 active torsions:
REMARK  status: ('A' for Active; 'I' for Inactive)
REMARK    1  A    between atoms: C_2  and  C_8
REMARK    2  A    between atoms: C_4  and  C_7
REMARK    3  A    between atoms: C_5  and  C_6
REMARK    4  A    between atoms: C_8  and  N_9
REMARK    5  A    between atoms: C_8  and  C_21
REMARK    6  A    between atoms: N_9  and  C_10
REMARK    7  A    between atoms: C_10  and  C_11
REMARK    8  A    between atoms: C_13  and  O_19
REMARK    9  A    between atoms: C_15  and  O_17
REMARK   10  A    between atoms: O_17  and  C_18
REMARK   11  A    between atoms: O_19  and  C_20
REMARK   12  A    between atoms: C_21  and  C_22
REMARK                            x       y       z     vdW  Elec       q    Type
REMARK                         _______ _______ _______ _____ _____    ______ ____
ROOT
ATOM      1  C   UNL     1      -4.198  -3.866  31.540  0.00  0.00    +0.000 C 
ENDROOT
BRANCH   1   3
ATOM      2  N   UNL     1      -4.771  -1.411  31.504  0.00  0.00    +0.000 NA
ATOM      3  C   UNL     1      -4.978  -2.585  31.653  0.00  0.00    +0.000 A 
ATOM      4  S   UNL     1      -6.789  -2.568  32.077  0.00  0.00    +0.000 S 
ATOM      5  C   UNL     1      -6.906  -0.789  31.953  0.00  0.00    +0.000 A 
ATOM      6  C   UNL     1      -5.616  -0.425  31.618  0.00  0.00    +0.000 A 
ATOM      7  C   UNL     1      -5.273   1.030  31.416  0.00  0.00    +0.000 C 
ATOM      8  C   UNL     1      -8.131   0.054  32.169  0.00  0.00    +0.000 C 
ENDBRANCH   1   3
BRANCH   1   9
ATOM      9  N   UNL     1      -2.782  -3.514  31.367  0.00  0.00    +0.000 NA
ATOM     10  H   UNL     1      -2.180  -4.069  32.016  0.00  0.00    +0.000 HD
BRANCH   9  11
ATOM     11  C   UNL     1      -2.305  -3.580  30.032  0.00  0.00    +0.000 C 
BRANCH  11  12
ATOM     12  C   UNL     1      -1.489  -4.849  29.938  0.00  0.00    +0.000 A 
ATOM     13  C   UNL     1      -0.452  -4.999  30.813  0.00  0.00    +0.000 A 
ATOM     14  C   UNL     1       0.323  -6.128  30.780  0.00  0.00    +0.000 A 
ATOM     15  C   UNL     1       0.050  -7.116  29.855  0.00  0.00    +0.000 A 
ATOM     16  C   UNL     1      -0.981  -6.981  28.976  0.00  0.00    +0.000 A 
ATOM     17  C   UNL     1      -1.744  -5.831  29.035  0.00  0.00    +0.000 A 
BRANCH  16  18
ATOM     18  O   UNL     1      -1.233  -7.984  28.061  0.00  0.00    +0.000 OA
ATOM     19  C   UNL     1      -0.223  -8.575  27.273  0.00  0.00    +0.000 C 
ENDBRANCH  16  18
BRANCH  14  20
ATOM     20  O   UNL     1       1.393  -6.353  31.634  0.00  0.00    +0.000 OA
ATOM     21  C   UNL     1       1.343  -7.091  32.816  0.00  0.00    +0.000 C 
ENDBRANCH  14  20
ENDBRANCH  11  12
ENDBRANCH   9  11
ENDBRANCH   1   9
BRANCH   1  22
ATOM     22  C   UNL     1      -4.285  -4.809  32.645  0.00  0.00    +0.000 C 
BRANCH  22  23
ATOM     23  C   UNL     1      -3.663  -6.173  32.446  0.00  0.00    +0.000 A 
ATOM     24  C   UNL     1      -2.667  -6.601  33.317  0.00  0.00    +0.000 A 
ATOM     25  S   UNL     1      -2.300  -8.329  32.710  0.00  0.00    +0.000 S 
ATOM     26  C   UNL     1      -3.533  -8.259  31.366  0.00  0.00    +0.000 A 
ATOM     27  C   UNL     1      -4.070  -7.010  31.498  0.00  0.00    +0.000 A 
ENDBRANCH  22  23
ENDBRANCH   1  22
TORSDOF 8
ENDMDL
