MODEL 1
REMARK VINA RESULT:    -7.539      0.000      0.000
REMARK INTER + INTRA:          -8.511
REMARK INTER:                  -8.200
REMARK INTRA:                  -0.311
REMARK UNBOUND:                -0.311
REMARK  Name = 
REMARK  5 active torsions:
REMARK  status: ('A' for Active; 'I' for Inactive)
REMARK    1  A    between atoms: C_2  and  C_15
REMARK    2  A    between atoms: C_3  and  N_14
REMARK    3  A    between atoms: C_10  and  C_12
REMARK    4  A    between atoms: C_10  and  C_13
REMARK    5  A    between atoms: C_20  and  C_22
REMARK                            x       y       z     vdW  Elec       q    Type
REMARK                         _______ _______ _______ _____ _____    ______ ____
ROOT
ATOM      1  C   UNL     1      -0.614  -4.850  29.563  0.00  0.00    +0.000 C 
ATOM      2  C   UNL     1      -1.460  -3.632  29.689  0.00  0.00    +0.000 C 
ATOM      3  C   UNL     1      -2.618  -3.525  30.277  0.00  0.00    +0.000 C 
ATOM      4  O   UNL     1      -3.190  -4.627  30.876  0.00  0.00    +0.000 OA
ATOM      5  C   UNL     1      -2.521  -5.815  30.838  0.00  0.00    +0.000 C 
ATOM      6  C   UNL     1      -1.343  -5.949  30.247  0.00  0.00    +0.000 C 
ATOM      7  C   UNL     1      -0.738  -7.292  30.300  0.00  0.00    +0.000 C 
ATOM      8  O   UNL     1      -0.198  -7.699  29.265  0.00  0.00    +0.000 OA
ATOM      9  C   UNL     1      -0.805  -8.070  31.566  0.00  0.00    +0.000 C 
ATOM     10  C   UNL     1      -2.036  -7.698  32.374  0.00  0.00    +0.000 C 
ATOM     11  C   UNL     1      -3.084  -7.063  31.471  0.00  0.00    +0.000 C 
ATOM     12  C   UNL     1      -1.712  -6.708  33.463  0.00  0.00    +0.000 C 
ATOM     13  C   UNL     1      -2.606  -8.971  32.951  0.00  0.00    +0.000 C 
ATOM     14  C   UNL     1      -0.516  -5.096  28.105  0.00  0.00    +0.000 C 
ATOM     15  C   UNL     1       0.736  -5.481  27.472  0.00  0.00    +0.000 C 
ATOM     16  N   UNL     1       1.897  -5.214  28.246  0.00  0.00    +0.000 N 
ATOM     17  C   UNL     1       3.141  -4.987  27.553  0.00  0.00    +0.000 C 
ATOM     18  O   UNL     1       3.202  -5.025  26.289  0.00  0.00    +0.000 OA
ATOM     19  C   UNL     1       4.400  -4.702  28.285  0.00  0.00    +0.000 C 
ATOM     20  C   UNL     1       1.882  -5.167  29.658  0.00  0.00    +0.000 C 
ATOM     21  C   UNL     1       0.678  -4.500  30.248  0.00  0.00    +0.000 C 
ENDROOT
BRANCH   3  22
ATOM     22  N   UNL     1      -3.331  -2.264  30.320  0.00  0.00    +0.000 N 
ATOM     23  H   UNL     1      -4.360  -2.234  30.234  0.00  0.00    +0.000 HD
ATOM     24  H   UNL     1      -2.737  -1.419  30.438  0.00  0.00    +0.000 HD
ENDBRANCH   3  22
BRANCH   2  25
ATOM     25  C   UNL     1      -0.952  -2.393  29.087  0.00  0.00    +0.000 C 
ATOM     26  N   UNL     1      -0.555  -1.411  28.607  0.00  0.00    +0.000 NA
ENDBRANCH   2  25
TORSDOF 2
ENDMDL
