MODEL 1
REMARK VINA RESULT:    -7.549      0.000      0.000
REMARK INTER + INTRA:         -10.760
REMARK INTER:                 -10.197
REMARK INTRA:                  -0.563
REMARK UNBOUND:                -0.563
REMARK  Name = 
REMARK  7 active torsions:
REMARK  status: ('A' for Active; 'I' for Inactive)
REMARK    1  A    between atoms: C_1  and  C_18
REMARK    2  A    between atoms: N_2  and  C_16
REMARK    3  A    between atoms: C_3  and  S_6
REMARK    4  A    between atoms: S_6  and  C_7
REMARK    5  A    between atoms: C_7  and  C_8
REMARK    6  A    between atoms: N_10  and  C_11
REMARK    7  A    between atoms: C_16  and  C_17
REMARK                            x       y       z     vdW  Elec       q    Type
REMARK                         _______ _______ _______ _____ _____    ______ ____
ROOT
ATOM      1  C   UNL     1      -3.197  -5.544  31.237  0.00  0.00    +0.000 A 
ATOM      2  N   UNL     1      -3.897  -5.168  32.279  0.00  0.00    +0.000 N 
ATOM      3  C   UNL     1      -4.700  -4.102  31.932  0.00  0.00    +0.000 A 
ATOM      4  N   UNL     1      -4.473  -3.834  30.660  0.00  0.00    +0.000 NA
ATOM      5  N   UNL     1      -3.583  -4.679  30.226  0.00  0.00    +0.000 NA
ENDROOT
BRANCH   1   6
ATOM      6  C   UNL     1      -2.206  -6.570  30.968  0.00  0.00    +0.000 A 
ATOM      7  C   UNL     1      -2.298  -7.868  30.593  0.00  0.00    +0.000 A 
ATOM      8  N   UNL     1      -1.019  -8.350  30.463  0.00  0.00    +0.000 NA
ATOM      9  O   UNL     1      -0.227  -7.390  30.744  0.00  0.00    +0.000 OA
ATOM     10  N   UNL     1      -0.844  -6.320  31.048  0.00  0.00    +0.000 NA
ATOM     11  N   UNL     1      -3.419  -8.688  30.335  0.00  0.00    +0.000 N 
ATOM     12  H   UNL     1      -3.865  -8.766  29.410  0.00  0.00    +0.000 HD
ATOM     13  H   UNL     1      -3.804  -9.250  31.123  0.00  0.00    +0.000 HD
ENDBRANCH   1   6
BRANCH   2  14
ATOM     14  C   UNL     1      -3.867  -5.692  33.606  0.00  0.00    +0.000 C 
ATOM     15  C   UNL     1      -4.391  -7.090  33.648  0.00  0.00    +0.000 C 
ENDBRANCH   2  14
BRANCH   3  16
ATOM     16  S   UNL     1      -5.821  -3.278  33.031  0.00  0.00    +0.000 S 
BRANCH  16  17
ATOM     17  C   UNL     1      -6.637  -1.847  32.317  0.00  0.00    +0.000 C 
BRANCH  17  18
ATOM     18  C   UNL     1      -8.085  -2.118  32.178  0.00  0.00    +0.000 C 
ATOM     19  O   UNL     1      -8.714  -1.836  31.107  0.00  0.00    +0.000 OA
ATOM     20  N   UNL     1      -8.828  -2.704  33.224  0.00  0.00    +0.000 N 
ATOM     21  H   UNL     1      -8.419  -2.994  34.137  0.00  0.00    +0.000 HD
BRANCH  20  22
ATOM     22  C   UNL     1     -10.250  -2.948  33.043  0.00  0.00    +0.000 C 
ATOM     23  C   UNL     1     -11.067  -1.997  33.889  0.00  0.00    +0.000 C 
ATOM     24  C   UNL     1     -12.349  -2.720  34.125  0.00  0.00    +0.000 C 
ATOM     25  C   UNL     1     -12.181  -4.137  33.618  0.00  0.00    +0.000 C 
ATOM     26  C   UNL     1     -10.655  -4.293  33.607  0.00  0.00    +0.000 C 
ENDBRANCH  20  22
ENDBRANCH  17  18
ENDBRANCH  16  17
ENDBRANCH   3  16
TORSDOF 6
ENDMDL
