MODEL 1
REMARK VINA RESULT:    -9.288      0.000      0.000
REMARK INTER + INTRA:         -12.876
REMARK INTER:                 -12.003
REMARK INTRA:                  -0.874
REMARK UNBOUND:                -0.874
REMARK  Name = 
REMARK  8 active torsions:
REMARK  status: ('A' for Active; 'I' for Inactive)
REMARK    1  A    between atoms: C_2  and  C_14
REMARK    2  A    between atoms: C_6  and  N_7
REMARK    3  A    between atoms: N_7  and  C_8
REMARK    4  A    between atoms: N_11  and  C_13
REMARK    5  A    between atoms: C_18  and  N_19
REMARK    6  A    between atoms: C_23  and  C_26
REMARK    7  A    between atoms: C_26  and  C_27
REMARK    8  A    between atoms: C_29  and  C_33
REMARK                            x       y       z     vdW  Elec       q    Type
REMARK                         _______ _______ _______ _____ _____    ______ ____
ROOT
ATOM      1  C   UNL     1       0.874  -2.602  28.097  0.00  0.00    +0.000 C 
ATOM      2  C   UNL     1       0.025  -1.343  28.016  0.00  0.00    +0.000 C 
ATOM      3  N   UNL     1      -1.296  -1.743  27.653  0.00  0.00    +0.000 NA
ATOM      4  C   UNL     1      -1.371  -3.181  27.696  0.00  0.00    +0.000 C 
ATOM      5  C   UNL     1       0.028  -3.690  27.466  0.00  0.00    +0.000 C 
ATOM      6  H   UNL     1      -1.635  -1.353  26.738  0.00  0.00    +0.000 HD
ENDROOT
BRANCH   1   8
ATOM      7  N   UNL     1       3.300  -2.860  27.636  0.00  0.00    +0.000 NA
ATOM      8  C   UNL     1       2.106  -2.349  27.300  0.00  0.00    +0.000 A 
ATOM      9  N   UNL     1       2.012  -1.574  26.209  0.00  0.00    +0.000 NA
ATOM     10  C   UNL     1       3.096  -1.289  25.427  0.00  0.00    +0.000 A 
ATOM     11  C   UNL     1       4.340  -1.815  25.767  0.00  0.00    +0.000 A 
ATOM     12  C   UNL     1       4.410  -2.604  26.888  0.00  0.00    +0.000 A 
ATOM     13  C   UNL     1       5.500  -1.498  24.901  0.00  0.00    +0.000 C 
ATOM     14  C   UNL     1       4.948  -1.619  23.471  0.00  0.00    +0.000 C 
ATOM     15  N   UNL     1       3.916  -0.670  23.198  0.00  0.00    +0.000 NA
ATOM     16  C   UNL     1       2.978  -0.430  24.235  0.00  0.00    +0.000 C 
ATOM     17  C   UNL     1       4.552   0.553  22.703  0.00  0.00    +0.000 C 
BRANCH  12  18
ATOM     18  N   UNL     1       5.668  -3.143  27.251  0.00  0.00    +0.000 N 
ATOM     19  C   UNL     1       5.705  -4.403  28.003  0.00  0.00    +0.000 C 
ATOM     20  H   UNL     1       6.589  -2.729  27.040  0.00  0.00    +0.000 HD
ENDBRANCH  12  18
ENDBRANCH   1   8
BRANCH   5  21
ATOM     21  N   UNL     1       0.260  -5.000  28.094  0.00  0.00    +0.000 N 
ATOM     22  C   UNL     1       0.856  -6.052  27.378  0.00  0.00    +0.000 C 
ATOM     23  N   UNL     1       1.171  -6.093  26.159  0.00  0.00    +0.000 NA
ATOM     24  S   UNL     1       1.093  -7.361  28.557  0.00  0.00    +0.000 S 
ATOM     25  C   UNL     1      -0.063  -6.701  29.811  0.00  0.00    +0.000 C 
ATOM     26  C   UNL     1      -0.077  -5.275  29.417  0.00  0.00    +0.000 C 
ATOM     27  O   UNL     1      -0.395  -4.386  30.305  0.00  0.00    +0.000 OA
ATOM     28  H   UNL     1       1.606  -6.913  25.729  0.00  0.00    +0.000 HD
BRANCH  25  29
ATOM     29  C   UNL     1      -1.398  -7.367  29.725  0.00  0.00    +0.000 C 
BRANCH  29  30
ATOM     30  C   UNL     1      -2.065  -7.521  31.017  0.00  0.00    +0.000 A 
ATOM     31  C   UNL     1      -2.862  -6.521  31.509  0.00  0.00    +0.000 A 
ATOM     32  C   UNL     1      -3.489  -6.670  32.728  0.00  0.00    +0.000 A 
ATOM     33  C   UNL     1      -3.316  -7.839  33.468  0.00  0.00    +0.000 A 
ATOM     34  C   UNL     1      -2.507  -8.820  32.938  0.00  0.00    +0.000 A 
ATOM     35  C   UNL     1      -1.868  -8.702  31.725  0.00  0.00    +0.000 A 
ATOM     36  C   UNL     1      -4.340  -5.560  33.214  0.00  0.00    +0.000 C 
ENDBRANCH  29  30
ENDBRANCH  25  29
ENDBRANCH   5  21
TORSDOF 5
ENDMDL
