MODEL 1
REMARK VINA RESULT:    -8.167      0.000      0.000
REMARK INTER + INTRA:         -10.065
REMARK INTER:                  -9.599
REMARK INTRA:                  -0.466
REMARK UNBOUND:                -0.466
REMARK  Name = 
REMARK  6 active torsions:
REMARK  status: ('A' for Active; 'I' for Inactive)
REMARK    1  A    between atoms: C_3  and  C_13
REMARK    2  A    between atoms: N_5  and  C_6
REMARK    3  A    between atoms: C_13  and  C_14
REMARK    4  A    between atoms: C_13  and  C_15
REMARK    5  A    between atoms: C_13  and  C_16
REMARK    6  A    between atoms: C_18  and  C_22
REMARK                            x       y       z     vdW  Elec       q    Type
REMARK                         _______ _______ _______ _____ _____    ______ ____
ROOT
ATOM      1  C   UNL     1      -3.203  -3.599  30.894  0.00  0.00    +0.000 A 
ATOM      2  C   UNL     1      -3.798  -4.536  31.698  0.00  0.00    +0.000 A 
ATOM      3  C   UNL     1      -3.105  -5.727  31.592  0.00  0.00    +0.000 A 
ATOM      4  N   UNL     1      -2.118  -5.447  30.723  0.00  0.00    +0.000 NA
ATOM      5  N   UNL     1      -2.165  -4.216  30.311  0.00  0.00    +0.000 N 
ATOM      6  C   UNL     1      -4.906  -4.190  32.432  0.00  0.00    +0.000 A 
ATOM      7  C   UNL     1      -5.448  -2.906  32.386  0.00  0.00    +0.000 A 
ATOM      8  C   UNL     1      -4.800  -2.000  31.553  0.00  0.00    +0.000 A 
ATOM      9  O   UNL     1      -5.245  -0.833  31.474  0.00  0.00    +0.000 OA
ATOM     10  N   UNL     1      -3.712  -2.359  30.837  0.00  0.00    +0.000 N 
ATOM     11  H   UNL     1      -3.236  -1.672  30.218  0.00  0.00    +0.000 HD
ENDROOT
BRANCH   5  12
ATOM     12  C   UNL     1      -1.281  -3.553  29.383  0.00  0.00    +0.000 A 
ATOM     13  C   UNL     1      -1.650  -3.338  28.076  0.00  0.00    +0.000 A 
ATOM     14  C   UNL     1      -0.789  -2.701  27.202  0.00  0.00    +0.000 A 
ATOM     15  C   UNL     1       0.457  -2.271  27.634  0.00  0.00    +0.000 A 
ATOM     16  C   UNL     1       0.818  -2.491  28.942  0.00  0.00    +0.000 A 
ATOM     17  C   UNL     1      -0.047  -3.127  29.806  0.00  0.00    +0.000 A 
ATOM     18 CL   UNL     1       1.581  -1.458  26.559  0.00  0.00    +0.000 Cl
ENDBRANCH   5  12
BRANCH   3  19
ATOM     19  C   UNL     1      -3.324  -7.017  32.232  0.00  0.00    +0.000 C 
ATOM     20  C   UNL     1      -2.033  -7.845  32.281  0.00  0.00    +0.000 C 
ATOM     21  C   UNL     1      -4.345  -7.793  31.425  0.00  0.00    +0.000 C 
ATOM     22  C   UNL     1      -3.832  -6.946  33.638  0.00  0.00    +0.000 C 
ENDBRANCH   3  19
BRANCH   7  23
ATOM     23  C   UNL     1      -6.611  -2.560  33.164  0.00  0.00    +0.000 C 
ATOM     24  O   UNL     1      -7.740  -2.633  32.632  0.00  0.00    +0.000 OA
ENDBRANCH   7  23
TORSDOF 3
ENDMDL
