MODEL 1
REMARK VINA RESULT:    -7.057      0.000      0.000
REMARK INTER + INTRA:          -9.534
REMARK INTER:                  -8.707
REMARK INTRA:                  -0.827
REMARK UNBOUND:                -0.827
REMARK  Name = 
REMARK  6 active torsions:
REMARK  status: ('A' for Active; 'I' for Inactive)
REMARK    1  A    between atoms: C_1  and  S_9
REMARK    2  A    between atoms: N_2  and  C_6
REMARK    3  A    between atoms: C_6  and  C_7
REMARK    4  A    between atoms: C_7  and  C_8
REMARK    5  A    between atoms: S_9  and  N_10
REMARK    6  A    between atoms: C_13  and  C_21
REMARK                            x       y       z     vdW  Elec       q    Type
REMARK                         _______ _______ _______ _____ _____    ______ ____
ROOT
ATOM      1  N   UNL     1      -2.763  -4.863  30.709  0.00  0.00    +0.000 N 
ATOM      2  C   UNL     1      -3.014  -3.496  31.017  0.00  0.00    +0.000 C 
ATOM      3  O   UNL     1      -2.382  -2.590  30.423  0.00  0.00    +0.000 OA
ATOM      4  C   UNL     1      -4.013  -3.123  32.027  0.00  0.00    +0.000 C 
ATOM      5  O   UNL     1      -4.012  -4.096  33.065  0.00  0.00    +0.000 OA
ATOM      6  C   UNL     1      -3.783  -5.442  32.788  0.00  0.00    +0.000 A 
ATOM      7  C   UNL     1      -3.166  -5.849  31.624  0.00  0.00    +0.000 A 
ATOM      8  C   UNL     1      -2.949  -7.199  31.367  0.00  0.00    +0.000 A 
ATOM      9  C   UNL     1      -3.340  -8.142  32.264  0.00  0.00    +0.000 A 
ATOM     10  C   UNL     1      -3.954  -7.752  33.429  0.00  0.00    +0.000 A 
ATOM     11  C   UNL     1      -4.176  -6.405  33.690  0.00  0.00    +0.000 A 
ATOM     12  C   UNL     1      -5.375  -3.080  31.338  0.00  0.00    +0.000 C 
ENDROOT
BRANCH   1  13
ATOM     13  S   UNL     1      -1.898  -5.192  29.209  0.00  0.00    +0.000 S 
BRANCH  13  14
ATOM     14  C   UNL     1      -0.143  -4.931  29.582  0.00  0.00    +0.000 A 
ATOM     15  N   UNL     1       0.678  -5.559  30.386  0.00  0.00    +0.000 N 
ATOM     16  N   UNL     1       1.831  -4.878  30.455  0.00  0.00    +0.000 NA
ATOM     17  N   UNL     1       1.739  -3.823  29.689  0.00  0.00    +0.000 NA
ATOM     18  N   UNL     1       0.546  -3.823  29.139  0.00  0.00    +0.000 NA
BRANCH  15  19
ATOM     19  C   UNL     1       0.480  -6.849  31.006  0.00  0.00    +0.000 C 
BRANCH  19  20
ATOM     20  C   UNL     1       0.865  -6.774  32.498  0.00  0.00    +0.000 C 
ATOM     21  C   UNL     1       0.248  -7.869  33.299  0.00  0.00    +0.000 C 
ENDBRANCH  19  20
ENDBRANCH  15  19
ENDBRANCH  13  14
ENDBRANCH   1  13
TORSDOF 4
ENDMDL
