MODEL 1
REMARK VINA RESULT:    -6.479      0.000      0.000
REMARK INTER + INTRA:          -9.826
REMARK INTER:                  -8.752
REMARK INTRA:                  -1.074
REMARK UNBOUND:                -1.074
REMARK  Name = 
REMARK  9 active torsions:
REMARK  status: ('A' for Active; 'I' for Inactive)
REMARK    1  A    between atoms: N_1  and  C_8
REMARK    2  A    between atoms: C_2  and  C_4
REMARK    3  A    between atoms: C_4  and  C_5
REMARK    4  A    between atoms: C_4  and  C_6
REMARK    5  A    between atoms: C_4  and  C_7
REMARK    6  A    between atoms: C_8  and  C_9
REMARK    7  A    between atoms: C_8  and  N_13
REMARK    8  A    between atoms: N_13  and  C_14
REMARK    9  A    between atoms: C_14  and  C_15
REMARK                            x       y       z     vdW  Elec       q    Type
REMARK                         _______ _______ _______ _____ _____    ______ ____
ROOT
ATOM      1  C   UNL     1      -2.327  -6.469  31.794  0.00  0.00    +0.000 C 
ENDROOT
BRANCH   1   2
ATOM      2  N   UNL     1      -1.278  -5.551  31.319  0.00  0.00    +0.000 N 
ATOM      3  C   UNL     1      -1.480  -4.936  30.064  0.00  0.00    +0.000 C 
ATOM      4  O   UNL     1      -2.517  -5.182  29.411  0.00  0.00    +0.000 OA
ATOM      5  H   UNL     1      -0.443  -5.388  31.904  0.00  0.00    +0.000 HD
BRANCH   3   6
ATOM      6  C   UNL     1      -0.489  -3.999  29.493  0.00  0.00    +0.000 C 
ATOM      7  C   UNL     1      -0.252  -4.450  28.053  0.00  0.00    +0.000 C 
ATOM      8  C   UNL     1       0.827  -4.065  30.250  0.00  0.00    +0.000 C 
ATOM      9  C   UNL     1      -0.999  -2.590  29.544  0.00  0.00    +0.000 C 
ENDBRANCH   3   6
ENDBRANCH   1   2
BRANCH   1  10
ATOM     10  C   UNL     1      -1.628  -7.785  31.988  0.00  0.00    +0.000 C 
ATOM     11 CL   UNL     1      -0.131  -7.404  32.919  0.00  0.00    +0.000 Cl
ATOM     12 CL   UNL     1      -2.577  -8.908  32.968  0.00  0.00    +0.000 Cl
ATOM     13 CL   UNL     1      -1.057  -8.520  30.477  0.00  0.00    +0.000 Cl
ENDBRANCH   1  10
BRANCH   1  14
ATOM     14  N   UNL     1      -2.830  -5.856  32.981  0.00  0.00    +0.000 NA
ATOM     15  H   UNL     1      -2.114  -5.211  33.352  0.00  0.00    +0.000 HD
BRANCH  14  16
ATOM     16  C   UNL     1      -4.129  -5.302  32.944  0.00  0.00    +0.000 C 
BRANCH  16  17
ATOM     17  C   UNL     1      -4.172  -3.803  33.120  0.00  0.00    +0.000 C 
ATOM     18  O   UNL     1      -3.617  -3.217  32.016  0.00  0.00    +0.000 OA
ATOM     19  C   UNL     1      -4.607  -2.874  31.133  0.00  0.00    +0.000 C 
ATOM     20  C   UNL     1      -5.906  -2.834  31.863  0.00  0.00    +0.000 C 
ATOM     21  C   UNL     1      -5.547  -3.249  33.254  0.00  0.00    +0.000 C 
ENDBRANCH  16  17
ENDBRANCH  14  16
ENDBRANCH   1  14
TORSDOF 6
ENDMDL
