MODEL 1
REMARK VINA RESULT:    -8.484      0.000      0.000
REMARK INTER + INTRA:         -10.024
REMARK INTER:                  -9.724
REMARK INTRA:                  -0.301
REMARK UNBOUND:                -0.301
REMARK  Name = 
REMARK  5 active torsions:
REMARK  status: ('A' for Active; 'I' for Inactive)
REMARK    1  A    between atoms: C_1  and  C_18
REMARK    2  A    between atoms: C_5  and  N_6
REMARK    3  A    between atoms: C_12  and  C_16
REMARK    4  A    between atoms: C_12  and  C_17
REMARK    5  A    between atoms: N_20  and  C_21
REMARK                            x       y       z     vdW  Elec       q    Type
REMARK                         _______ _______ _______ _____ _____    ______ ____
ROOT
ATOM      1  C   UNL     1       1.416  -3.351  28.733  0.00  0.00    +0.000 A 
ATOM      2  S   UNL     1      -0.320  -3.101  28.612  0.00  0.00    +0.000 S 
ATOM      3  C   UNL     1      -0.803  -4.387  29.741  0.00  0.00    +0.000 A 
ATOM      4  C   UNL     1       0.405  -4.911  30.126  0.00  0.00    +0.000 A 
ATOM      5  C   UNL     1       1.528  -4.386  29.614  0.00  0.00    +0.000 A 
ATOM      6  C   UNL     1       0.259  -5.978  31.048  0.00  0.00    +0.000 A 
ATOM      7  C   UNL     1      -0.962  -6.405  31.479  0.00  0.00    +0.000 A 
ATOM      8  C   UNL     1      -2.128  -5.828  31.047  0.00  0.00    +0.000 A 
ATOM      9  N   UNL     1      -2.001  -4.804  30.163  0.00  0.00    +0.000 NA
ATOM     10  C   UNL     1      -3.462  -6.274  31.499  0.00  0.00    +0.000 C 
ATOM     11  C   UNL     1      -3.366  -7.148  32.701  0.00  0.00    +0.000 C 
ATOM     12  C   UNL     1      -2.324  -8.252  32.521  0.00  0.00    +0.000 C 
ATOM     13  C   UNL     1      -1.022  -7.538  32.451  0.00  0.00    +0.000 C 
ATOM     14  O   UNL     1      -0.013  -7.799  33.115  0.00  0.00    +0.000 OA
ATOM     15  C   UNL     1      -2.907  -6.298  33.884  0.00  0.00    +0.000 C 
ATOM     16  C   UNL     1      -4.671  -7.842  33.007  0.00  0.00    +0.000 C 
ENDROOT
BRANCH   1  17
ATOM     17  C   UNL     1       2.450  -2.603  28.034  0.00  0.00    +0.000 C 
ATOM     18  O   UNL     1       2.657  -1.437  28.400  0.00  0.00    +0.000 OA
ATOM     19  N   UNL     1       3.189  -3.164  26.986  0.00  0.00    +0.000 N 
ATOM     20  H   UNL     1       2.931  -4.172  26.750  0.00  0.00    +0.000 HD
BRANCH  19  21
ATOM     21  C   UNL     1       4.210  -2.548  26.239  0.00  0.00    +0.000 A 
ATOM     22  C   UNL     1       5.510  -2.396  26.644  0.00  0.00    +0.000 A 
ATOM     23  C   UNL     1       6.494  -1.766  25.877  0.00  0.00    +0.000 A 
ATOM     24  C   UNL     1       6.162  -1.266  24.649  0.00  0.00    +0.000 A 
ATOM     25  C   UNL     1       4.859  -1.407  24.220  0.00  0.00    +0.000 A 
ATOM     26  C   UNL     1       3.894  -2.023  24.970  0.00  0.00    +0.000 A 
ENDBRANCH  19  21
ENDBRANCH   1  17
BRANCH   5  27
ATOM     27  N   UNL     1       2.871  -4.870  29.958  0.00  0.00    +0.000 N 
ATOM     28  H   UNL     1       3.019  -5.476  30.791  0.00  0.00    +0.000 HD
ATOM     29  H   UNL     1       3.694  -4.616  29.378  0.00  0.00    +0.000 HD
ENDBRANCH   5  27
TORSDOF 3
ENDMDL
