MODEL 1
REMARK VINA RESULT:    -7.454      0.000      0.000
REMARK INTER + INTRA:          -9.672
REMARK INTER:                  -9.197
REMARK INTRA:                  -0.474
REMARK UNBOUND:                -0.474
REMARK  Name = 
REMARK  5 active torsions:
REMARK  status: ('A' for Active; 'I' for Inactive)
REMARK    1  A    between atoms: N_1  and  C_8
REMARK    2  A    between atoms: C_8  and  C_9
REMARK    3  A    between atoms: C_12  and  C_13
REMARK    4  A    between atoms: C_14  and  O_15
REMARK    5  A    between atoms: O_15  and  C_16
REMARK                            x       y       z     vdW  Elec       q    Type
REMARK                         _______ _______ _______ _____ _____    ______ ____
ROOT
ATOM      1  C   UNL     1      -1.235  -4.987  29.984  0.00  0.00    +0.000 C 
ATOM      2  O   UNL     1      -2.493  -5.158  29.719  0.00  0.00    +0.000 OA
ATOM      3  N   UNL     1      -0.353  -5.968  30.315  0.00  0.00    +0.000 N 
ATOM      4  C   UNL     1      -0.824  -7.410  30.470  0.00  0.00    +0.000 C 
ATOM      5  C   UNL     1      -1.056  -7.605  28.979  0.00  0.00    +0.000 C 
ATOM      6  N   UNL     1       0.193  -7.139  28.337  0.00  0.00    +0.000 NA
ATOM      7  C   UNL     1       1.335  -7.025  29.199  0.00  0.00    +0.000 C 
ATOM      8  C   UNL     1       1.080  -5.952  30.339  0.00  0.00    +0.000 C 
ATOM      9  H   UNL     1       0.474  -7.724  27.540  0.00  0.00    +0.000 HD
ENDROOT
BRANCH   4  10
ATOM     10  C   UNL     1      -1.895  -7.471  31.410  0.00  0.00    +0.000 A 
ATOM     11  C   UNL     1      -1.673  -7.071  32.751  0.00  0.00    +0.000 A 
ATOM     12  C   UNL     1      -2.728  -6.948  33.609  0.00  0.00    +0.000 A 
ATOM     13  C   UNL     1      -4.051  -7.206  33.221  0.00  0.00    +0.000 A 
ATOM     14  C   UNL     1      -4.281  -7.591  31.932  0.00  0.00    +0.000 A 
ATOM     15  C   UNL     1      -3.197  -7.716  31.051  0.00  0.00    +0.000 A 
BRANCH  11  16
ATOM     16  O   UNL     1      -0.352  -6.820  33.149  0.00  0.00    +0.000 OA
ATOM     17  C   UNL     1       0.540  -7.811  33.599  0.00  0.00    +0.000 C 
ENDBRANCH  11  16
ENDBRANCH   4  10
BRANCH   1  18
ATOM     18  C   UNL     1      -0.781  -3.562  29.895  0.00  0.00    +0.000 C 
BRANCH  18  19
ATOM     19  N   UNL     1      -0.855  -3.070  28.562  0.00  0.00    +0.000 N 
ATOM     20  C   UNL     1      -0.158  -3.388  27.377  0.00  0.00    +0.000 C 
ATOM     21  O   UNL     1       0.710  -4.269  27.267  0.00  0.00    +0.000 OA
ATOM     22  N   UNL     1      -0.590  -2.553  26.308  0.00  0.00    +0.000 N 
ATOM     23  C   UNL     1      -1.843  -1.976  26.705  0.00  0.00    +0.000 C 
ATOM     24  C   UNL     1      -1.752  -1.989  28.187  0.00  0.00    +0.000 C 
ATOM     25  O   UNL     1      -2.336  -1.219  28.986  0.00  0.00    +0.000 OA
ATOM     26  H   UNL     1      -0.103  -2.385  25.408  0.00  0.00    +0.000 HD
ENDBRANCH  18  19
ENDBRANCH   1  18
TORSDOF 4
ENDMDL
