MODEL 1
REMARK VINA RESULT:    -8.234      0.000      0.000
REMARK INTER + INTRA:         -11.034
REMARK INTER:                 -10.400
REMARK INTRA:                  -0.634
REMARK UNBOUND:                -0.634
REMARK  Name = 
REMARK  7 active torsions:
REMARK  status: ('A' for Active; 'I' for Inactive)
REMARK    1  A    between atoms: C_1  and  C_24
REMARK    2  A    between atoms: C_6  and  C_17
REMARK    3  A    between atoms: C_10  and  C_11
REMARK    4  A    between atoms: C_13  and  C_15
REMARK    5  A    between atoms: C_15  and  C_16
REMARK    6  A    between atoms: C_17  and  O_19
REMARK    7  A    between atoms: C_24  and  C_25
REMARK                            x       y       z     vdW  Elec       q    Type
REMARK                         _______ _______ _______ _____ _____    ______ ____
ROOT
ATOM      1  C   UNL     1       0.773  -5.057  27.692  0.00  0.00    +0.000 C 
ATOM      2  N   UNL     1       1.336  -5.985  27.031  0.00  0.00    +0.000 NA
ATOM      3  C   UNL     1       1.271  -7.361  27.004  0.00  0.00    +0.000 A 
ATOM      4  C   UNL     1       0.359  -7.998  27.856  0.00  0.00    +0.000 A 
ATOM      5  S   UNL     1      -0.635  -6.956  28.856  0.00  0.00    +0.000 S 
ATOM      6  C   UNL     1      -0.004  -5.164  28.890  0.00  0.00    +0.000 C 
ATOM      7  S   UNL     1      -1.544  -4.346  29.163  0.00  0.00    +0.000 S 
ATOM      8  C   UNL     1      -2.392  -5.251  30.573  0.00  0.00    +0.000 C 
ATOM      9  N   UNL     1      -2.219  -6.405  30.735  0.00  0.00    +0.000 NA
ATOM     10  C   UNL     1      -1.504  -7.411  30.124  0.00  0.00    +0.000 C 
ATOM     11  C   UNL     1      -1.574  -8.805  30.533  0.00  0.00    +0.000 C 
ATOM     12  N   UNL     1      -2.875  -4.567  31.717  0.00  0.00    +0.000 N 
ATOM     13  C   UNL     1      -4.036  -3.831  31.453  0.00  0.00    +0.000 C 
ATOM     14  O   UNL     1      -4.452  -4.106  30.246  0.00  0.00    +0.000 OA
ATOM     15  C   UNL     1       0.165  -9.338  27.951  0.00  0.00    +0.000 A 
ATOM     16  C   UNL     1       0.917 -10.167  27.154  0.00  0.00    +0.000 A 
ATOM     17  C   UNL     1       1.848  -9.587  26.281  0.00  0.00    +0.000 A 
ATOM     18  C   UNL     1       2.018  -8.214  26.210  0.00  0.00    +0.000 A 
ATOM     19  H   UNL     1      -2.450  -4.458  32.645  0.00  0.00    +0.000 HD
ENDROOT
BRANCH  13  20
ATOM     20  C   UNL     1      -4.770  -2.905  32.273  0.00  0.00    +0.000 C 
ATOM     21  C   UNL     1      -6.166  -2.681  31.723  0.00  0.00    +0.000 C 
ENDBRANCH  13  20
BRANCH   6  22
ATOM     22  C   UNL     1       0.861  -5.143  30.126  0.00  0.00    +0.000 C 
ATOM     23  O   UNL     1       1.517  -6.137  30.473  0.00  0.00    +0.000 OA
BRANCH  22  24
ATOM     24  O   UNL     1       0.903  -3.984  30.857  0.00  0.00    +0.000 OA
ATOM     25  H   UNL     1       0.672  -3.072  30.482  0.00  0.00    +0.000 HD
ENDBRANCH  22  24
ENDBRANCH   6  22
BRANCH   1  26
ATOM     26  C   UNL     1       1.206  -3.669  27.284  0.00  0.00    +0.000 C 
BRANCH  26  27
ATOM     27  C   UNL     1       2.660  -3.568  27.442  0.00  0.00    +0.000 A 
ATOM     28  S   UNL     1       3.596  -2.160  26.598  0.00  0.00    +0.000 S 
ATOM     29  C   UNL     1       5.200  -2.748  27.300  0.00  0.00    +0.000 A 
ATOM     30  N   UNL     1       4.827  -3.702  27.918  0.00  0.00    +0.000 NA
ATOM     31  N   UNL     1       3.613  -4.114  28.001  0.00  0.00    +0.000 NA
ATOM     32  N   UNL     1       6.380  -1.997  26.968  0.00  0.00    +0.000 N 
ATOM     33  H   UNL     1       6.991  -2.406  26.261  0.00  0.00    +0.000 HD
ATOM     34  H   UNL     1       6.633  -1.087  27.400  0.00  0.00    +0.000 HD
ENDBRANCH  26  27
ENDBRANCH   1  26
TORSDOF 5
ENDMDL
