MODEL 1
REMARK VINA RESULT:    -7.806      0.000      0.000
REMARK INTER + INTRA:         -10.163
REMARK INTER:                  -9.403
REMARK INTRA:                  -0.759
REMARK UNBOUND:                -0.759
REMARK  Name = 
REMARK  7 active torsions:
REMARK  status: ('A' for Active; 'I' for Inactive)
REMARK    1  A    between atoms: N_3  and  C_14
REMARK    2  A    between atoms: N_6  and  C_7
REMARK    3  A    between atoms: C_9  and  C_13
REMARK    4  A    between atoms: C_14  and  C_15
REMARK    5  A    between atoms: C_15  and  O_17
REMARK    6  A    between atoms: N_20  and  C_25
REMARK    7  A    between atoms: N_23  and  C_24
REMARK                            x       y       z     vdW  Elec       q    Type
REMARK                         _______ _______ _______ _____ _____    ______ ____
ROOT
ATOM      1  C   UNL     1       0.180  -8.933  28.296  0.00  0.00    +0.000 A 
ATOM      2  C   UNL     1       0.577  -7.800  28.948  0.00  0.00    +0.000 A 
ATOM      3  N   UNL     1      -0.413  -7.466  29.805  0.00  0.00    +0.000 N 
ATOM      4  C   UNL     1      -1.417  -8.338  29.725  0.00  0.00    +0.000 A 
ATOM      5  N   UNL     1      -1.019  -9.249  28.769  0.00  0.00    +0.000 NA
ATOM      6  N   UNL     1      -2.660  -8.441  30.399  0.00  0.00    +0.000 N 
ATOM      7  C   UNL     1       1.802  -7.271  28.627  0.00  0.00    +0.000 A 
ATOM      8  O   UNL     1       2.199  -6.247  29.192  0.00  0.00    +0.000 OA
ATOM      9  N   UNL     1       2.591  -7.860  27.689  0.00  0.00    +0.000 N 
ATOM     10  C   UNL     1       2.142  -8.976  27.083  0.00  0.00    +0.000 A 
ATOM     11  O   UNL     1       2.853  -9.558  26.198  0.00  0.00    +0.000 OA
ATOM     12  N   UNL     1       0.969  -9.517  27.363  0.00  0.00    +0.000 N 
ATOM     13  C   UNL     1       0.453 -10.717  26.729  0.00  0.00    +0.000 C 
ATOM     14  C   UNL     1       3.892  -7.318  27.333  0.00  0.00    +0.000 C 
ATOM     15  H   UNL     1      -3.304  -9.219  30.080  0.00  0.00    +0.000 HD
ENDROOT
BRANCH   6  16
ATOM     16  C   UNL     1      -3.171  -7.653  31.439  0.00  0.00    +0.000 A 
ATOM     17  C   UNL     1      -3.658  -6.375  31.325  0.00  0.00    +0.000 A 
ATOM     18  C   UNL     1      -4.160  -5.625  32.362  0.00  0.00    +0.000 A 
ATOM     19  C   UNL     1      -4.164  -6.227  33.618  0.00  0.00    +0.000 A 
ATOM     20  C   UNL     1      -3.681  -7.511  33.769  0.00  0.00    +0.000 A 
ATOM     21  C   UNL     1      -3.188  -8.226  32.704  0.00  0.00    +0.000 A 
ATOM     22  C   UNL     1      -4.675  -4.250  32.185  0.00  0.00    +0.000 C 
ENDBRANCH   6  16
BRANCH   3  23
ATOM     23  C   UNL     1      -0.337  -6.291  30.632  0.00  0.00    +0.000 C 
BRANCH  23  24
ATOM     24  C   UNL     1       0.433  -6.495  31.886  0.00  0.00    +0.000 C 
ATOM     25  O   UNL     1       0.163  -7.439  32.674  0.00  0.00    +0.000 OA
BRANCH  24  26
ATOM     26  O   UNL     1       1.462  -5.650  32.208  0.00  0.00    +0.000 OA
ATOM     27  H   UNL     1       1.305  -4.644  32.137  0.00  0.00    +0.000 HD
ENDBRANCH  24  26
ENDBRANCH  23  24
ENDBRANCH   3  23
TORSDOF 4
ENDMDL
