MODEL 1
REMARK VINA RESULT:    -9.390      0.000      0.000
REMARK INTER + INTRA:         -15.544
REMARK INTER:                 -13.232
REMARK INTRA:                  -2.311
REMARK UNBOUND:                -2.311
REMARK  Name = 
REMARK  8 active torsions:
REMARK  status: ('A' for Active; 'I' for Inactive)
REMARK    1  A    between atoms: C_1  and  C_13
REMARK    2  A    between atoms: N_3  and  C_6
REMARK    3  A    between atoms: N_15  and  C_16
REMARK    4  A    between atoms: N_15  and  C_17
REMARK    5  A    between atoms: C_17  and  C_18
REMARK    6  A    between atoms: C_19  and  N_28
REMARK    7  A    between atoms: N_28  and  C_29
REMARK    8  A    between atoms: C_29  and  C_30
REMARK                            x       y       z     vdW  Elec       q    Type
REMARK                         _______ _______ _______ _____ _____    ______ ____
ROOT
ATOM      1  C   UNL     1      -1.619  -6.757  31.180  0.00  0.00    +0.000 C 
ATOM      2  C   UNL     1      -2.949  -6.016  31.220  0.00  0.00    +0.000 C 
ATOM      3  C   UNL     1      -4.015  -6.818  31.872  0.00  0.00    +0.000 C 
ATOM      4  C   UNL     1      -3.770  -7.257  33.271  0.00  0.00    +0.000 C 
ATOM      5  C   UNL     1      -2.458  -8.014  33.256  0.00  0.00    +0.000 C 
ATOM      6  C   UNL     1      -1.436  -7.124  32.705  0.00  0.00    +0.000 C 
ATOM      7  C   UNL     1      -2.526  -9.261  32.432  0.00  0.00    +0.000 C 
ATOM      8  C   UNL     1      -2.858  -8.855  31.015  0.00  0.00    +0.000 C 
ATOM      9  C   UNL     1      -1.797  -7.970  30.381  0.00  0.00    +0.000 C 
ATOM     10  C   UNL     1      -4.165  -8.097  31.020  0.00  0.00    +0.000 C 
ENDROOT
BRANCH   2  11
ATOM     11  N   UNL     1      -2.978  -4.649  31.278  0.00  0.00    +0.000 NA
ATOM     12  H   UNL     1      -2.461  -4.095  31.894  0.00  0.00    +0.000 HD
BRANCH  11  13
ATOM     13  C   UNL     1      -3.638  -3.916  30.245  0.00  0.00    +0.000 C 
BRANCH  13  14
ATOM     14  C   UNL     1      -2.602  -3.275  29.359  0.00  0.00    +0.000 A 
ATOM     15  C   UNL     1      -2.724  -3.008  28.043  0.00  0.00    +0.000 A 
ATOM     16  C   UNL     1      -1.716  -2.309  27.355  0.00  0.00    +0.000 A 
ATOM     17  C   UNL     1      -0.581  -1.893  28.038  0.00  0.00    +0.000 A 
ATOM     18  O   UNL     1       0.249  -1.231  27.116  0.00  0.00    +0.000 OA
ATOM     19  C   UNL     1      -0.099  -1.780  25.838  0.00  0.00    +0.000 C 
ATOM     20  O   UNL     1      -1.526  -1.878  26.040  0.00  0.00    +0.000 OA
ATOM     21  C   UNL     1      -0.463  -2.172  29.374  0.00  0.00    +0.000 A 
ATOM     22  C   UNL     1      -1.467  -2.860  30.031  0.00  0.00    +0.000 A 
ENDBRANCH  13  14
ENDBRANCH  11  13
ENDBRANCH   2  11
BRANCH   1  23
ATOM     23  C   UNL     1      -0.515  -5.824  30.985  0.00  0.00    +0.000 C 
BRANCH  23  26
ATOM     24  C   UNL     1       0.801  -5.737  28.965  0.00  0.00    +0.000 C 
ATOM     25  O   UNL     1      -0.252  -5.684  28.309  0.00  0.00    +0.000 OA
ATOM     26  N   UNL     1       0.721  -6.097  30.356  0.00  0.00    +0.000 N 
ATOM     27  C   UNL     1       1.873  -6.585  31.036  0.00  0.00    +0.000 C 
BRANCH  24  28
ATOM     28  C   UNL     1       2.097  -5.412  28.364  0.00  0.00    +0.000 A 
ATOM     29  C   UNL     1       2.539  -4.100  28.241  0.00  0.00    +0.000 A 
ATOM     30  N   UNL     1       3.728  -4.134  27.597  0.00  0.00    +0.000 N 
ATOM     31  N   UNL     1       4.029  -5.393  27.327  0.00  0.00    +0.000 NA
ATOM     32  C   UNL     1       3.014  -6.209  27.800  0.00  0.00    +0.000 A 
BRANCH  30  33
ATOM     33  C   UNL     1       4.445  -2.920  27.289  0.00  0.00    +0.000 C 
ATOM     34  C   UNL     1       5.639  -3.221  26.441  0.00  0.00    +0.000 C 
ATOM     35  C   UNL     1       6.447  -1.959  26.182  0.00  0.00    +0.000 C 
ATOM     36  N   UNL     1       5.695  -0.997  25.415  0.00  0.00    +0.000 NA
ATOM     37  C   UNL     1       4.759  -1.593  24.488  0.00  0.00    +0.000 C 
ATOM     38  C   UNL     1       3.453  -1.901  25.190  0.00  0.00    +0.000 C 
ATOM     39  C   UNL     1       3.599  -1.842  26.680  0.00  0.00    +0.000 C 
ATOM     40  H   UNL     1       6.384  -0.432  24.850  0.00  0.00    +0.000 HD
ENDBRANCH  30  33
ENDBRANCH  24  28
ENDBRANCH  23  26
ENDBRANCH   1  23
TORSDOF 7
ENDMDL
