MODEL 1
REMARK VINA RESULT:    -8.070      0.000      0.000
REMARK INTER + INTRA:         -11.299
REMARK INTER:                 -10.901
REMARK INTRA:                  -0.399
REMARK UNBOUND:                -0.399
REMARK  Name = 
REMARK  8 active torsions:
REMARK  status: ('A' for Active; 'I' for Inactive)
REMARK    1  A    between atoms: C_1  and  N_16
REMARK    2  A    between atoms: C_2  and  O_15
REMARK    3  A    between atoms: C_3  and  O_7
REMARK    4  A    between atoms: C_5  and  N_6
REMARK    5  A    between atoms: O_7  and  C_8
REMARK    6  A    between atoms: N_16  and  C_17
REMARK    7  A    between atoms: N_16  and  C_24
REMARK    8  A    between atoms: C_17  and  C_18
REMARK                            x       y       z     vdW  Elec       q    Type
REMARK                         _______ _______ _______ _____ _____    ______ ____
ROOT
ATOM      1  C   UNL     1      -3.115  -5.374  31.653  0.00  0.00    +0.000 C 
ATOM      2  C   UNL     1      -4.159  -4.806  32.628  0.00  0.00    +0.000 C 
ATOM      3  C   UNL     1      -4.193  -3.368  32.162  0.00  0.00    +0.000 C 
ATOM      4  C   UNL     1      -3.943  -3.418  30.651  0.00  0.00    +0.000 C 
ATOM      5  C   UNL     1      -3.746  -4.886  30.350  0.00  0.00    +0.000 C 
ENDROOT
BRANCH   5   6
ATOM      6  N   UNL     1      -2.856  -5.061  29.219  0.00  0.00    +0.000 NA
ATOM      7  H   UNL     1      -1.869  -5.244  29.506  0.00  0.00    +0.000 HD
ATOM      8  H   UNL     1      -2.964  -4.216  28.615  0.00  0.00    +0.000 HD
ENDBRANCH   5   6
BRANCH   2   9
ATOM      9  O   UNL     1      -3.664  -4.782  33.936  0.00  0.00    +0.000 OA
ATOM     10  H   UNL     1      -4.381  -5.021  34.564  0.00  0.00    +0.000 HD
ENDBRANCH   2   9
BRANCH   1  11
ATOM     11  N   UNL     1      -3.054  -6.807  31.726  0.00  0.00    +0.000 NA
ATOM     12  C   UNL     1      -4.373  -7.373  31.847  0.00  0.00    +0.000 C 
BRANCH  11  13
ATOM     13  C   UNL     1      -2.279  -7.202  32.877  0.00  0.00    +0.000 C 
BRANCH  13  14
ATOM     14  C   UNL     1      -0.818  -7.071  32.658  0.00  0.00    +0.000 A 
ATOM     15  C   UNL     1       0.054  -7.062  33.725  0.00  0.00    +0.000 A 
ATOM     16  C   UNL     1       1.419  -6.944  33.534  0.00  0.00    +0.000 A 
ATOM     17  C   UNL     1       1.965  -6.831  32.274  0.00  0.00    +0.000 A 
ATOM     18  C   UNL     1       1.092  -6.840  31.196  0.00  0.00    +0.000 A 
ATOM     19  C   UNL     1      -0.268  -6.959  31.398  0.00  0.00    +0.000 A 
ENDBRANCH  13  14
ENDBRANCH  11  13
ENDBRANCH   1  11
BRANCH   3  20
ATOM     20  O   UNL     1      -5.205  -2.604  32.468  0.00  0.00    +0.000 OA
BRANCH  20  21
ATOM     21  C   UNL     1      -6.358  -2.017  32.348  0.00  0.00    +0.000 A 
ATOM     22  C   UNL     1      -6.569  -0.696  32.031  0.00  0.00    +0.000 A 
ATOM     23 CL   UNL     1      -5.229   0.383  31.730  0.00  0.00    +0.000 Cl
ATOM     24  C   UNL     1      -7.835  -0.125  31.916  0.00  0.00    +0.000 A 
ATOM     25  C   UNL     1      -8.933  -0.894  32.123  0.00  0.00    +0.000 A 
ATOM     26  C   UNL     1      -8.790  -2.231  32.444  0.00  0.00    +0.000 A 
ATOM     27  C   UNL     1      -7.544  -2.765  32.551  0.00  0.00    +0.000 A 
ENDBRANCH  20  21
ENDBRANCH   3  20
TORSDOF 7
ENDMDL
