MODEL 1
REMARK VINA RESULT:    -7.101      0.000      0.000
REMARK INTER + INTRA:          -8.280
REMARK INTER:                  -8.969
REMARK INTRA:                   0.689
REMARK UNBOUND:                 0.689
REMARK  Name = =
REMARK  5 active torsions:
REMARK  status: ('A' for Active; 'I' for Inactive)
REMARK    1  A    between atoms: C_1  and  C_22
REMARK    2  A    between atoms: C_1  and  C_32
REMARK    3  A    between atoms: C_20  and  C_24
REMARK    4  A    between atoms: C_27  and  O_31
REMARK    5  A    between atoms: C_32  and  N_33
REMARK                            x       y       z     vdW  Elec       q    Type
REMARK                         _______ _______ _______ _____ _____    ______ ____
ROOT
ATOM      1  C   UNL     1      59.719 161.645  40.449  0.00  0.00    +0.105 C 
ATOM      2  C   UNL     1      61.192 161.556  40.318  0.00  0.00    -0.014 C 
ATOM      3  C   UNL     1      61.795 161.532  39.109  0.00  0.00    -0.022 C 
ATOM      4  C   UNL     1      63.204 161.442  39.089  0.00  0.00    +0.036 C 
ATOM      5  C   UNL     1      63.958 161.379  40.238  0.00  0.00    +0.176 C 
ATOM      6  C   UNL     1      63.281 161.410  41.435  0.00  0.00    +0.176 C 
ATOM      7  C   UNL     1      61.922 161.498  41.528  0.00  0.00    +0.036 C 
ATOM      8  O   UNL     1      64.202 161.340  42.498  0.00  0.00    -0.435 OA
ATOM      9  C   UNL     1      65.461 161.041  41.928  0.00  0.00    +0.429 C 
ATOM     10  O   UNL     1      65.314 161.289  40.523  0.00  0.00    -0.435 OA
ATOM     11  C   UNL     1      61.115 161.627  37.765  0.00  0.00    +0.029 C 
ATOM     12  C   UNL     1      59.681 162.067  37.942  0.00  0.00    +0.037 C 
ATOM     13  C   UNL     1      59.055 161.493  39.165  0.00  0.00    +0.046 C 
ATOM     14  C   UNL     1      58.771 160.066  38.730  0.00  0.00    +0.143 C 
ATOM     15  O   UNL     1      58.499 160.128  37.389  0.00  0.00    -0.354 OA
ATOM     16  C   UNL     1      58.826 161.345  36.868  0.00  0.00    +0.143 C 
ENDROOT
BRANCH   1  22
ATOM     17  N   UNL     1      57.821 160.727  41.859  0.00  0.00    -0.279 N 
ATOM     18  C   UNL     1      57.241 159.910  42.901  0.00  0.00    +0.094 C 
ATOM     19  C   UNL     1      55.955 159.448  42.264  0.00  0.00    +0.028 C 
ATOM     20  C   UNL     1      55.630 160.461  41.194  0.00  0.00    +0.044 C 
ATOM     21  C   UNL     1      56.757 161.486  41.306  0.00  0.00    +0.098 C 
ATOM     22  C   UNL     1      59.170 160.743  41.486  0.00  0.00    +0.230 C 
ATOM     23  O   UNL     1      59.910 159.910  42.120  0.00  0.00    -0.275 OA
BRANCH  20  24
ATOM     24  C   UNL     1      54.315 161.061  41.479  0.00  0.00    -0.020 C 
ATOM     25  C   UNL     1      53.240 160.329  41.921  0.00  0.00    +0.006 C 
ATOM     26  C   UNL     1      52.013 160.941  42.177  0.00  0.00    +0.068 C 
ATOM     27  C   UNL     1      51.860 162.293  41.989  0.00  0.00    +0.140 C 
ATOM     28  C   UNL     1      52.923 163.036  41.548  0.00  0.00    +0.037 C 
ATOM     29  C   UNL     1      54.137 162.410  41.299  0.00  0.00    -0.001 C 
ATOM     30 BR   UNL     1      50.524 159.930  42.789  0.00  0.00    -0.046 Br
BRANCH  27  31
ATOM     31  O   UNL     1      50.637 162.940  42.237  0.00  0.00    -0.505 OA
ATOM     32  H   UNL     1      50.226 162.859  43.076  0.00  0.00    +0.292 HD
ENDBRANCH  27  31
ENDBRANCH  20  24
ENDBRANCH   1  22
BRANCH   1  33
ATOM     33  C   UNL     1      59.484 163.066  40.964  0.00  0.00    +0.085 C 
BRANCH  33  34
ATOM     34  N   UNL     1      58.814 163.895  39.989  0.00  0.00    -0.270 NA
ATOM     35  C   UNL     1      59.420 165.211  39.867  0.00  0.00    +0.090 C 
ATOM     36  C   UNL     1      58.032 165.033  40.406  0.00  0.00    +0.090 C 
ENDBRANCH  33  34
ENDBRANCH   1  33
TORSDOF 5
ENDMDL
