MODEL 1
REMARK VINA RESULT:    -7.761      0.000      0.000
REMARK INTER + INTRA:         -12.860
REMARK INTER:                 -11.845
REMARK INTRA:                  -1.015
REMARK UNBOUND:                -1.015
REMARK  Name = =
REMARK  10 active torsions:
REMARK  status: ('A' for Active; 'I' for Inactive)
REMARK    1  A    between atoms: N_1  and  S_9
REMARK    2  A    between atoms: N_8  and  O_13
REMARK    3  A    between atoms: S_9  and  N_12
REMARK    4  A    between atoms: O_13  and  C_14
REMARK    5  A    between atoms: C_14  and  O_15
REMARK    6  A    between atoms: C_14  and  C_16
REMARK    7  A    between atoms: C_16  and  C_17
REMARK    8  A    between atoms: C_17  and  O_19
REMARK    9  A    between atoms: O_19  and  C_20
REMARK   10  A    between atoms: C_21  and  N_22
REMARK                            x       y       z     vdW  Elec       q    Type
REMARK                         _______ _______ _______ _____ _____    ______ ____
ROOT
ATOM      1  N   UNL     1      53.184 160.662  30.322  0.00  0.00    -0.187 N 
ATOM      2  C   UNL     1      51.910 160.621  30.943  0.00  0.00    +0.184 C 
ATOM      3  N   UNL     1      51.517 161.636  31.759  0.00  0.00    -0.223 NA
ATOM      4  C   UNL     1      50.325 161.638  32.365  0.00  0.00    +0.121 C 
ATOM      5  C   UNL     1      49.485 160.574  32.144  0.00  0.00    +0.121 C 
ATOM      6  N   UNL     1      49.841 159.558  31.345  0.00  0.00    -0.221 NA
ATOM      7  C   UNL     1      51.064 159.565  30.730  0.00  0.00    +0.193 C 
ATOM      8  N   UNL     1      51.436 158.487  29.885  0.00  0.00    -0.242 N 
ATOM      9  H   UNL     1      53.493 159.941  29.727  0.00  0.00    +0.176 HD
ATOM     10  H   UNL     1      52.315 158.495  29.443  0.00  0.00    +0.196 HD
ENDROOT
BRANCH   1  11
ATOM     11  S   UNL     1      54.178 162.059  30.667  0.00  0.00    +0.108 S 
ATOM     12  O   UNL     1      53.371 163.267  30.336  0.00  0.00    -0.138 OA
ATOM     13  O   UNL     1      55.424 162.018  29.830  0.00  0.00    -0.138 OA
BRANCH  11  14
ATOM     14  N   UNL     1      54.514 162.046  32.339  0.00  0.00    -0.191 NA
ATOM     15  H   UNL     1      55.232 161.348  32.536  0.00  0.00    +0.146 HD
ATOM     16  H   UNL     1      53.666 161.816  32.854  0.00  0.00    +0.146 HD
ENDBRANCH  11  14
ENDBRANCH   1  11
BRANCH   8  17
ATOM     17  O   UNL     1      50.582 157.435  29.678  0.00  0.00    -0.231 OA
BRANCH  17  18
ATOM     18  C   UNL     1      51.282 156.259  29.457  0.00  0.00    +0.269 C 
BRANCH  18  19
ATOM     19  O   UNL     1      50.484 155.287  28.839  0.00  0.00    -0.358 OA
ATOM     20  H   UNL     1      50.726 155.219  27.902  0.00  0.00    +0.213 HD
ENDBRANCH  18  19
BRANCH  18  21
ATOM     21  C   UNL     1      52.418 156.553  28.500  0.00  0.00    +0.173 C 
BRANCH  21  22
ATOM     22  C   UNL     1      52.688 155.337  27.679  0.00  0.00    +0.327 C 
ATOM     23  O   UNL     1      53.173 154.308  28.215  0.00  0.00    -0.250 OA
BRANCH  22  24
ATOM     24  O   UNL     1      52.424 155.288  26.322  0.00  0.00    -0.419 OA
BRANCH  24  25
ATOM     25  C   UNL     1      53.277 155.975  25.433  0.00  0.00    +0.199 C 
ATOM     26  C   UNL     1      54.342 155.353  24.980  0.00  0.00    +0.106 C 
BRANCH  26  27
ATOM     27  N   UNL     1      54.669 154.024  25.345  0.00  0.00    -0.273 N 
ATOM     28  C   UNL     1      54.501 152.954  24.424  0.00  0.00    +0.304 C 
ATOM     29  O   UNL     1      54.053 153.191  23.258  0.00  0.00    -0.265 OA
ATOM     30  H   UNL     1      55.017 153.838  26.247  0.00  0.00    +0.155 HD
ENDBRANCH  26  27
ENDBRANCH  24  25
ENDBRANCH  22  24
ENDBRANCH  21  22
ENDBRANCH  18  21
ENDBRANCH  17  18
ENDBRANCH   8  17
TORSDOF 10
ENDMDL
