MODEL 1
REMARK VINA RESULT:   -10.366      0.000      0.000
REMARK INTER + INTRA:         -17.350
REMARK INTER:                 -16.123
REMARK INTRA:                  -1.227
REMARK UNBOUND:                -1.227
REMARK  Name = =
REMARK  11 active torsions:
REMARK  status: ('A' for Active; 'I' for Inactive)
REMARK    1  A    between atoms: C_1  and  N_27
REMARK    2  A    between atoms: C_3  and  C_8
REMARK    3  A    between atoms: C_19  and  O_22
REMARK    4  A    between atoms: O_22  and  P_23
REMARK    5  A    between atoms: P_23  and  O_25
REMARK    6  A    between atoms: P_23  and  O_26
REMARK    7  A    between atoms: N_27  and  C_28
REMARK    8  A    between atoms: C_31  and  C_34
REMARK    9  A    between atoms: C_32  and  O_37
REMARK   10  A    between atoms: O_37  and  C_38
REMARK   11  A    between atoms: N_40  and  N_41
REMARK                            x       y       z     vdW  Elec       q    Type
REMARK                         _______ _______ _______ _____ _____    ______ ____
ROOT
ATOM      1  C   UNL     1      -0.844  -3.526  28.688  0.00  0.00    +0.214 C 
ATOM      2  O   UNL     1      -0.627  -4.289  29.818  0.00  0.00    -0.324 OA
ATOM      3  C   UNL     1      -0.718  -5.665  29.566  0.00  0.00    +0.201 C 
ATOM      4  C   UNL     1       0.292  -6.069  28.535  0.00  0.00    +0.204 C 
ATOM      5  O   UNL     1       1.004  -7.104  28.631  0.00  0.00    -0.288 OA
ATOM      6  C   UNL     1       0.417  -5.187  27.384  0.00  0.00    +0.040 C 
ATOM      7  C   UNL     1      -0.138  -3.991  27.501  0.00  0.00    +0.027 C 
ENDROOT
BRANCH   3   8
ATOM      8  C   UNL     1      -0.447  -6.323  30.861  0.00  0.00    +0.012 C 
ATOM      9  C   UNL     1       0.674  -6.001  31.593  0.00  0.00    -0.001 C 
ATOM     10  C   UNL     1       0.887  -6.654  32.798  0.00  0.00    +0.003 C 
ATOM     11  C   UNL     1      -0.003  -7.601  33.248  0.00  0.00    +0.000 C 
ATOM     12  C   UNL     1      -1.130  -7.945  32.540  0.00  0.00    -0.000 C 
ATOM     13  C   UNL     1      -1.353  -7.293  31.325  0.00  0.00    -0.001 C 
ATOM     14  C   UNL     1      -2.447  -7.645  30.600  0.00  0.00    -0.000 C 
ATOM     15  C   UNL     1      -3.303  -8.624  31.079  0.00  0.00    -0.000 C 
ATOM     16  C   UNL     1      -3.096  -9.273  32.281  0.00  0.00    -0.000 C 
ATOM     17  C   UNL     1      -1.999  -8.919  32.999  0.00  0.00    -0.000 C 
ATOM     18  C   UNL     1       2.017  -6.323  33.523  0.00  0.00    +0.037 C 
ATOM     19  C   UNL     1       2.941  -5.386  33.128  0.00  0.00    +0.149 C 
ATOM     20  C   UNL     1       2.715  -4.748  31.931  0.00  0.00    +0.037 C 
ATOM     21  C   UNL     1       1.573  -5.060  31.163  0.00  0.00    +0.003 C 
BRANCH  19  22
ATOM     22  O   UNL     1       4.068  -5.092  33.907  0.00  0.00    -0.403 OA
BRANCH  22  23
ATOM     23  P   UNL     1       3.925  -3.955  35.192  0.00  0.00    +0.528 P 
ATOM     24  O   UNL     1       5.306  -3.340  35.419  0.00  0.00    -0.216 OA
BRANCH  23  25
ATOM     25  O   UNL     1       3.459  -4.730  36.611  0.00  0.00    -0.293 OA
ATOM     26  H   UNL     1       3.538  -5.690  36.495  0.00  0.00    +0.223 HD
ENDBRANCH  23  25
BRANCH  23  27
ATOM     27  O   UNL     1       2.885  -2.707  34.767  0.00  0.00    -0.293 OA
ATOM     28  H   UNL     1       2.889  -2.032  35.463  0.00  0.00    +0.223 HD
ENDBRANCH  23  27
ENDBRANCH  22  23
ENDBRANCH  19  22
ENDBRANCH   3   8
BRANCH   1  29
ATOM     29  N   UNL     1      -2.257  -3.417  28.429  0.00  0.00    -0.308 N 
ATOM     30  H   UNL     1      -2.588  -3.441  27.502  0.00  0.00    +0.149 HD
BRANCH  29  31
ATOM     31  C   UNL     1      -3.177  -3.274  29.505  0.00  0.00    +0.050 C 
ATOM     32  C   UNL     1      -3.835  -4.381  29.978  0.00  0.00    +0.015 C 
ATOM     33  C   UNL     1      -4.737  -4.248  31.029  0.00  0.00    +0.009 C 
ATOM     34  C   UNL     1      -4.963  -2.988  31.591  0.00  0.00    +0.088 C 
ATOM     35  C   UNL     1      -4.304  -1.872  31.119  0.00  0.00    +0.156 C 
ATOM     36  C   UNL     1      -3.413  -2.038  30.073  0.00  0.00    +0.052 C 
BRANCH  34  37
ATOM     37  C   UNL     1      -5.901  -2.832  32.689  0.00  0.00    +0.246 C 
ATOM     38  O   UNL     1      -7.123  -2.668  32.471  0.00  0.00    -0.270 OA
ATOM     39  N   UNL     1      -5.410  -2.866  34.014  0.00  0.00    -0.325 N 
ATOM     40  H   UNL     1      -4.449  -2.995  34.179  0.00  0.00    +0.145 HD
ATOM     41  H   UNL     1      -6.030  -2.760  34.771  0.00  0.00    +0.145 HD
ENDBRANCH  34  37
BRANCH  35  42
ATOM     42  O   UNL     1      -4.567  -0.647  31.714  0.00  0.00    -0.409 OA
BRANCH  42  43
ATOM     43  C   UNL     1      -5.368   0.299  31.088  0.00  0.00    +0.419 C 
ATOM     44  O   UNL     1      -4.816   1.083  30.280  0.00  0.00    -0.225 OA
ATOM     45  N   UNL     1      -6.748   0.324  31.396  0.00  0.00    -0.219 N 
ATOM     46  H   UNL     1      -7.127  -0.317  32.040  0.00  0.00    +0.172 HD
BRANCH  45  47
ATOM     47  N   UNL     1      -7.571   1.278  30.770  0.00  0.00    -0.252 NA
ATOM     48  H   UNL     1      -7.860   0.930  29.856  0.00  0.00    +0.141 HD
ATOM     49  H   UNL     1      -7.054   2.149  30.654  0.00  0.00    +0.141 HD
ENDBRANCH  45  47
ENDBRANCH  42  43
ENDBRANCH  35  42
ENDBRANCH  29  31
ENDBRANCH   1  29
TORSDOF 11
ENDMDL
