REMARK  Name = =
REMARK  11 active torsions:
REMARK  status: ('A' for Active; 'I' for Inactive)
REMARK    1  A    between atoms: C_1  and  N_27
REMARK    2  A    between atoms: C_3  and  C_8
REMARK    3  A    between atoms: C_19  and  O_22
REMARK    4  A    between atoms: O_22  and  P_23
REMARK    5  A    between atoms: P_23  and  O_25
REMARK    6  A    between atoms: P_23  and  O_26
REMARK    7  A    between atoms: N_27  and  C_28
REMARK    8  A    between atoms: C_31  and  C_34
REMARK    9  A    between atoms: C_32  and  O_37
REMARK   10  A    between atoms: O_37  and  C_38
REMARK   11  A    between atoms: N_40  and  N_41
REMARK                            x       y       z     vdW  Elec       q    Type
REMARK                         _______ _______ _______ _____ _____    ______ ____
ROOT
ATOM      1  C   UNL     1      -2.521  -1.110  23.450  0.00  0.00    +0.214 C 
ATOM      2  O   UNL     1      -2.463  -2.136  22.529  0.00  0.00    -0.324 OA
ATOM      3  C   UNL     1      -3.729  -2.645  22.208  0.00  0.00    +0.201 C 
ATOM      4  C   UNL     1      -4.592  -1.561  21.636  0.00  0.00    +0.204 C 
ATOM      5  O   UNL     1      -5.326  -1.720  20.625  0.00  0.00    -0.288 OA
ATOM      6  C   UNL     1      -4.543  -0.278  22.324  0.00  0.00    +0.040 C 
ATOM      7  C   UNL     1      -3.544  -0.109  23.175  0.00  0.00    +0.027 C 
ENDROOT
BRANCH   3   8
ATOM      8  C   UNL     1      -3.486  -3.710  21.212  0.00  0.00    +0.012 C 
ATOM      9  C   UNL     1      -2.454  -3.605  20.307  0.00  0.00    -0.001 C 
ATOM     10  C   UNL     1      -2.274  -4.627  19.387  0.00  0.00    +0.003 C 
ATOM     11  C   UNL     1      -3.111  -5.719  19.382  0.00  0.00    +0.000 C 
ATOM     12  C   UNL     1      -4.151  -5.852  20.271  0.00  0.00    -0.000 C 
ATOM     13  C   UNL     1      -4.340  -4.827  21.201  0.00  0.00    -0.001 C 
ATOM     14  C   UNL     1      -5.383  -4.931  22.066  0.00  0.00    -0.000 C 
ATOM     15  C   UNL     1      -6.217  -6.036  22.007  0.00  0.00    -0.000 C 
ATOM     16  C   UNL     1      -6.037  -7.058  21.095  0.00  0.00    -0.000 C 
ATOM     17  C   UNL     1      -4.996  -6.947  20.231  0.00  0.00    -0.000 C 
ATOM     18  C   UNL     1      -1.234  -4.510  18.483  0.00  0.00    +0.037 C 
ATOM     19  C   UNL     1      -0.366  -3.446  18.439  0.00  0.00    +0.149 C 
ATOM     20  C   UNL     1      -0.558  -2.441  19.358  0.00  0.00    +0.037 C 
ATOM     21  C   UNL     1      -1.608  -2.526  20.296  0.00  0.00    +0.003 C 
BRANCH  19  22
ATOM     22  O   UNL     1       0.671  -3.383  17.499  0.00  0.00    -0.403 OA
BRANCH  22  23
ATOM     23  P   UNL     1       2.303  -3.383  18.050  0.00  0.00    +0.528 P 
ATOM     24  O   UNL     1       2.615  -1.978  18.566  0.00  0.00    -0.216 OA
BRANCH  23  25
ATOM     25  O   UNL     1       3.351  -3.716  16.777  0.00  0.00    -0.293 OA
ATOM     26  H   UNL     1       3.202  -3.079  16.061  0.00  0.00    +0.223 HD
ENDBRANCH  23  25
BRANCH  23  27
ATOM     27  O   UNL     1       2.494  -4.443  19.338  0.00  0.00    -0.293 OA
ATOM     28  H   UNL     1       1.870  -4.210  20.043  0.00  0.00    +0.223 HD
ENDBRANCH  23  27
ENDBRANCH  22  23
ENDBRANCH  19  22
ENDBRANCH   3   8
BRANCH   1  29
ATOM     29  N   UNL     1      -2.677  -1.645  24.778  0.00  0.00    -0.308 N 
ATOM     30  H   UNL     1      -3.551  -1.996  25.065  0.00  0.00    +0.149 HD
BRANCH  29  31
ATOM     31  C   UNL     1      -1.575  -1.669  25.678  0.00  0.00    +0.050 C 
ATOM     32  C   UNL     1      -1.803  -1.530  27.024  0.00  0.00    +0.015 C 
ATOM     33  C   UNL     1      -0.730  -1.551  27.908  0.00  0.00    +0.009 C 
ATOM     34  C   UNL     1       0.569  -1.713  27.417  0.00  0.00    +0.088 C 
ATOM     35  C   UNL     1       0.803  -1.853  26.065  0.00  0.00    +0.156 C 
ATOM     36  C   UNL     1      -0.285  -1.828  25.211  0.00  0.00    +0.052 C 
BRANCH  34  37
ATOM     37  C   UNL     1       1.700  -1.737  28.328  0.00  0.00    +0.246 C 
ATOM     38  O   UNL     1       2.214  -0.673  28.742  0.00  0.00    -0.270 OA
ATOM     39  N   UNL     1       2.216  -2.987  28.739  0.00  0.00    -0.325 N 
ATOM     40  H   UNL     1       1.808  -3.820  28.410  0.00  0.00    +0.145 HD
ATOM     41  H   UNL     1       2.984  -3.024  29.354  0.00  0.00    +0.145 HD
ENDBRANCH  34  37
BRANCH  35  42
ATOM     42  O   UNL     1       2.112  -2.010  25.633  0.00  0.00    -0.409 OA
BRANCH  42  43
ATOM     43  C   UNL     1       2.490  -3.104  24.866  0.00  0.00    +0.419 C 
ATOM     44  O   UNL     1       2.358  -3.013  23.622  0.00  0.00    -0.225 OA
ATOM     45  N   UNL     1       2.997  -4.247  25.525  0.00  0.00    -0.219 N 
ATOM     46  H   UNL     1       3.079  -4.262  26.506  0.00  0.00    +0.172 HD
BRANCH  45  47
ATOM     47  N   UNL     1       3.383  -5.363  24.760  0.00  0.00    -0.252 NA
ATOM     48  H   UNL     1       3.228  -5.167  23.771  0.00  0.00    +0.141 HD
ATOM     49  H   UNL     1       2.829  -6.173  25.037  0.00  0.00    +0.141 HD
ENDBRANCH  45  47
ENDBRANCH  42  43
ENDBRANCH  35  42
ENDBRANCH  29  31
ENDBRANCH   1  29
TORSDOF 11
