MODEL 1
REMARK VINA RESULT:    -5.709      0.000      0.000
REMARK INTER + INTRA:         -11.496
REMARK INTER:                  -9.381
REMARK INTRA:                  -2.115
REMARK UNBOUND:                -2.115
REMARK  Name = =
REMARK  13 active torsions:
REMARK  status: ('A' for Active; 'I' for Inactive)
REMARK    1  A    between atoms: N_1  and  C_3
REMARK    2  A    between atoms: N_1  and  N_14
REMARK    3  A    between atoms: N_1  and  P_32
REMARK    4  A    between atoms: C_2  and  N_8
REMARK    5  A    between atoms: C_6  and  C_11
REMARK    6  A    between atoms: C_11  and  O_13
REMARK    7  A    between atoms: N_14  and  N_17
REMARK    8  A    between atoms: C_15  and  C_22
REMARK    9  A    between atoms: N_17  and  O_21
REMARK   10  A    between atoms: C_22  and  O_24
REMARK   11  A    between atoms: O_24  and  C_25
REMARK   12  A    between atoms: P_32  and  N_34
REMARK   13  A    between atoms: P_32  and  N_35
REMARK                            x       y       z     vdW  Elec       q    Type
REMARK                         _______ _______ _______ _____ _____    ______ ____
ROOT
ATOM      1  N   UNL     1      60.076 161.264  41.181  0.00  0.00    -0.093 NA
ENDROOT
BRANCH   1   3
ATOM      2  C   UNL     1      57.956 160.396  40.547  0.00  0.00    +0.156 C 
ATOM      3  C   UNL     1      58.661 161.064  41.423  0.00  0.00    +0.203 C 
ATOM      4  N   UNL     1      58.094 161.602  42.602  0.00  0.00    -0.314 N 
ATOM      5  C   UNL     1      56.708 161.380  42.794  0.00  0.00    +0.066 C 
ATOM      6  C   UNL     1      55.969 160.714  41.936  0.00  0.00    +0.091 C 
ATOM      7  C   UNL     1      56.518 160.144  40.710  0.00  0.00    +0.031 C 
ATOM      8  H   UNL     1      58.633 162.104  43.255  0.00  0.00    +0.148 HD
BRANCH   2   9
ATOM      9  N   UNL     1      58.616 159.871  39.351  0.00  0.00    +0.057 N 
ATOM     10  O   UNL     1      58.423 160.546  38.175  0.00  0.00    -0.126 OA
ATOM     11  O   UNL     1      59.315 158.867  39.372  0.00  0.00    -0.126 OA
ENDBRANCH   2   9
BRANCH   6  12
ATOM     12  C   UNL     1      54.524 160.504  42.173  0.00  0.00    +0.339 C 
ATOM     13  O   UNL     1      53.977 159.541  41.584  0.00  0.00    -0.245 OA
BRANCH  12  14
ATOM     14  O   UNL     1      53.785 161.320  43.006  0.00  0.00    -0.477 OA
ATOM     15  H   UNL     1      52.868 161.436  42.856  0.00  0.00    +0.295 HD
ENDBRANCH  12  14
ENDBRANCH   6  12
ENDBRANCH   1   3
BRANCH   1  16
ATOM     16  N   UNL     1      60.493 162.238  40.296  0.00  0.00    -0.099 N 
ATOM     17  C   UNL     1      59.937 163.547  40.310  0.00  0.00    +0.357 C 
ATOM     18  O   UNL     1      59.032 163.864  41.133  0.00  0.00    -0.260 OA
BRANCH  16  19
ATOM     19  N   UNL     1      61.476 161.959  39.346  0.00  0.00    -0.058 N 
ATOM     20  C   UNL     1      62.840 162.288  39.525  0.00  0.00    +0.342 C 
ATOM     21  O   UNL     1      63.272 162.858  40.557  0.00  0.00    -0.249 OA
ATOM     22  N   UNL     1      63.793 161.978  38.522  0.00  0.00    -0.310 N 
ATOM     23  H   UNL     1      63.507 161.531  37.692  0.00  0.00    +0.147 HD
ATOM     24  H   UNL     1      64.741 162.211  38.654  0.00  0.00    +0.147 HD
BRANCH  19  25
ATOM     25  O   UNL     1      61.079 161.345  38.211  0.00  0.00    -0.273 OA
ATOM     26  H   UNL     1      61.833 160.884  37.811  0.00  0.00    +0.244 HD
ENDBRANCH  19  25
ENDBRANCH  16  19
BRANCH  17  27
ATOM     27  C   UNL     1      60.380 164.580  39.380  0.00  0.00    +0.399 C 
ATOM     28  O   UNL     1      61.347 165.337  39.693  0.00  0.00    -0.240 OA
BRANCH  27  29
ATOM     29  O   UNL     1      59.816 164.817  38.145  0.00  0.00    -0.442 OA
BRANCH  29  30
ATOM     30  C   UNL     1      60.465 164.509  36.962  0.00  0.00    +0.188 C 
ATOM     31  C   UNL     1      61.417 165.666  36.637  0.00  0.00    +0.048 C 
ATOM     32  C   UNL     1      60.707 166.769  35.917  0.00  0.00    +0.004 C 
ATOM     33  C   UNL     1      60.020 166.354  34.661  0.00  0.00    +0.005 C 
ATOM     34  C   UNL     1      59.156 165.145  34.785  0.00  0.00    +0.026 C 
ATOM     35  C   UNL     1      59.597 164.188  35.826  0.00  0.00    -0.005 C 
ATOM     36  C   UNL     1      59.159 162.944  35.692  0.00  0.00    -0.006 C 
ENDBRANCH  29  30
ENDBRANCH  27  29
ENDBRANCH  17  27
ENDBRANCH   1  16
BRANCH   1  37
ATOM     37  P   UNL     1      61.202 160.239  42.027  0.00  0.00    +0.298 P 
ATOM     38  O   UNL     1      60.405 159.402  43.034  0.00  0.00    -0.268 OA
BRANCH  37  39
ATOM     39  N   UNL     1      61.983 159.110  40.940  0.00  0.00    -0.255 NA
ATOM     40  H   UNL     1      62.281 159.600  40.097  0.00  0.00    +0.128 HD
ATOM     41  H   UNL     1      61.326 158.370  40.690  0.00  0.00    +0.128 HD
ENDBRANCH  37  39
BRANCH  37  42
ATOM     42  N   UNL     1      62.386 161.165  42.912  0.00  0.00    -0.255 NA
ATOM     43  H   UNL     1      61.937 161.979  43.332  0.00  0.00    +0.128 HD
ATOM     44  H   UNL     1      63.122 161.472  42.277  0.00  0.00    +0.128 HD
ENDBRANCH  37  42
ENDBRANCH   1  37
TORSDOF 13
ENDMDL
