MODEL 1
REMARK VINA RESULT:    -6.183      0.000      0.000
REMARK INTER + INTRA:          -8.032
REMARK INTER:                  -7.810
REMARK INTRA:                  -0.222
REMARK UNBOUND:                -0.222
REMARK  Name = =
REMARK  5 active torsions:
REMARK  status: ('A' for Active; 'I' for Inactive)
REMARK    1  A    between atoms: C_1  and  N_8
REMARK    2  A    between atoms: C_2  and  C_17
REMARK    3  A    between atoms: C_4  and  O_21
REMARK    4  A    between atoms: N_11  and  S_14
REMARK    5  A    between atoms: C_18  and  C_19
REMARK                            x       y       z     vdW  Elec       q    Type
REMARK                         _______ _______ _______ _____ _____    ______ ____
ROOT
ATOM      1  C   UNL     1      52.183 162.816  41.909  0.00  0.00    +0.060 C 
ATOM      2  C   UNL     1      50.916 162.190  41.947  0.00  0.00    +0.023 C 
ATOM      3  C   UNL     1      50.856 160.830  42.058  0.00  0.00    +0.069 C 
ATOM      4  C   UNL     1      52.004 160.047  42.136  0.00  0.00    +0.140 C 
ATOM      5  C   UNL     1      53.234 160.654  42.097  0.00  0.00    +0.038 C 
ATOM      6  C   UNL     1      53.295 162.021  41.985  0.00  0.00    +0.018 C 
ATOM      7 BR   UNL     1      49.204 159.841  42.124  0.00  0.00    -0.046 Br
ENDROOT
BRANCH   1   8
ATOM      8  N   UNL     1      52.263 164.233  41.791  0.00  0.00    -0.218 N 
ATOM      9  C   UNL     1      51.900 165.186  42.670  0.00  0.00    +0.092 C 
ATOM     10  C   UNL     1      52.158 166.448  42.139  0.00  0.00    +0.109 C 
ATOM     11  N   UNL     1      52.684 166.222  40.922  0.00  0.00    -0.125 N 
ATOM     12  C   UNL     1      52.740 164.893  40.728  0.00  0.00    +0.337 C 
ATOM     13  O   UNL     1      53.190 164.363  39.673  0.00  0.00    -0.250 OA
BRANCH  11  14
ATOM     14  S   UNL     1      53.197 167.436  39.805  0.00  0.00    +0.043 S 
ATOM     15  O   UNL     1      54.333 168.214  40.407  0.00  0.00    -0.157 OA
ATOM     16  O   UNL     1      52.075 168.438  39.579  0.00  0.00    -0.157 OA
ATOM     17  H   UNL     1      53.556 166.825  38.646  0.00  0.00    +0.234 HD
ENDBRANCH  11  14
ENDBRANCH   1   8
BRANCH   2  18
ATOM     18  C   UNL     1      49.783 163.049  41.865  0.00  0.00    +0.002 C 
ATOM     19  C   UNL     1      48.956 163.268  40.889  0.00  0.00    +0.000 C 
BRANCH  19  20
ATOM     20  C   UNL     1      47.828 164.241  41.075  0.00  0.00    +0.000 C 
ATOM     21  C   UNL     1      46.815 163.968  41.863  0.00  0.00    +0.000 C 
ENDBRANCH  19  20
ENDBRANCH   2  18
BRANCH   4  22
ATOM     22  O   UNL     1      51.909 158.660  42.249  0.00  0.00    -0.505 OA
ATOM     23  H   UNL     1      52.556 158.111  41.850  0.00  0.00    +0.292 HD
ENDBRANCH   4  22
TORSDOF 5
ENDMDL
