MODEL 1
REMARK VINA RESULT:    -5.724      0.000      0.000
REMARK INTER + INTRA:         -12.001
REMARK INTER:                  -9.907
REMARK INTRA:                  -2.094
REMARK UNBOUND:                -2.094
REMARK  Name = =
REMARK  15 active torsions:
REMARK  status: ('A' for Active; 'I' for Inactive)
REMARK    1  A    between atoms: P_1  and  O_3
REMARK    2  A    between atoms: P_1  and  O_4
REMARK    3  A    between atoms: P_1  and  O_20
REMARK    4  A    between atoms: O_4  and  C_9
REMARK    5  A    between atoms: C_5  and  C_11
REMARK    6  A    between atoms: C_11  and  N_17
REMARK    7  A    between atoms: O_20  and  P_21
REMARK    8  A    between atoms: P_21  and  O_23
REMARK    9  A    between atoms: P_21  and  O_24
REMARK   10  A    between atoms: O_24  and  P_25
REMARK   11  A    between atoms: P_25  and  O_27
REMARK   12  A    between atoms: P_25  and  O_28
REMARK   13  A    between atoms: O_28  and  P_29
REMARK   14  A    between atoms: P_29  and  O_31
REMARK   15  A    between atoms: P_29  and  O_32
REMARK                            x       y       z     vdW  Elec       q    Type
REMARK                         _______ _______ _______ _____ _____    ______ ____
ROOT
ATOM      1  P   UNL     1      63.421 164.373  39.247  0.00  0.00    +0.484 P 
ATOM      2  O   UNL     1      64.095 164.849  40.537  0.00  0.00    -0.227 OA
ENDROOT
BRANCH   1   3
ATOM      3  O   UNL     1      64.179 165.028  37.900  0.00  0.00    -0.302 OA
ATOM      4  H   UNL     1      63.789 164.654  37.095  0.00  0.00    +0.222 HD
ENDBRANCH   1   3
BRANCH   1   5
ATOM      5  O   UNL     1      63.321 162.703  39.190  0.00  0.00    -0.276 OA
BRANCH   5  10
ATOM      6  C   UNL     1      61.357 160.322  40.247  0.00  0.00    +0.030 C 
ATOM      7  C   UNL     1      61.953 159.493  41.362  0.00  0.00    +0.003 C 
ATOM      8  C   UNL     1      63.245 160.135  41.807  0.00  0.00    +0.003 C 
ATOM      9  C   UNL     1      63.916 160.928  40.708  0.00  0.00    +0.030 C 
ATOM     10  C   UNL     1      63.042 162.114  40.409  0.00  0.00    +0.126 C 
ATOM     11  C   UNL     1      61.573 161.785  40.571  0.00  0.00    +0.033 C 
BRANCH   6  12
ATOM     12  C   UNL     1      59.861 160.022  40.061  0.00  0.00    +0.092 C 
ATOM     13  N   UNL     1      59.744 158.801  39.380  0.00  0.00    -0.274 NA
ATOM     14  C   UNL     1      58.981 158.712  38.214  0.00  0.00    +0.143 C 
ATOM     15  N   UNL     1      58.191 159.805  37.800  0.00  0.00    -0.284 NA
ATOM     16  C   UNL     1      58.978 161.015  37.908  0.00  0.00    +0.072 C 
ATOM     17  C   UNL     1      59.273 161.212  39.352  0.00  0.00    +0.047 C 
ATOM     18  H   UNL     1      59.346 158.135  40.041  0.00  0.00    +0.126 HD
ATOM     19  H   UNL     1      57.366 159.877  38.395  0.00  0.00    +0.125 HD
BRANCH  12  20
ATOM     20  N   UNL     1      59.247 160.002  41.373  0.00  0.00    -0.261 NA
ATOM     21  C   UNL     1      57.768 160.062  41.330  0.00  0.00    +0.091 C 
ATOM     22  C   UNL     1      58.524 158.935  41.922  0.00  0.00    +0.091 C 
ENDBRANCH  12  20
ENDBRANCH   6  12
ENDBRANCH   5  10
ENDBRANCH   1   5
BRANCH   1  23
ATOM     23  O   UNL     1      61.842 164.982  39.298  0.00  0.00    -0.186 OA
BRANCH  23  24
ATOM     24  P   UNL     1      61.075 164.771  37.817  0.00  0.00    +0.492 P 
ATOM     25  O   UNL     1      59.582 164.737  38.074  0.00  0.00    -0.226 OA
BRANCH  24  26
ATOM     26  O   UNL     1      61.539 163.358  37.048  0.00  0.00    -0.302 OA
ATOM     27  H   UNL     1      62.055 163.576  36.256  0.00  0.00    +0.222 HD
ENDBRANCH  24  26
BRANCH  24  28
ATOM     28  O   UNL     1      61.402 166.110  36.835  0.00  0.00    -0.186 OA
BRANCH  28  29
ATOM     29  P   UNL     1      61.769 165.650  35.265  0.00  0.00    +0.492 P 
ATOM     30  O   UNL     1      63.166 165.080  35.161  0.00  0.00    -0.226 OA
BRANCH  29  31
ATOM     31  O   UNL     1      60.627 164.520  34.692  0.00  0.00    -0.302 OA
ATOM     32  H   UNL     1      59.754 164.940  34.644  0.00  0.00    +0.222 HD
ENDBRANCH  29  31
BRANCH  29  33
ATOM     33  O   UNL     1      61.668 167.006  34.271  0.00  0.00    -0.186 OA
BRANCH  33  34
ATOM     34  P   UNL     1      60.126 167.694  34.509  0.00  0.00    +0.481 P 
ATOM     35  O   UNL     1      59.042 166.674  34.254  0.00  0.00    -0.227 OA
BRANCH  34  36
ATOM     36  O   UNL     1      59.935 168.991  33.420  0.00  0.00    -0.302 OA
ATOM     37  H   UNL     1      59.140 169.495  33.655  0.00  0.00    +0.222 HD
ENDBRANCH  34  36
BRANCH  34  38
ATOM     38  O   UNL     1      59.964 168.274  36.087  0.00  0.00    -0.302 OA
ATOM     39  H   UNL     1      59.744 167.539  36.681  0.00  0.00    +0.222 HD
ENDBRANCH  34  38
ENDBRANCH  33  34
ENDBRANCH  29  33
ENDBRANCH  28  29
ENDBRANCH  24  28
ENDBRANCH  23  24
ENDBRANCH   1  23
TORSDOF 15
ENDMDL
