REMARK  Name = =
REMARK  13 active torsions:
REMARK  status: ('A' for Active; 'I' for Inactive)
REMARK    1  A    between atoms: N_1  and  C_3
REMARK    2  A    between atoms: N_1  and  N_14
REMARK    3  A    between atoms: N_1  and  P_32
REMARK    4  A    between atoms: C_2  and  N_8
REMARK    5  A    between atoms: C_6  and  C_11
REMARK    6  A    between atoms: C_11  and  O_13
REMARK    7  A    between atoms: N_14  and  N_17
REMARK    8  A    between atoms: C_15  and  C_22
REMARK    9  A    between atoms: N_17  and  O_21
REMARK   10  A    between atoms: C_22  and  O_24
REMARK   11  A    between atoms: O_24  and  C_25
REMARK   12  A    between atoms: P_32  and  N_34
REMARK   13  A    between atoms: P_32  and  N_35
REMARK                            x       y       z     vdW  Elec       q    Type
REMARK                         _______ _______ _______ _____ _____    ______ ____
ROOT
ATOM      1  N   UNL     1      50.067 161.054  30.990  0.00  0.00    -0.093 NA
ENDROOT
BRANCH   1   3
ATOM      2  C   UNL     1      51.974 161.644  32.279  0.00  0.00    +0.156 C 
ATOM      3  C   UNL     1      51.445 161.489  31.093  0.00  0.00    +0.203 C 
ATOM      4  N   UNL     1      52.169 161.732  29.902  0.00  0.00    -0.314 N 
ATOM      5  C   UNL     1      53.512 162.155  30.055  0.00  0.00    +0.066 C 
ATOM      6  C   UNL     1      54.076 162.321  31.229  0.00  0.00    +0.091 C 
ATOM      7  C   UNL     1      53.363 162.081  32.479  0.00  0.00    +0.031 C 
ATOM      8  H   UNL     1      51.761 161.613  29.014  0.00  0.00    +0.148 HD
BRANCH   2   9
ATOM      9  N   UNL     1      51.160 161.374  33.465  0.00  0.00    +0.057 N 
ATOM     10  O   UNL     1      51.035 162.378  34.388  0.00  0.00    -0.126 OA
ATOM     11  O   UNL     1      50.604 160.300  33.651  0.00  0.00    -0.126 OA
ENDBRANCH   2   9
BRANCH   6  12
ATOM     12  C   UNL     1      55.483 162.765  31.346  0.00  0.00    +0.339 C 
ATOM     13  O   UNL     1      56.124 162.936  30.281  0.00  0.00    -0.245 OA
BRANCH  12  14
ATOM     14  O   UNL     1      56.088 162.990  32.566  0.00  0.00    -0.477 OA
ATOM     15  H   UNL     1      55.606 162.861  33.359  0.00  0.00    +0.295 HD
ENDBRANCH  12  14
ENDBRANCH   6  12
ENDBRANCH   1   3
BRANCH   1  16
ATOM     16  N   UNL     1      49.772 159.820  30.444  0.00  0.00    -0.099 N 
ATOM     17  C   UNL     1      50.792 158.880  30.130  0.00  0.00    +0.357 C 
ATOM     18  O   UNL     1      52.010 159.144  30.335  0.00  0.00    -0.260 OA
BRANCH  16  19
ATOM     19  N   UNL     1      48.451 159.462  30.173  0.00  0.00    -0.058 N 
ATOM     20  C   UNL     1      47.519 159.124  31.182  0.00  0.00    +0.342 C 
ATOM     21  O   UNL     1      47.810 159.121  32.403  0.00  0.00    -0.249 OA
ATOM     22  N   UNL     1      46.189 158.768  30.843  0.00  0.00    -0.310 N 
ATOM     23  H   UNL     1      45.908 158.754  29.899  0.00  0.00    +0.147 HD
ATOM     24  H   UNL     1      45.546 158.534  31.551  0.00  0.00    +0.147 HD
BRANCH  19  25
ATOM     25  O   UNL     1      48.071 159.446  28.877  0.00  0.00    -0.273 OA
ATOM     26  H   UNL     1      48.821 159.700  28.317  0.00  0.00    +0.244 HD
ENDBRANCH  19  25
ENDBRANCH  16  19
BRANCH  17  27
ATOM     27  C   UNL     1      50.483 157.573  29.559  0.00  0.00    +0.399 C 
ATOM     28  O   UNL     1      49.290 157.290  29.241  0.00  0.00    -0.240 OA
BRANCH  27  29
ATOM     29  O   UNL     1      51.411 156.580  29.328  0.00  0.00    -0.442 OA
BRANCH  29  30
ATOM     30  C   UNL     1      51.183 155.543  28.441  0.00  0.00    +0.188 C 
ATOM     31  C   UNL     1      50.700 154.334  29.252  0.00  0.00    +0.048 C 
ATOM     32  C   UNL     1      51.852 153.556  29.807  0.00  0.00    +0.004 C 
ATOM     33  C   UNL     1      52.834 153.083  28.790  0.00  0.00    +0.005 C 
ATOM     34  C   UNL     1      53.298 154.125  27.830  0.00  0.00    +0.026 C 
ATOM     35  C   UNL     1      52.307 155.194  27.568  0.00  0.00    -0.005 C 
ATOM     36  C   UNL     1      52.471 155.873  26.442  0.00  0.00    -0.006 C 
ENDBRANCH  29  30
ENDBRANCH  27  29
ENDBRANCH  17  27
ENDBRANCH   1  16
BRANCH   1  37
ATOM     37  P   UNL     1      48.825 162.133  31.561  0.00  0.00    +0.298 P 
ATOM     38  O   UNL     1      49.383 163.560  31.501  0.00  0.00    -0.268 OA
BRANCH  37  39
ATOM     39  N   UNL     1      47.417 162.099  30.521  0.00  0.00    -0.255 NA
ATOM     40  H   UNL     1      47.010 161.164  30.530  0.00  0.00    +0.128 HD
ATOM     41  H   UNL     1      47.692 162.341  29.569  0.00  0.00    +0.128 HD
ENDBRANCH  37  39
BRANCH  37  42
ATOM     42  N   UNL     1      48.381 161.797  33.215  0.00  0.00    -0.255 NA
ATOM     43  H   UNL     1      49.214 161.822  33.803  0.00  0.00    +0.128 HD
ATOM     44  H   UNL     1      47.953 160.873  33.271  0.00  0.00    +0.128 HD
ENDBRANCH  37  42
ENDBRANCH   1  37
TORSDOF 13
