REMARK  Name = =
REMARK  5 active torsions:
REMARK  status: ('A' for Active; 'I' for Inactive)
REMARK    1  A    between atoms: C_1  and  N_8
REMARK    2  A    between atoms: C_2  and  C_17
REMARK    3  A    between atoms: C_4  and  O_21
REMARK    4  A    between atoms: N_11  and  S_14
REMARK    5  A    between atoms: C_18  and  C_19
REMARK                            x       y       z     vdW  Elec       q    Type
REMARK                         _______ _______ _______ _____ _____    ______ ____
ROOT
ATOM      1  C   UNL     1      53.490 154.068  25.533  0.00  0.00    +0.060 C 
ATOM      2  C   UNL     1      53.185 154.985  26.565  0.00  0.00    +0.023 C 
ATOM      3  C   UNL     1      53.536 156.296  26.408  0.00  0.00    +0.069 C 
ATOM      4  C   UNL     1      54.182 156.751  25.262  0.00  0.00    +0.140 C 
ATOM      5  C   UNL     1      54.479 155.862  24.261  0.00  0.00    +0.038 C 
ATOM      6  C   UNL     1      54.127 154.544  24.419  0.00  0.00    +0.018 C 
ATOM      7 BR   UNL     1      53.185 157.656  27.726  0.00  0.00    -0.046 Br
ENDROOT
BRANCH   1   8
ATOM      8  N   UNL     1      53.132 152.698  25.683  0.00  0.00    -0.218 N 
ATOM      9  C   UNL     1      52.202 152.139  26.479  0.00  0.00    +0.092 C 
ATOM     10  C   UNL     1      52.189 150.757  26.301  0.00  0.00    +0.109 C 
ATOM     11  N   UNL     1      53.136 150.508  25.379  0.00  0.00    -0.125 N 
ATOM     12  C   UNL     1      53.691 151.678  25.019  0.00  0.00    +0.337 C 
ATOM     13  O   UNL     1      54.616 151.775  24.164  0.00  0.00    -0.250 OA
BRANCH  11  14
ATOM     14  S   UNL     1      53.560 148.949  24.767  0.00  0.00    +0.043 S 
ATOM     15  O   UNL     1      53.063 147.893  25.714  0.00  0.00    -0.157 OA
ATOM     16  O   UNL     1      55.073 148.802  24.730  0.00  0.00    -0.157 OA
ATOM     17  H   UNL     1      53.019 148.816  23.527  0.00  0.00    +0.234 HD
ENDBRANCH  11  14
ENDBRANCH   1   8
BRANCH   2  18
ATOM     18  C   UNL     1      52.523 154.454  27.709  0.00  0.00    +0.002 C 
ATOM     19  C   UNL     1      51.918 155.050  28.690  0.00  0.00    +0.000 C 
BRANCH  19  20
ATOM     20  C   UNL     1      51.295 154.234  29.785  0.00  0.00    +0.000 C 
ATOM     21  C   UNL     1      50.452 154.768  30.638  0.00  0.00    +0.000 C 
ENDBRANCH  19  20
ENDBRANCH   2  18
BRANCH   4  22
ATOM     22  O   UNL     1      54.527 158.097  25.131  0.00  0.00    -0.505 OA
ATOM     23  H   UNL     1      54.323 158.702  25.817  0.00  0.00    +0.292 HD
ENDBRANCH   4  22
TORSDOF 5
