MODEL 1
REMARK VINA RESULT:    -6.161      0.000      0.000
REMARK INTER + INTRA:          -9.816
REMARK INTER:                  -9.403
REMARK INTRA:                  -0.414
REMARK UNBOUND:                -0.414
REMARK  Name = =
REMARK  10 active torsions:
REMARK  status: ('A' for Active; 'I' for Inactive)
REMARK    1  A    between atoms: C_1  and  C_3
REMARK    2  A    between atoms: C_1  and  S_23
REMARK    3  A    between atoms: C_3  and  C_11
REMARK    4  A    between atoms: C_11  and  O_19
REMARK    5  A    between atoms: O_19  and  C_20
REMARK    6  A    between atoms: C_20  and  O_22
REMARK    7  A    between atoms: S_23  and  N_26
REMARK    8  A    between atoms: N_26  and  C_29
REMARK    9  A    between atoms: C_31  and  O_37
REMARK   10  A    between atoms: C_32  and  C_34
REMARK                            x       y       z     vdW  Elec       q    Type
REMARK                         _______ _______ _______ _____ _____    ______ ____
ROOT
ATOM      1  C   UNL     1      60.774 165.246  36.838  0.00  0.00    +0.141 C 
ATOM      2  S   UNL     1      59.837 165.086  35.766  0.00  0.00    -0.034 S 
ENDROOT
BRANCH   1   3
ATOM      3  C   UNL     1      61.265 166.619  37.137  0.00  0.00    +0.086 C 
ATOM      4  C   UNL     1      62.308 166.612  38.198  0.00  0.00    +0.031 C 
ATOM      5  C   UNL     1      62.140 167.554  39.333  0.00  0.00    +0.094 C 
ATOM      6  N   UNL     1      61.450 168.757  38.991  0.00  0.00    -0.272 N 
ATOM      7  C   UNL     1      60.193 168.648  38.301  0.00  0.00    +0.094 C 
ATOM      8  C   UNL     1      60.035 167.385  37.564  0.00  0.00    +0.031 C 
ATOM      9  C   UNL     1      61.973 170.016  39.322  0.00  0.00    +0.303 C 
ATOM     10  O   UNL     1      63.071 170.075  39.934  0.00  0.00    -0.265 OA
BRANCH   3  11
ATOM     11  C   UNL     1      61.800 167.235  35.836  0.00  0.00    +0.209 C 
ATOM     12  C   UNL     1      63.232 167.854  36.184  0.00  0.00    +0.168 C 
ATOM     13  S   UNL     1      63.223 169.673  36.144  0.00  0.00    -0.118 S 
ATOM     14  C   UNL     1      64.430 169.758  34.787  0.00  0.00    +0.076 C 
ATOM     15  C   UNL     1      64.137 168.536  34.030  0.00  0.00    +0.087 C 
ATOM     16  N   UNL     1      63.424 167.576  34.738  0.00  0.00    -0.234 NA
ATOM     17  C   UNL     1      62.688 166.406  35.028  0.00  0.00    +0.235 C 
ATOM     18  O   UNL     1      62.843 165.182  34.669  0.00  0.00    -0.203 OA
BRANCH  11  19
ATOM     19  O   UNL     1      61.105 168.213  35.219  0.00  0.00    -0.419 OA
BRANCH  19  20
ATOM     20  C   UNL     1      60.393 168.403  34.121  0.00  0.00    +0.509 C 
ATOM     21  O   UNL     1      59.174 168.144  34.039  0.00  0.00    -0.203 OA
BRANCH  20  22
ATOM     22  O   UNL     1      60.936 168.926  32.914  0.00  0.00    -0.450 OA
ATOM     23  H   UNL     1      61.839 169.171  32.874  0.00  0.00    +0.299 HD
ENDBRANCH  20  22
ENDBRANCH  19  20
ENDBRANCH  11  19
ENDBRANCH   3  11
ENDBRANCH   1   3
BRANCH   1  24
ATOM     24  S   UNL     1      61.337 163.788  37.619  0.00  0.00    +0.076 S 
ATOM     25  O   UNL     1      60.688 162.577  36.946  0.00  0.00    -0.150 OA
ATOM     26  O   UNL     1      62.815 163.697  37.512  0.00  0.00    -0.150 OA
BRANCH  24  27
ATOM     27  N   UNL     1      60.870 163.713  39.259  0.00  0.00    -0.214 N 
ATOM     28  H   UNL     1      60.933 164.547  39.778  0.00  0.00    +0.174 HD
BRANCH  27  31
ATOM     29 CL   UNL     1      62.994 162.145  40.505  0.00  0.00    -0.081 Cl
ATOM     30  C   UNL     1      61.304 161.707  40.593  0.00  0.00    +0.073 C 
ATOM     31  C   UNL     1      60.399 162.562  39.948  0.00  0.00    +0.078 C 
ATOM     32  C   UNL     1      59.085 162.199  40.023  0.00  0.00    +0.053 C 
ATOM     33  C   UNL     1      58.655 161.050  40.698  0.00  0.00    +0.139 C 
ATOM     34  C   UNL     1      59.582 160.239  41.317  0.00  0.00    +0.088 C 
ATOM     35  C   UNL     1      60.920 160.572  41.264  0.00  0.00    +0.020 C 
BRANCH  34  36
ATOM     36  C   UNL     1      59.138 159.055  42.013  0.00  0.00    +0.246 C 
ATOM     37  O   UNL     1      58.398 159.161  43.017  0.00  0.00    -0.270 OA
ATOM     38  N   UNL     1      59.564 157.776  41.520  0.00  0.00    -0.325 N 
ATOM     39  H   UNL     1      60.146 157.723  40.728  0.00  0.00    +0.145 HD
ATOM     40  H   UNL     1      59.274 156.952  41.974  0.00  0.00    +0.145 HD
ENDBRANCH  34  36
BRANCH  33  41
ATOM     41  O   UNL     1      57.288 160.739  40.734  0.00  0.00    -0.505 OA
ATOM     42  H   UNL     1      56.988 159.906  40.427  0.00  0.00    +0.292 HD
ENDBRANCH  33  41
ENDBRANCH  27  31
ENDBRANCH  24  27
ENDBRANCH   1  24
TORSDOF 10
ENDMDL
