MODEL 1
REMARK VINA RESULT:    -9.002      0.000      0.000
REMARK INTER + INTRA:         -14.665
REMARK INTER:                 -12.949
REMARK INTRA:                  -1.716
REMARK UNBOUND:                -1.716
REMARK  Name = =
REMARK  8 active torsions:
REMARK  status: ('A' for Active; 'I' for Inactive)
REMARK    1  A    between atoms: C_1  and  C_17
REMARK    2  A    between atoms: C_9  and  O_34
REMARK    3  A    between atoms: C_10  and  C_31
REMARK    4  A    between atoms: C_13  and  C_18
REMARK    5  A    between atoms: C_14  and  N_29
REMARK    6  A    between atoms: C_31  and  C_32
REMARK    7  A    between atoms: O_34  and  N_35
REMARK    8  A    between atoms: N_38  and  N_39
REMARK                            x       y       z     vdW  Elec       q    Type
REMARK                         _______ _______ _______ _____ _____    ______ ____
ROOT
ATOM      1  C   UNL     1      -1.141  -6.934  31.106  0.00  0.00    +0.004 C 
ATOM      2  C   UNL     1      -2.217  -6.327  31.669  0.00  0.00    +0.017 C 
ATOM      3  C   UNL     1      -2.530  -6.562  33.030  0.00  0.00    +0.081 C 
ATOM      4  N   UNL     1      -1.777  -7.375  33.768  0.00  0.00    -0.244 NA
ATOM      5  C   UNL     1      -0.716  -7.986  33.264  0.00  0.00    +0.099 C 
ATOM      6  C   UNL     1      -0.373  -7.792  31.958  0.00  0.00    +0.021 C 
ATOM      7  C   UNL     1      -3.567  -5.913  33.650  0.00  0.00    +0.022 C 
ATOM      8  C   UNL     1      -4.299  -5.018  32.913  0.00  0.00    +0.041 C 
ATOM      9  C   UNL     1      -4.019  -4.774  31.612  0.00  0.00    +0.167 C 
ATOM     10  C   UNL     1      -2.950  -5.434  30.937  0.00  0.00    +0.020 C 
ENDROOT
BRANCH   1  17
ATOM     11 CL   UNL     1       0.923  -4.895  30.558  0.00  0.00    -0.082 Cl
ATOM     12  C   UNL     1       0.363  -6.105  29.404  0.00  0.00    +0.057 C 
ATOM     13  C   UNL     1       1.024  -6.168  28.184  0.00  0.00    +0.033 C 
ATOM     14  C   UNL     1       0.585  -7.105  27.288  0.00  0.00    +0.080 C 
ATOM     15  C   UNL     1      -0.481  -7.946  27.628  0.00  0.00    +0.019 C 
ATOM     16  C   UNL     1      -1.098  -7.850  28.845  0.00  0.00    +0.002 C 
ATOM     17  C   UNL     1      -0.695  -6.931  29.757  0.00  0.00    +0.011 C 
BRANCH  13  18
ATOM     18  C   UNL     1       2.173  -5.278  27.882  0.00  0.00    +0.142 C 
ATOM     19  O   UNL     1       2.037  -4.644  26.653  0.00  0.00    -0.332 OA
ATOM     20  C   UNL     1       2.958  -3.628  26.541  0.00  0.00    +0.187 C 
ATOM     21  O   UNL     1       3.712  -3.845  25.395  0.00  0.00    -0.334 OA
ATOM     22  C   UNL     1       4.651  -2.896  25.106  0.00  0.00    +0.145 C 
ATOM     23  C   UNL     1       4.185  -1.476  25.210  0.00  0.00    +0.032 C 
ATOM     24  C   UNL     1       2.718  -1.352  25.475  0.00  0.00    +0.008 C 
ATOM     25  C   UNL     1       2.167  -2.328  26.466  0.00  0.00    +0.056 C 
ATOM     26  C   UNL     1       3.873  -3.506  27.714  0.00  0.00    +0.056 C 
ATOM     27  C   UNL     1       4.547  -4.778  28.097  0.00  0.00    +0.008 C 
ATOM     28  C   UNL     1       3.514  -5.912  27.992  0.00  0.00    +0.034 C 
ENDBRANCH  13  18
BRANCH  14  29
ATOM     29  N   UNL     1       1.177  -7.223  26.001  0.00  0.00    -0.242 NA
ATOM     30  C   UNL     1       1.674  -8.344  25.646  0.00  0.00    +0.119 C 
ENDBRANCH  14  29
ENDBRANCH   1  17
BRANCH  10  31
ATOM     31  C   UNL     1      -2.833  -5.117  29.500  0.00  0.00    +0.056 C 
BRANCH  31  32
ATOM     32  C   UNL     1      -2.218  -3.766  29.413  0.00  0.00    -0.021 C 
ATOM     33  C   UNL     1      -1.735  -3.281  28.248  0.00  0.00    -0.005 C 
ENDBRANCH  31  32
ENDBRANCH  10  31
BRANCH   9  34
ATOM     34  O   UNL     1      -4.774  -3.851  30.850  0.00  0.00    -0.383 OA
BRANCH  34  35
ATOM     35  N   UNL     1      -5.397  -2.843  31.534  0.00  0.00    -0.131 N 
ATOM     36  C   UNL     1      -4.905  -1.521  31.380  0.00  0.00    +0.345 C 
ATOM     37  O   UNL     1      -3.904  -1.245  30.628  0.00  0.00    -0.249 OA
ATOM     38  N   UNL     1      -5.476  -0.396  32.044  0.00  0.00    -0.235 N 
ATOM     39  H   UNL     1      -6.166  -3.030  32.118  0.00  0.00    +0.197 HD
ATOM     40  H   UNL     1      -6.250  -0.532  32.638  0.00  0.00    +0.170 HD
BRANCH  38  41
ATOM     41  N   UNL     1      -4.972   0.887  31.877  0.00  0.00    -0.253 NA
ATOM     42  H   UNL     1      -4.179   0.860  31.237  0.00  0.00    +0.141 HD
ATOM     43  H   UNL     1      -4.668   1.252  32.780  0.00  0.00    +0.141 HD
ENDBRANCH  38  41
ENDBRANCH  34  35
ENDBRANCH   9  34
TORSDOF 8
ENDMDL
