REMARK  Name = =
REMARK  3 active torsions:
REMARK  status: ('A' for Active; 'I' for Inactive)
REMARK    1  A    between atoms: C_15  and  C_17
REMARK    2  A    between atoms: C_16  and  N_35
REMARK    3  A    between atoms: C_29  and  O_34
REMARK                            x       y       z     vdW  Elec       q    Type
REMARK                         _______ _______ _______ _____ _____    ______ ____
ROOT
ATOM      1  C   UNL     1       2.681  -6.129  27.526  0.00  0.00    +0.137 C 
ATOM      2  N   UNL     1       3.102  -7.271  28.083  0.00  0.00    -0.209 NA
ATOM      3  C   UNL     1       2.746  -7.686  29.311  0.00  0.00    +0.200 C 
ATOM      4  N   UNL     1       1.919  -6.932  30.055  0.00  0.00    -0.224 NA
ATOM      5  C   UNL     1       1.444  -5.745  29.554  0.00  0.00    +0.089 C 
ATOM      6  C   UNL     1       1.824  -5.346  28.293  0.00  0.00    +0.068 C 
ATOM      7  C   UNL     1       1.335  -4.135  27.804  0.00  0.00    +0.103 C 
ATOM      8  N   UNL     1       0.514  -3.406  28.573  0.00  0.00    -0.242 NA
ATOM      9  C   UNL     1       0.140  -3.792  29.804  0.00  0.00    +0.100 C 
ATOM     10  C   UNL     1       0.595  -4.977  30.333  0.00  0.00    +0.040 C 
ATOM     11  N   UNL     1       2.980  -5.659  26.247  0.00  0.00    -0.278 N 
ATOM     12  C   UNL     1       1.888  -5.780  25.316  0.00  0.00    +0.094 C 
ATOM     13  C   UNL     1       2.181  -4.944  24.120  0.00  0.00    +0.022 C 
ATOM     14  C   UNL     1       3.562  -5.039  23.577  0.00  0.00    +0.005 C 
ATOM     15  C   UNL     1       4.619  -5.067  24.744  0.00  0.00    +0.038 C 
ATOM     16  C   UNL     1       4.112  -6.198  25.571  0.00  0.00    +0.160 C 
ENDROOT
BRANCH  15  17
ATOM     17  C   UNL     1       4.562  -3.684  25.229  0.00  0.00    +0.003 C 
ATOM     18  C   UNL     1       3.680  -2.954  24.156  0.00  0.00    +0.000 C 
ATOM     19  C   UNL     1       2.977  -1.774  24.782  0.00  0.00    +0.000 C 
ATOM     20  C   UNL     1       1.931  -1.296  23.758  0.00  0.00    +0.004 C 
ATOM     21  C   UNL     1       2.664  -1.085  22.472  0.00  0.00    +0.022 C 
ATOM     22  C   UNL     1       4.128  -1.167  22.629  0.00  0.00    +0.004 C 
ATOM     23  C   UNL     1       4.945  -0.038  22.279  0.00  0.00    +0.005 C 
ATOM     24  C   UNL     1       4.133   1.262  22.404  0.00  0.00    +0.026 C 
ATOM     25  C   UNL     1       2.891   1.188  21.612  0.00  0.00    -0.023 C 
ATOM     26  C   UNL     1       2.174   0.014  21.658  0.00  0.00    -0.026 C 
ATOM     27  C   UNL     1       1.007  -0.111  20.939  0.00  0.00    -0.001 C 
ATOM     28  C   UNL     1       0.513   0.918  20.153  0.00  0.00    +0.036 C 
ATOM     29  C   UNL     1       1.255   2.075  20.130  0.00  0.00    +0.133 C 
ATOM     30  C   UNL     1       2.427   2.228  20.840  0.00  0.00    +0.032 C 
ATOM     31  C   UNL     1       4.663  -2.414  23.139  0.00  0.00    +0.000 C 
ATOM     32  C   UNL     1       6.005  -2.417  23.783  0.00  0.00    +0.000 C 
ATOM     33  C   UNL     1       5.710  -2.790  25.251  0.00  0.00    +0.000 C 
BRANCH  29  34
ATOM     34  O   UNL     1       0.775   3.128  19.342  0.00  0.00    -0.506 OA
ATOM     35  H   UNL     1      -0.021   3.026  18.859  0.00  0.00    +0.292 HD
ENDBRANCH  29  34
ENDBRANCH  15  17
BRANCH  16  36
ATOM     36  N   UNL     1       5.015  -7.032  26.261  0.00  0.00    -0.207 N 
ATOM     37  C   UNL     1       5.031  -8.444  26.220  0.00  0.00    +0.256 C 
ATOM     38  O   UNL     1       4.242  -9.216  25.540  0.00  0.00    -0.269 OA
ATOM     39  C   UNL     1       6.093  -8.957  27.076  0.00  0.00    +0.058 C 
ATOM     40  C   UNL     1       6.713  -7.873  27.627  0.00  0.00    +0.058 C 
ATOM     41  C   UNL     1       7.779  -8.117  28.495  0.00  0.00    +0.005 C 
ATOM     42  C   UNL     1       8.211  -9.389  28.802  0.00  0.00    +0.000 C 
ATOM     43  C   UNL     1       7.585 -10.479  28.245  0.00  0.00    +0.000 C 
ATOM     44  C   UNL     1       6.517 -10.242  27.374  0.00  0.00    +0.005 C 
ATOM     45  C   UNL     1       6.053  -6.656  27.132  0.00  0.00    +0.256 C 
ATOM     46  O   UNL     1       6.473  -5.546  27.523  0.00  0.00    -0.269 OA
ENDBRANCH  16  36
TORSDOF 3
