REMARK  Name = =
REMARK  3 active torsions:
REMARK  status: ('A' for Active; 'I' for Inactive)
REMARK    1  A    between atoms: C_7  and  O_23
REMARK    2  A    between atoms: C_15  and  O_22
REMARK    3  A    between atoms: C_18  and  O_21
REMARK                            x       y       z     vdW  Elec       q    Type
REMARK                         _______ _______ _______ _____ _____    ______ ____
ROOT
ATOM      1  C   UNL     1      51.650 158.167  28.534  0.00  0.00    +0.029 C 
ATOM      2  C   UNL     1      51.011 158.504  29.836  0.00  0.00    +0.005 C 
ATOM      3  C   UNL     1      50.785 157.299  30.690  0.00  0.00    +0.005 C 
ATOM      4  C   UNL     1      49.929 156.338  29.847  0.00  0.00    +0.026 C 
ATOM      5  C   UNL     1      50.857 155.857  28.802  0.00  0.00    -0.023 C 
ATOM      6  C   UNL     1      51.689 156.738  28.177  0.00  0.00    +0.008 C 
ATOM      7  C   UNL     1      52.608 156.340  27.173  0.00  0.00    +0.132 C 
ATOM      8  C   UNL     1      52.662 155.016  26.815  0.00  0.00    +0.075 C 
ATOM      9  C   UNL     1      51.820 154.133  27.449  0.00  0.00    +0.045 C 
ATOM     10  C   UNL     1      50.918 154.538  28.438  0.00  0.00    -0.001 C 
ATOM     11  C   UNL     1      51.878 152.714  27.065  0.00  0.00    +0.199 C 
ATOM     12  O   UNL     1      51.094 151.932  27.664  0.00  0.00    -0.286 OA
ATOM     13  C   UNL     1      52.775 152.187  26.054  0.00  0.00    +0.079 C 
ATOM     14  C   UNL     1      53.627 153.115  25.421  0.00  0.00    +0.079 C 
ATOM     15  C   UNL     1      54.505 152.653  24.442  0.00  0.00    +0.137 C 
ATOM     16  C   UNL     1      54.506 151.274  24.125  0.00  0.00    +0.040 C 
ATOM     17  C   UNL     1      53.667 150.404  24.758  0.00  0.00    +0.040 C 
ATOM     18  C   UNL     1      52.775 150.850  25.746  0.00  0.00    +0.137 C 
ATOM     19  C   UNL     1      53.578 154.518  25.791  0.00  0.00    +0.202 C 
ATOM     20  O   UNL     1      54.327 155.319  25.232  0.00  0.00    -0.286 OA
ENDROOT
BRANCH  18  21
ATOM     21  O   UNL     1      51.976 149.946  26.332  0.00  0.00    -0.505 OA
ATOM     22  H   UNL     1      52.023 149.045  26.078  0.00  0.00    +0.292 HD
ENDBRANCH  18  21
BRANCH  15  23
ATOM     23  O   UNL     1      55.351 153.476  23.791  0.00  0.00    -0.505 OA
ATOM     24  H   UNL     1      55.361 154.391  23.991  0.00  0.00    +0.292 HD
ENDBRANCH  15  23
BRANCH   7  25
ATOM     25  O   UNL     1      53.394 157.292  26.611  0.00  0.00    -0.506 OA
ATOM     26  H   UNL     1      53.321 158.184  26.889  0.00  0.00    +0.292 HD
ENDBRANCH   7  25
TORSDOF 3
