REMARK  Name = =
REMARK  4 active torsions:
REMARK  status: ('A' for Active; 'I' for Inactive)
REMARK    1  A    between atoms: C_1  and  C_21
REMARK    2  A    between atoms: C_7  and  O_33
REMARK    3  A    between atoms: C_15  and  O_32
REMARK    4  A    between atoms: C_18  and  O_31
REMARK                            x       y       z     vdW  Elec       q    Type
REMARK                         _______ _______ _______ _____ _____    ______ ____
ROOT
ATOM      1  C   UNL     1      51.639 158.589  28.524  0.00  0.00    +0.025 C 
ATOM      2  C   UNL     1      50.243 158.631  29.065  0.00  0.00    +0.005 C 
ATOM      3  C   UNL     1      50.193 158.071  30.446  0.00  0.00    +0.005 C 
ATOM      4  C   UNL     1      50.603 156.628  30.411  0.00  0.00    +0.026 C 
ATOM      5  C   UNL     1      51.312 156.224  29.172  0.00  0.00    -0.023 C 
ATOM      6  C   UNL     1      51.829 157.113  28.245  0.00  0.00    +0.007 C 
ATOM      7  C   UNL     1      52.473 156.680  27.122  0.00  0.00    +0.132 C 
ATOM      8  C   UNL     1      52.596 155.291  26.933  0.00  0.00    +0.075 C 
ATOM      9  C   UNL     1      52.094 154.374  27.832  0.00  0.00    +0.045 C 
ATOM     10  C   UNL     1      51.448 154.859  28.959  0.00  0.00    -0.001 C 
ATOM     11  C   UNL     1      52.219 152.919  27.642  0.00  0.00    +0.199 C 
ATOM     12  O   UNL     1      51.731 152.161  28.512  0.00  0.00    -0.286 OA
ATOM     13  C   UNL     1      52.898 152.428  26.463  0.00  0.00    +0.079 C 
ATOM     14  C   UNL     1      53.403 153.338  25.555  0.00  0.00    +0.079 C 
ATOM     15  C   UNL     1      54.057 152.906  24.422  0.00  0.00    +0.137 C 
ATOM     16  C   UNL     1      54.199 151.552  24.203  0.00  0.00    +0.040 C 
ATOM     17  C   UNL     1      53.695 150.644  25.107  0.00  0.00    +0.040 C 
ATOM     18  C   UNL     1      53.025 151.059  26.270  0.00  0.00    +0.137 C 
ATOM     19  C   UNL     1      53.276 154.787  25.753  0.00  0.00    +0.202 C 
ATOM     20  O   UNL     1      53.740 155.609  24.921  0.00  0.00    -0.286 OA
ENDROOT
BRANCH   1  21
ATOM     21  C   UNL     1      52.706 159.028  29.451  0.00  0.00    +0.004 C 
ATOM     22  C   UNL     1      52.517 160.294  30.177  0.00  0.00    +0.000 C 
ATOM     23  C   UNL     1      52.520 161.558  29.448  0.00  0.00    +0.000 C 
ATOM     24  C   UNL     1      52.876 162.780  30.264  0.00  0.00    +0.000 C 
ATOM     25  C   UNL     1      52.538 162.580  31.724  0.00  0.00    +0.000 C 
ATOM     26  C   UNL     1      53.517 161.489  32.169  0.00  0.00    +0.000 C 
ATOM     27  C   UNL     1      53.313 160.224  31.439  0.00  0.00    +0.000 C 
ATOM     28  C   UNL     1      54.688 159.594  31.203  0.00  0.00    +0.000 C 
ATOM     29  C   UNL     1      55.054 159.688  29.727  0.00  0.00    +0.000 C 
ATOM     30  C   UNL     1      54.071 159.068  28.802  0.00  0.00    +0.000 C 
ENDBRANCH   1  21
BRANCH  18  31
ATOM     31  O   UNL     1      52.568 150.088  27.093  0.00  0.00    -0.505 OA
ATOM     32  H   UNL     1      52.703 149.187  26.875  0.00  0.00    +0.292 HD
ENDBRANCH  18  31
BRANCH  15  33
ATOM     33  O   UNL     1      54.554 153.868  23.530  0.00  0.00    -0.505 OA
ATOM     34  H   UNL     1      54.439 154.780  23.712  0.00  0.00    +0.292 HD
ENDBRANCH  15  33
BRANCH   7  35
ATOM     35  O   UNL     1      52.957 157.576  26.256  0.00  0.00    -0.506 OA
ATOM     36  H   UNL     1      52.852 158.492  26.422  0.00  0.00    +0.292 HD
ENDBRANCH   7  35
TORSDOF 4
