REMARK  Name = =
REMARK  5 active torsions:
REMARK  status: ('A' for Active; 'I' for Inactive)
REMARK    1  A    between atoms: C_1  and  C_21
REMARK    2  A    between atoms: C_7  and  O_40
REMARK    3  A    between atoms: C_15  and  O_39
REMARK    4  A    between atoms: C_18  and  O_38
REMARK    5  A    between atoms: C_23  and  C_31
REMARK                            x       y       z     vdW  Elec       q    Type
REMARK                         _______ _______ _______ _____ _____    ______ ____
ROOT
ATOM      1  C   UNL     1      51.047 157.581  30.497  0.00  0.00    +0.025 C 
ATOM      2  C   UNL     1      51.198 156.902  31.846  0.00  0.00    +0.005 C 
ATOM      3  C   UNL     1      50.588 155.552  31.897  0.00  0.00    +0.005 C 
ATOM      4  C   UNL     1      50.230 154.895  30.626  0.00  0.00    +0.026 C 
ATOM      5  C   UNL     1      51.086 155.330  29.512  0.00  0.00    -0.023 C 
ATOM      6  C   UNL     1      51.506 156.633  29.428  0.00  0.00    +0.007 C 
ATOM      7  C   UNL     1      52.312 156.991  28.376  0.00  0.00    +0.132 C 
ATOM      8  C   UNL     1      52.697 156.049  27.411  0.00  0.00    +0.075 C 
ATOM      9  C   UNL     1      52.280 154.741  27.489  0.00  0.00    +0.045 C 
ATOM     10  C   UNL     1      51.472 154.384  28.545  0.00  0.00    -0.001 C 
ATOM     11  C   UNL     1      52.686 153.748  26.469  0.00  0.00    +0.199 C 
ATOM     12  O   UNL     1      52.290 152.558  26.563  0.00  0.00    -0.286 OA
ATOM     13  C   UNL     1      53.540 154.128  25.353  0.00  0.00    +0.079 C 
ATOM     14  C   UNL     1      53.951 155.443  25.287  0.00  0.00    +0.079 C 
ATOM     15  C   UNL     1      54.760 155.797  24.228  0.00  0.00    +0.137 C 
ATOM     16  C   UNL     1      55.156 154.885  23.259  0.00  0.00    +0.040 C 
ATOM     17  C   UNL     1      54.742 153.574  23.330  0.00  0.00    +0.040 C 
ATOM     18  C   UNL     1      53.932 153.209  24.386  0.00  0.00    +0.137 C 
ATOM     19  C   UNL     1      53.552 156.423  26.292  0.00  0.00    +0.202 C 
ATOM     20  O   UNL     1      53.928 157.627  26.233  0.00  0.00    -0.286 OA
ENDROOT
BRANCH   1  21
ATOM     21  C   UNL     1      49.659 158.043  30.318  0.00  0.00    +0.004 C 
ATOM     22  C   UNL     1      49.526 159.518  29.990  0.00  0.00    +0.004 C 
ATOM     23  C   UNL     1      48.218 159.713  29.261  0.00  0.00    +0.040 C 
ATOM     24  C   UNL     1      47.369 160.790  29.858  0.00  0.00    +0.004 C 
ATOM     25  C   UNL     1      48.105 162.035  30.215  0.00  0.00    +0.000 C 
ATOM     26  C   UNL     1      49.486 161.845  30.733  0.00  0.00    +0.000 C 
ATOM     27  C   UNL     1      49.788 160.431  31.100  0.00  0.00    +0.000 C 
ATOM     28  C   UNL     1      49.474 160.051  32.478  0.00  0.00    +0.000 C 
ATOM     29  C   UNL     1      49.314 158.574  32.726  0.00  0.00    +0.000 C 
ATOM     30  C   UNL     1      48.769 157.847  31.525  0.00  0.00    +0.000 C 
BRANCH  23  31
ATOM     31  C   UNL     1      48.417 160.021  27.800  0.00  0.00    +0.169 C 
ATOM     32  C   UNL     1      48.501 161.516  27.627  0.00  0.00    +0.044 C 
ATOM     33  C   UNL     1      47.793 162.035  26.399  0.00  0.00    +0.015 C 
ATOM     34  C   UNL     1      48.035 161.093  25.247  0.00  0.00    +0.110 C 
ATOM     35  C   UNL     1      47.410 159.804  25.638  0.00  0.00    +0.317 C 
ATOM     36  O   UNL     1      46.872 159.093  24.772  0.00  0.00    -0.250 OA
ATOM     37  O   UNL     1      47.439 159.414  26.972  0.00  0.00    -0.452 OA
ENDBRANCH  23  31
ENDBRANCH   1  21
BRANCH  18  38
ATOM     38  O   UNL     1      53.498 151.881  24.480  0.00  0.00    -0.505 OA
ATOM     39  H   UNL     1      53.758 151.256  23.832  0.00  0.00    +0.292 HD
ENDBRANCH  18  38
BRANCH  15  40
ATOM     40  O   UNL     1      55.188 157.113  24.140  0.00  0.00    -0.505 OA
ATOM     41  H   UNL     1      54.926 157.735  24.789  0.00  0.00    +0.292 HD
ENDBRANCH  15  40
BRANCH   7  42
ATOM     42  O   UNL     1      52.774 158.283  28.235  0.00  0.00    -0.506 OA
ATOM     43  H   UNL     1      52.536 158.937  28.862  0.00  0.00    +0.292 HD
ENDBRANCH   7  42
TORSDOF 5
