MODEL 1
REMARK VINA RESULT:   -11.362      0.000      0.000
REMARK INTER + INTRA:         -18.032
REMARK INTER:                 -16.676
REMARK INTRA:                  -1.356
REMARK UNBOUND:                -1.356
REMARK  Name = =
REMARK  10 active torsions:
REMARK  status: ('A' for Active; 'I' for Inactive)
REMARK    1  A    between atoms: C_4  and  O_39
REMARK    2  A    between atoms: C_6  and  O_38
REMARK    3  A    between atoms: C_10  and  N_29
REMARK    4  A    between atoms: C_11  and  C_12
REMARK    5  A    between atoms: C_14  and  N_18
REMARK    6  A    between atoms: C_15  and  O_28
REMARK    7  A    between atoms: N_18  and  C_19
REMARK    8  A    between atoms: C_22  and  C_25
REMARK    9  A    between atoms: C_25  and  O_27
REMARK   10  A    between atoms: C_31  and  C_35
REMARK                            x       y       z     vdW  Elec       q    Type
REMARK                         _______ _______ _______ _____ _____    ______ ____
ROOT
ATOM      1  O   UNL     1     -13.563 -42.683  31.833  0.00  0.00    -0.452 OA
ATOM      2  C   UNL     1     -13.695 -42.006  32.917  0.00  0.00    +0.154 A 
ATOM      3  C   UNL     1     -12.577 -41.579  33.626  0.00  0.00    +0.109 A 
ATOM      4  C   UNL     1     -12.706 -40.847  34.797  0.00  0.00    +0.143 C 
ATOM      5  C   UNL     1     -13.953 -40.529  35.284  0.00  0.00    +0.073 C 
ATOM      6  C   UNL     1     -15.063 -40.945  34.595  0.00  0.00    +0.140 C 
ATOM      7  C   UNL     1     -14.934 -41.666  33.438  0.00  0.00    +0.074 C 
ATOM      8  C   UNL     1     -11.373 -41.924  33.095  0.00  0.00    +0.218 A 
ATOM      9  O   UNL     1     -10.298 -41.602  33.633  0.00  0.00    -0.285 OA
ATOM     10  C   UNL     1     -11.279 -42.676  31.892  0.00  0.00    +0.123 A 
ATOM     11  C   UNL     1     -12.407 -43.055  31.261  0.00  0.00    +0.162 A 
ENDROOT
BRANCH  11  12
ATOM     12  C   UNL     1     -12.498 -43.811  30.031  0.00  0.00    +0.037 C 
ATOM     13  C   UNL     1     -12.696 -43.122  28.817  0.00  0.00    +0.021 C 
ATOM     14  C   UNL     1     -12.823 -43.708  27.605  0.00  0.00    +0.083 C 
ATOM     15  C   UNL     1     -12.756 -45.092  27.557  0.00  0.00    +0.147 C 
ATOM     16  C   UNL     1     -12.567 -45.798  28.705  0.00  0.00    +0.038 C 
ATOM     17  C   UNL     1     -12.438 -45.152  29.947  0.00  0.00    +0.006 C 
BRANCH  14  18
ATOM     18  N   UNL     1     -13.054 -42.968  26.425  0.00  0.00    -0.310 N 
ATOM     19  H   UNL     1     -12.253 -42.600  25.987  0.00  0.00    +0.152 HD
BRANCH  18  20
ATOM     20  C   UNL     1     -14.271 -42.690  25.796  0.00  0.00    +0.048 C 
ATOM     21  C   UNL     1     -15.422 -42.376  26.465  0.00  0.00    +0.015 C 
ATOM     22  C   UNL     1     -16.619 -42.138  25.773  0.00  0.00    +0.008 C 
ATOM     23  C   UNL     1     -16.678 -42.211  24.420  0.00  0.00    +0.076 C 
ATOM     24  C   UNL     1     -15.545 -42.522  23.725  0.00  0.00    +0.008 C 
ATOM     25  C   UNL     1     -14.366 -42.756  24.400  0.00  0.00    +0.015 C 
BRANCH  23  26
ATOM     26  C   UNL     1     -17.921 -41.967  23.668  0.00  0.00    +0.338 C 
ATOM     27  O   UNL     1     -18.857 -41.286  24.155  0.00  0.00    -0.245 OA
BRANCH  26  28
ATOM     28  O   UNL     1     -18.077 -42.492  22.402  0.00  0.00    -0.477 OA
ATOM     29  H   UNL     1     -17.342 -42.861  21.954  0.00  0.00    +0.295 HD
ENDBRANCH  26  28
ENDBRANCH  23  26
ENDBRANCH  18  20
ENDBRANCH  14  18
BRANCH  15  30
ATOM     30  O   UNL     1     -12.887 -45.710  26.305  0.00  0.00    -0.504 OA
ATOM     31  H   UNL     1     -12.161 -45.730  25.714  0.00  0.00    +0.292 HD
ENDBRANCH  15  30
ENDBRANCH  11  12
BRANCH  10  32
ATOM     32  N   UNL     1      -9.958 -42.914  31.421  0.00  0.00    -0.299 N 
ATOM     33  C   UNL     1      -9.186 -43.999  31.989  0.00  0.00    +0.118 C 
ATOM     34  C   UNL     1      -8.614 -44.748  30.781  0.00  0.00    +0.168 C 
ATOM     35  N   UNL     1      -7.672 -43.934  30.092  0.00  0.00    -0.207 NA
ATOM     36  C   UNL     1      -7.961 -42.541  30.155  0.00  0.00    +0.111 C 
ATOM     37  C   UNL     1      -9.408 -42.182  30.293  0.00  0.00    +0.110 C 
BRANCH  34  38
ATOM     38  C   UNL     1      -8.028 -46.044  31.213  0.00  0.00    +0.237 C 
ATOM     39  O   UNL     1      -6.857 -46.074  31.672  0.00  0.00    -0.274 OA
ATOM     40  N   UNL     1      -8.759 -47.257  31.120  0.00  0.00    -0.328 N 
ATOM     41  H   UNL     1      -9.676 -47.253  30.764  0.00  0.00    +0.145 HD
ATOM     42  H   UNL     1      -8.348 -48.103  31.412  0.00  0.00    +0.145 HD
ENDBRANCH  34  38
ENDBRANCH  10  32
BRANCH   6  43
ATOM     43  O   UNL     1     -16.322 -40.604  35.119  0.00  0.00    -0.505 OA
ATOM     44  H   UNL     1     -16.790 -39.871  34.772  0.00  0.00    +0.292 HD
ENDBRANCH   6  43
BRANCH   4  45
ATOM     45  O   UNL     1     -11.545 -40.456  35.447  0.00  0.00    -0.505 OA
ATOM     46  H   UNL     1     -11.591 -40.092  36.310  0.00  0.00    +0.292 HD
ENDBRANCH   4  45
TORSDOF 10
ENDMDL
