REMARK  Name = =
REMARK  0 active torsions:
REMARK  status: ('A' for Active; 'I' for Inactive)
REMARK                            x       y       z     vdW  Elec       q    Type
REMARK                         _______ _______ _______ _____ _____    ______ ____
ROOT
ATOM      1  C   UNL     1      -4.517  -4.506  32.210  0.00  0.00    +0.169 C 
ATOM      2  O   UNL     1      -4.107  -4.745  33.517  0.00  0.00    -0.341 OA
ATOM      3  C   UNL     1      -3.722  -6.031  33.768  0.00  0.00    +0.211 C 
ATOM      4  C   UNL     1      -3.336  -6.805  32.568  0.00  0.00    +0.203 C 
ATOM      5  O   UNL     1      -3.373  -8.082  32.543  0.00  0.00    -0.289 OA
ATOM      6  C   UNL     1      -2.903  -6.052  31.398  0.00  0.00    +0.038 C 
ATOM      7  C   UNL     1      -3.502  -4.886  31.215  0.00  0.00    +0.009 C 
ENDROOT
TORSDOF 0
