REMARK  Name = =
REMARK  1 active torsions:
REMARK  status: ('A' for Active; 'I' for Inactive)
REMARK    1  A    between atoms: C_4  and  O_8
REMARK                            x       y       z     vdW  Elec       q    Type
REMARK                         _______ _______ _______ _____ _____    ______ ____
ROOT
ATOM      1  C   UNL     1      -4.386  -4.113  30.879  0.00  0.00    +0.030 C 
ATOM      2  C   UNL     1      -3.662  -2.962  30.631  0.00  0.00    +0.143 C 
ATOM      3  C   UNL     1      -2.302  -3.042  30.337  0.00  0.00    +0.066 C 
ATOM      4  C   UNL     1      -1.637  -4.250  30.283  0.00  0.00    +0.136 C 
ATOM      5  C   UNL     1      -2.377  -5.383  30.532  0.00  0.00    +0.037 C 
ATOM      6  C   UNL     1      -3.737  -5.332  30.828  0.00  0.00    +0.005 C 
ATOM      7  F   UNL     1      -4.274  -1.751  30.674  0.00  0.00    -0.204 F 
ENDROOT
BRANCH   4   8
ATOM      8  O   UNL     1      -0.276  -4.319  29.988  0.00  0.00    -0.505 OA
ATOM      9  H   UNL     1       0.208  -3.534  29.822  0.00  0.00    +0.292 HD
ENDBRANCH   4   8
TORSDOF 1
