REMARK  Name = =
REMARK  2 active torsions:
REMARK  status: ('A' for Active; 'I' for Inactive)
REMARK    1  A    between atoms: C_4  and  O_12
REMARK    2  A    between atoms: C_6  and  N_8
REMARK                            x       y       z     vdW  Elec       q    Type
REMARK                         _______ _______ _______ _____ _____    ______ ____
ROOT
ATOM      1  C   UNL     1      -1.094  -7.158  30.658  0.00  0.00    +0.044 C 
ATOM      2  C   UNL     1      -1.394  -8.240  31.492  0.00  0.00    +0.144 C 
ATOM      3  C   UNL     1      -0.620  -8.481  32.623  0.00  0.00    +0.066 C 
ATOM      4  C   UNL     1       0.446  -7.664  32.939  0.00  0.00    +0.137 C 
ATOM      5  C   UNL     1       0.698  -6.606  32.079  0.00  0.00    +0.051 C 
ATOM      6  C   UNL     1      -0.044  -6.346  30.963  0.00  0.00    +0.053 C 
ATOM      7  F   UNL     1      -2.415  -9.053  31.220  0.00  0.00    -0.204 F 
ENDROOT
BRANCH   6   8
ATOM      8  N   UNL     1       0.272  -5.242  30.122  0.00  0.00    -0.307 N 
ATOM      9  C   UNL     1       0.939  -3.961  30.253  0.00  0.00    +0.093 C 
ATOM     10  C   UNL     1       0.053  -3.451  29.131  0.00  0.00    +0.043 C 
ATOM     11  C   UNL     1       0.049  -4.915  28.720  0.00  0.00    +0.093 C 
ENDBRANCH   6   8
BRANCH   4  12
ATOM     12  O   UNL     1       1.224  -7.903  34.073  0.00  0.00    -0.505 OA
ATOM     13  H   UNL     1       1.026  -8.628  34.633  0.00  0.00    +0.292 HD
ENDBRANCH   4  12
TORSDOF 2
