REMARK  Name = =
REMARK  3 active torsions:
REMARK  status: ('A' for Active; 'I' for Inactive)
REMARK    1  A    between atoms: C_1  and  C_8
REMARK    2  A    between atoms: C_4  and  O_19
REMARK    3  A    between atoms: C_6  and  N_15
REMARK                            x       y       z     vdW  Elec       q    Type
REMARK                         _______ _______ _______ _____ _____    ______ ____
ROOT
ATOM      1  C   UNL     1      -2.242   0.184  21.560  0.00  0.00    +0.047 C 
ATOM      2  C   UNL     1      -1.133  -0.616  21.743  0.00  0.00    +0.143 C 
ATOM      3  C   UNL     1       0.132  -0.071  21.679  0.00  0.00    +0.066 C 
ATOM      4  C   UNL     1       0.315   1.276  21.435  0.00  0.00    +0.137 C 
ATOM      5  C   UNL     1      -0.776   2.088  21.251  0.00  0.00    +0.051 C 
ATOM      6  C   UNL     1      -2.064   1.527  21.316  0.00  0.00    +0.051 C 
ATOM      7  F   UNL     1      -1.339  -1.932  21.980  0.00  0.00    -0.204 F 
ENDROOT
BRANCH   1   8
ATOM      8  C   UNL     1      -3.578  -0.385  21.623  0.00  0.00    +0.150 C 
ATOM      9  S   UNL     1      -3.708  -1.693  22.911  0.00  0.00    -0.115 S 
ATOM     10  C   UNL     1      -4.824  -2.811  21.967  0.00  0.00    +0.081 C 
ATOM     11  C   UNL     1      -5.177  -1.876  20.801  0.00  0.00    +0.107 C 
ATOM     12  N   UNL     1      -3.918  -1.201  20.465  0.00  0.00    -0.260 N 
ATOM     13  C   UNL     1      -3.231  -1.355  19.245  0.00  0.00    +0.304 C 
ATOM     14  O   UNL     1      -3.662  -2.099  18.348  0.00  0.00    -0.265 OA
ENDBRANCH   1   8
BRANCH   6  15
ATOM     15  N   UNL     1      -3.173   2.397  21.124  0.00  0.00    -0.307 N 
ATOM     16  C   UNL     1      -4.215   3.087  21.821  0.00  0.00    +0.093 C 
ATOM     17  C   UNL     1      -4.156   4.172  20.762  0.00  0.00    +0.043 C 
ATOM     18  C   UNL     1      -3.709   2.994  19.892  0.00  0.00    +0.093 C 
ENDBRANCH   6  15
BRANCH   4  19
ATOM     19  O   UNL     1       1.569   1.851  21.365  0.00  0.00    -0.505 OA
ATOM     20  H   UNL     1       2.334   1.323  21.486  0.00  0.00    +0.292 HD
ENDBRANCH   4  19
TORSDOF 3
