REMARK  Name = =
REMARK  8 active torsions:
REMARK  status: ('A' for Active; 'I' for Inactive)
REMARK    1  A    between atoms: C_1  and  C_17
REMARK    2  A    between atoms: C_12  and  O_32
REMARK    3  A    between atoms: C_15  and  N_22
REMARK    4  A    between atoms: N_22  and  C_23
REMARK    5  A    between atoms: C_26  and  C_29
REMARK    6  A    between atoms: O_32  and  P_33
REMARK    7  A    between atoms: P_33  and  O_35
REMARK    8  A    between atoms: P_33  and  O_36
REMARK                            x       y       z     vdW  Elec       q    Type
REMARK                         _______ _______ _______ _____ _____    ______ ____
ROOT
ATOM      1  C   UNL     1      -1.430  -6.175  30.114  0.00  0.00    +0.012 C 
ATOM      2  C   UNL     1      -0.645  -6.632  29.042  0.00  0.00    -0.001 C 
ATOM      3  C   UNL     1      -0.318  -7.976  29.052  0.00  0.00    +0.003 C 
ATOM      4  C   UNL     1      -0.726  -8.843  30.043  0.00  0.00    +0.000 C 
ATOM      5  C   UNL     1      -1.494  -8.383  31.080  0.00  0.00    -0.000 C 
ATOM      6  C   UNL     1      -1.849  -7.051  31.120  0.00  0.00    -0.001 C 
ATOM      7  C   UNL     1      -2.629  -6.615  32.171  0.00  0.00    -0.000 C 
ATOM      8  C   UNL     1      -3.025  -7.524  33.142  0.00  0.00    -0.000 C 
ATOM      9  C   UNL     1      -2.669  -8.862  33.105  0.00  0.00    -0.000 C 
ATOM     10  C   UNL     1      -1.897  -9.293  32.064  0.00  0.00    -0.000 C 
ATOM     11  C   UNL     1       0.448  -8.473  27.989  0.00  0.00    +0.037 C 
ATOM     12  C   UNL     1       0.863  -7.654  26.963  0.00  0.00    +0.149 C 
ATOM     13  C   UNL     1       0.519  -6.323  26.980  0.00  0.00    +0.037 C 
ATOM     14  C   UNL     1      -0.238  -5.798  28.016  0.00  0.00    +0.003 C 
ENDROOT
BRANCH   1  17
ATOM     15  C   UNL     1      -3.188  -3.114  29.432  0.00  0.00    +0.214 C 
ATOM     16  O   UNL     1      -2.697  -4.408  29.259  0.00  0.00    -0.324 OA
ATOM     17  C   UNL     1      -1.721  -4.751  30.199  0.00  0.00    +0.201 C 
ATOM     18  C   UNL     1      -0.538  -3.846  30.048  0.00  0.00    +0.204 C 
ATOM     19  O   UNL     1       0.607  -4.257  30.306  0.00  0.00    -0.288 OA
ATOM     20  C   UNL     1      -0.836  -2.500  29.593  0.00  0.00    +0.040 C 
ATOM     21  C   UNL     1      -2.074  -2.165  29.307  0.00  0.00    +0.027 C 
BRANCH  15  22
ATOM     22  N   UNL     1      -3.903  -2.967  30.668  0.00  0.00    -0.308 N 
ATOM     23  H   UNL     1      -3.869  -3.672  31.354  0.00  0.00    +0.149 HD
BRANCH  22  24
ATOM     24  C   UNL     1      -4.666  -1.776  30.884  0.00  0.00    +0.046 C 
ATOM     25  C   UNL     1      -4.198  -0.553  30.462  0.00  0.00    +0.015 C 
ATOM     26  C   UNL     1      -4.927   0.592  30.685  0.00  0.00    +0.006 C 
ATOM     27  C   UNL     1      -6.157   0.523  31.347  0.00  0.00    +0.053 C 
ATOM     28  C   UNL     1      -6.620  -0.700  31.765  0.00  0.00    +0.006 C 
ATOM     29  C   UNL     1      -5.882  -1.813  31.532  0.00  0.00    +0.015 C 
BRANCH  27  30
ATOM     30  C   UNL     1      -6.942   1.723  31.593  0.00  0.00    +0.243 C 
ATOM     31  O   UNL     1      -6.480   2.864  31.335  0.00  0.00    -0.270 OA
ATOM     32  N   UNL     1      -8.244   1.593  32.129  0.00  0.00    -0.325 N 
ATOM     33  H   UNL     1      -8.606   0.700  32.331  0.00  0.00    +0.145 HD
ATOM     34  H   UNL     1      -8.788   2.395  32.300  0.00  0.00    +0.145 HD
ENDBRANCH  27  30
ENDBRANCH  22  24
ENDBRANCH  15  22
ENDBRANCH   1  17
BRANCH  12  35
ATOM     35  O   UNL     1       1.626  -8.177  25.917  0.00  0.00    -0.403 OA
BRANCH  35  36
ATOM     36  P   UNL     1       1.023  -9.317  24.814  0.00  0.00    +0.528 P 
ATOM     37  O   UNL     1      -0.250  -9.894  25.339  0.00  0.00    -0.216 OA
BRANCH  36  38
ATOM     38  O   UNL     1       0.714  -8.614  23.296  0.00  0.00    -0.293 OA
ATOM     39  H   UNL     1       0.057  -7.907  23.395  0.00  0.00    +0.223 HD
ENDBRANCH  36  38
BRANCH  36  40
ATOM     40  O   UNL     1       2.183 -10.542  24.539  0.00  0.00    -0.293 OA
ATOM     41  H   UNL     1       2.397 -10.979  25.378  0.00  0.00    +0.223 HD
ENDBRANCH  36  40
ENDBRANCH  35  36
ENDBRANCH  12  35
TORSDOF 8
