REMARK  Name = =
REMARK  4 active torsions:
REMARK  status: ('A' for Active; 'I' for Inactive)
REMARK    1  A    between atoms: N_1  and  C_28
REMARK    2  A    between atoms: C_3  and  N_5
REMARK    3  A    between atoms: C_23  and  C_30
REMARK    4  A    between atoms: C_26  and  O_37
REMARK                            x       y       z     vdW  Elec       q    Type
REMARK                         _______ _______ _______ _____ _____    ______ ____
ROOT
ATOM      1  N   UNL     1      -4.043  -2.227  21.308  0.00  0.00    -0.305 N 
ATOM      2  C   UNL     1      -4.059  -3.426  20.514  0.00  0.00    +0.108 C 
ATOM      3  C   UNL     1      -5.360  -3.811  21.170  0.00  0.00    +0.097 C 
ATOM      4  C   UNL     1      -4.891  -2.893  22.269  0.00  0.00    +0.108 C 
ENDROOT
BRANCH   3   5
ATOM      5  N   UNL     1      -5.453  -5.172  21.593  0.00  0.00    -0.272 NA
ATOM      6  C   UNL     1      -6.638  -5.345  22.390  0.00  0.00    +0.066 C 
ATOM      7  C   UNL     1      -7.832  -5.125  21.501  0.00  0.00    +0.044 C 
ATOM      8  C   UNL     1      -7.849  -6.267  20.521  0.00  0.00    +0.065 C 
ATOM      9  C   UNL     1      -9.090  -6.366  19.666  0.00  0.00    +0.174 C 
ATOM     10  O   UNL     1      -9.028  -7.804  19.379  0.00  0.00    -0.479 OA
ATOM     11  C   UNL     1      -8.591  -8.445  20.528  0.00  0.00    +0.134 C 
ATOM     12  C   UNL     1      -7.889  -7.536  21.260  0.00  0.00    +0.011 C 
ATOM     13  C   UNL     1      -7.297  -7.748  22.458  0.00  0.00    -0.022 C 
ATOM     14  C   UNL     1      -7.409  -9.000  22.989  0.00  0.00    -0.004 C 
ATOM     15  C   UNL     1      -8.104  -9.999  22.317  0.00  0.00    +0.003 C 
ATOM     16  C   UNL     1      -8.690  -9.720  21.095  0.00  0.00    +0.037 C 
ATOM     17  C   UNL     1      -6.618  -6.647  23.153  0.00  0.00    +0.042 C 
ATOM     18  C   UNL     1     -10.340  -6.146  20.441  0.00  0.00    +0.070 C 
ATOM     19  C   UNL     1     -10.216  -5.478  21.728  0.00  0.00    -0.027 C 
ATOM     20  C   UNL     1      -9.118  -5.011  22.228  0.00  0.00    -0.029 C 
ATOM     21  C   UNL     1      -6.608  -6.181  19.679  0.00  0.00    +0.025 C 
ATOM     22  C   UNL     1      -5.359  -6.064  20.486  0.00  0.00    +0.073 C 
ENDBRANCH   3   5
BRANCH   1  28
ATOM     23  C   UNL     1      -4.123   0.165  20.746  0.00  0.00    +0.047 C 
ATOM     24  C   UNL     1      -3.503   1.421  20.750  0.00  0.00    +0.143 C 
ATOM     25  C   UNL     1      -2.248   1.606  21.283  0.00  0.00    +0.066 C 
ATOM     26  C   UNL     1      -1.589   0.524  21.825  0.00  0.00    +0.137 C 
ATOM     27  C   UNL     1      -2.198  -0.690  21.816  0.00  0.00    +0.051 C 
ATOM     28  C   UNL     1      -3.478  -0.917  21.283  0.00  0.00    +0.051 C 
ATOM     29  F   UNL     1      -4.162   2.455  20.219  0.00  0.00    -0.204 F 
BRANCH  23  30
ATOM     30  C   UNL     1      -5.472   0.041  20.164  0.00  0.00    +0.150 C 
ATOM     31  S   UNL     1      -6.492   1.516  20.601  0.00  0.00    -0.115 S 
ATOM     32  C   UNL     1      -7.210   1.796  18.945  0.00  0.00    +0.081 C 
ATOM     33  C   UNL     1      -6.841   0.447  18.307  0.00  0.00    +0.107 C 
ATOM     34  N   UNL     1      -5.472   0.200  18.720  0.00  0.00    -0.260 N 
ATOM     35  C   UNL     1      -4.329   0.128  17.842  0.00  0.00    +0.304 C 
ATOM     36  O   UNL     1      -4.489   0.288  16.617  0.00  0.00    -0.265 OA
ENDBRANCH  23  30
BRANCH  26  37
ATOM     37  O   UNL     1      -0.312   0.692  22.370  0.00  0.00    -0.505 OA
ATOM     38  H   UNL     1       0.091   1.538  22.367  0.00  0.00    +0.292 HD
ENDBRANCH  26  37
ENDBRANCH   1  28
TORSDOF 4
