REMARK  Name = =
REMARK  7 active torsions:
REMARK  status: ('A' for Active; 'I' for Inactive)
REMARK    1  A    between atoms: N_1  and  C_11
REMARK    2  A    between atoms: C_5  and  C_17
REMARK    3  A    between atoms: C_6  and  S_12
REMARK    4  A    between atoms: S_12  and  O_15
REMARK    5  A    between atoms: O_15  and  O_16
REMARK    6  A    between atoms: C_18  and  C_23
REMARK    7  A    between atoms: C_27  and  C_29
REMARK                            x       y       z     vdW  Elec       q    Type
REMARK                         _______ _______ _______ _____ _____    ______ ____
ROOT
ATOM      1  N   UNL     1      53.723 152.932  27.463  0.00  0.00    -0.190 N 
ATOM      2  N   UNL     1      53.571 152.420  28.711  0.00  0.00    -0.039 NA
ATOM      3  N   UNL     1      53.236 153.401  29.517  0.00  0.00    -0.022 NA
ATOM      4  N   UNL     1      53.180 154.498  28.789  0.00  0.00    -0.108 NA
ATOM      5  C   UNL     1      53.481 154.233  27.493  0.00  0.00    +0.188 A 
ENDROOT
BRANCH   1  11
ATOM      6  C   UNL     1      53.248 151.051  26.037  0.00  0.00    +0.130 C 
ATOM      7  C   UNL     1      53.608 150.141  25.042  0.00  0.00    +0.020 C 
ATOM      8  C   UNL     1      54.873 150.268  24.464  0.00  0.00    +0.001 C 
ATOM      9  C   UNL     1      55.747 151.259  24.860  0.00  0.00    +0.002 C 
ATOM     10  C   UNL     1      55.392 152.161  25.846  0.00  0.00    +0.021 C 
ATOM     11  C   UNL     1      54.118 152.035  26.428  0.00  0.00    +0.104 C 
BRANCH   6  12
ATOM     12  S   UNL     1      51.679 150.912  26.773  0.00  0.00    +0.042 S 
ATOM     13  O   UNL     1      50.965 152.240  26.647  0.00  0.00    -0.065 OA
ATOM     14  O   UNL     1      51.756 150.611  28.241  0.00  0.00    -0.065 OA
BRANCH  12  15
ATOM     15  O   UNL     1      50.762 149.722  25.974  0.00  0.00    -0.091 OA
BRANCH  15  16
ATOM     16  O   UNL     1      51.484 148.619  25.875  0.00  0.00    -0.227 OA
ATOM     17  H   UNL     1      50.968 147.935  25.420  0.00  0.00    +0.255 HD
ENDBRANCH  15  16
ENDBRANCH  12  15
ENDBRANCH   6  12
ENDBRANCH   1  11
BRANCH   5  18
ATOM     18  C   UNL     1      53.555 155.180  26.394  0.00  0.00    +0.038 C 
ATOM     19  C   UNL     1      52.810 156.334  26.527  0.00  0.00    +0.003 C 
ATOM     20  C   UNL     1      52.861 157.283  25.501  0.00  0.00    +0.000 C 
ATOM     21  C   UNL     1      53.636 157.075  24.383  0.00  0.00    +0.000 C 
ATOM     22  C   UNL     1      54.378 155.921  24.257  0.00  0.00    +0.000 C 
ATOM     23  C   UNL     1      54.344 154.958  25.264  0.00  0.00    +0.003 C 
BRANCH  19  24
ATOM     24  C   UNL     1      52.009 156.583  27.716  0.00  0.00    +0.000 C 
ATOM     25  C   UNL     1      51.107 155.580  28.076  0.00  0.00    +0.000 C 
ATOM     26  C   UNL     1      50.270 155.711  29.161  0.00  0.00    +0.000 C 
ATOM     27  C   UNL     1      50.365 156.895  29.885  0.00  0.00    +0.000 C 
ATOM     28  C   UNL     1      51.232 157.894  29.564  0.00  0.00    +0.000 C 
ATOM     29  C   UNL     1      52.064 157.722  28.456  0.00  0.00    +0.000 C 
BRANCH  28  30
ATOM     30  C   UNL     1      51.312 159.122  30.329  0.00  0.00    +0.006 C 
ATOM     31  C   UNL     1      50.323 159.623  31.011  0.00  0.00    +0.035 C 
ATOM     32  I   UNL     1      50.634 161.438  32.074  0.00  0.00    -0.042 I 
ENDBRANCH  28  30
ENDBRANCH  19  24
ENDBRANCH   5  18
TORSDOF 7
