MODEL 1
REMARK VINA RESULT:    -5.088      0.000      0.000
REMARK INTER + INTRA:          -7.722
REMARK INTER:                  -6.872
REMARK INTRA:                  -0.850
REMARK UNBOUND:                -0.850
REMARK  Name = =
REMARK  6 active torsions:
REMARK  status: ('A' for Active; 'I' for Inactive)
REMARK    1  A    between atoms: N_1  and  C_10
REMARK    2  A    between atoms: N_1  and  S_18
REMARK    3  A    between atoms: C_2  and  C_4
REMARK    4  A    between atoms: C_10  and  N_12
REMARK    5  A    between atoms: S_18  and  C_19
REMARK    6  A    between atoms: S_18  and  C_22
REMARK                            x       y       z     vdW  Elec       q    Type
REMARK                         _______ _______ _______ _____ _____    ______ ____
ROOT
ATOM      1  N   UNL     1      58.192 160.476  40.821  0.00  0.00    -0.191 N 
ATOM      2  C   UNL     1      57.232 160.964  41.696  0.00  0.00    +0.264 C 
ATOM      3  O   UNL     1      57.443 160.643  42.983  0.00  0.00    -0.269 OA
ENDROOT
BRANCH   2   4
ATOM      4  C   UNL     1      56.043 161.746  41.570  0.00  0.00    +0.074 C 
ATOM      5  C   UNL     1      56.109 163.149  41.444  0.00  0.00    +0.103 C 
ATOM      6  N   UNL     1      55.015 163.921  41.359  0.00  0.00    -0.242 NA
ATOM      7  C   UNL     1      53.781 163.428  41.385  0.00  0.00    +0.099 C 
ATOM      8  C   UNL     1      53.624 162.074  41.505  0.00  0.00    +0.021 C 
ATOM      9  C   UNL     1      54.765 161.268  41.595  0.00  0.00    +0.008 C 
ENDBRANCH   2   4
BRANCH   1  10
ATOM     10  C   UNL     1      59.247 159.656  41.441  0.00  0.00    +0.181 C 
ATOM     11  S   UNL     1      58.933 158.065  41.637  0.00  0.00    -0.015 S 
BRANCH  10  12
ATOM     12  N   UNL     1      60.484 160.196  41.848  0.00  0.00    -0.120 N 
ATOM     13  N   UNL     1      60.705 160.902  42.940  0.00  0.00    -0.150 NA
ATOM     14  C   UNL     1      62.030 161.192  42.969  0.00  0.00    +0.187 C 
ATOM     15  N   UNL     1      62.645 160.669  41.892  0.00  0.00    -0.248 N 
ATOM     16  C   UNL     1      61.667 160.055  41.209  0.00  0.00    +0.333 C 
ATOM     17  O   UNL     1      61.827 159.426  40.115  0.00  0.00    -0.250 OA
ATOM     18  H   UNL     1      63.599 160.726  41.657  0.00  0.00    +0.158 HD
ENDBRANCH  10  12
ENDBRANCH   1  10
BRANCH   1  19
ATOM     19  S   UNL     1      58.446 160.677  39.161  0.00  0.00    -0.031 S 
ATOM     20  H   UNL     1      57.284 161.117  38.610  0.00  0.00    +0.123 HD
BRANCH  19  21
ATOM     21  C   UNL     1      59.592 161.888  38.841  0.00  0.00    +0.173 C 
ATOM     22  C   UNL     1      59.708 163.005  39.506  0.00  0.00    +0.040 C 
ATOM     23  F   UNL     1      60.576 161.706  37.860  0.00  0.00    -0.197 F 
ENDBRANCH  19  21
BRANCH  19  24
ATOM     24  C   UNL     1      58.793 159.193  38.399  0.00  0.00    +0.134 C 
ATOM     25  N   UNL     1      59.037 158.207  37.882  0.00  0.00    -0.184 NA
ENDBRANCH  19  24
ENDBRANCH   1  19
TORSDOF 6
ENDMDL
