REMARK  Name = =
REMARK  3 active torsions:
REMARK  status: ('A' for Active; 'I' for Inactive)
REMARK    1  A    between atoms: N_1  and  C_7
REMARK    2  A    between atoms: N_4  and  C_17
REMARK    3  A    between atoms: C_18  and  O_23
REMARK                            x       y       z     vdW  Elec       q    Type
REMARK                         _______ _______ _______ _____ _____    ______ ____
ROOT
ATOM      1  N   UNL     1     -14.410 -43.003  26.229  0.00  0.00    -0.307 N 
ATOM      2  C   UNL     1     -14.254 -42.792  24.804  0.00  0.00    +0.112 C 
ATOM      3  C   UNL     1     -15.353 -41.828  24.343  0.00  0.00    +0.112 C 
ATOM      4  N   UNL     1     -16.441 -41.799  25.294  0.00  0.00    -0.302 N 
ATOM      5  C   UNL     1     -16.149 -41.430  26.670  0.00  0.00    +0.112 C 
ATOM      6  C   UNL     1     -14.666 -41.740  26.878  0.00  0.00    +0.112 C 
ENDROOT
BRANCH   1   7
ATOM      7  C   UNL     1     -13.299 -43.624  26.821  0.00  0.00    +0.025 C 
ATOM      8  C   UNL     1     -13.398 -44.912  27.178  0.00  0.00    -0.011 C 
ATOM      9  C   UNL     1     -12.238 -45.601  27.808  0.00  0.00    +0.053 C 
ATOM     10  C   UNL     1     -11.316 -44.695  28.502  0.00  0.00    -0.021 C 
ATOM     11  C   UNL     1     -11.231 -43.384  28.130  0.00  0.00    -0.020 C 
ATOM     12  C   UNL     1     -10.361 -42.519  28.779  0.00  0.00    -0.004 C 
ATOM     13  C   UNL     1      -9.582 -43.018  29.812  0.00  0.00    -0.000 C 
ATOM     14  C   UNL     1      -9.662 -44.359  30.199  0.00  0.00    -0.000 C 
ATOM     15  C   UNL     1     -10.532 -45.209  29.544  0.00  0.00    -0.004 C 
ATOM     16  C   UNL     1     -12.055 -42.849  27.038  0.00  0.00    +0.067 C 
ENDBRANCH   1   7
BRANCH   4  17
ATOM     17  C   UNL     1     -17.788 -42.109  24.965  0.00  0.00    +0.082 C 
ATOM     18  C   UNL     1     -18.341 -41.680  23.780  0.00  0.00    +0.147 C 
ATOM     19  C   UNL     1     -19.651 -41.976  23.447  0.00  0.00    +0.038 C 
ATOM     20  C   UNL     1     -20.427 -42.714  24.315  0.00  0.00    +0.003 C 
ATOM     21  C   UNL     1     -19.896 -43.153  25.505  0.00  0.00    +0.001 C 
ATOM     22  C   UNL     1     -18.592 -42.846  25.812  0.00  0.00    +0.018 C 
BRANCH  18  23
ATOM     23  O   UNL     1     -17.623 -40.932  22.855  0.00  0.00    -0.504 OA
ATOM     24  H   UNL     1     -16.731 -40.703  23.029  0.00  0.00    +0.292 HD
ENDBRANCH  18  23
ENDBRANCH   4  17
TORSDOF 3
