REMARK  Name = =
REMARK  9 active torsions:
REMARK  status: ('A' for Active; 'I' for Inactive)
REMARK    1  A    between atoms: C_1  and  N_10
REMARK    2  A    between atoms: C_2  and  O_46
REMARK    3  A    between atoms: C_4  and  N_34
REMARK    4  A    between atoms: C_6  and  C_29
REMARK    5  A    between atoms: N_7  and  C_13
REMARK    6  A    between atoms: C_19  and  C_23
REMARK    7  A    between atoms: N_34  and  C_37
REMARK    8  A    between atoms: C_40  and  C_43
REMARK    9  A    between atoms: C_43  and  O_45
REMARK                            x       y       z     vdW  Elec       q    Type
REMARK                         _______ _______ _______ _____ _____    ______ ____
ROOT
ATOM      1  C   UNL     1     -19.975 -40.781  24.879  0.00  0.00    +0.082 C 
ATOM      2  C   UNL     1     -20.551 -40.613  26.141  0.00  0.00    +0.148 C 
ATOM      3  C   UNL     1     -21.799 -40.061  26.326  0.00  0.00    +0.053 C 
ATOM      4  C   UNL     1     -22.522 -39.650  25.214  0.00  0.00    +0.062 C 
ATOM      5  C   UNL     1     -21.962 -39.811  23.968  0.00  0.00    +0.017 C 
ATOM      6  C   UNL     1     -20.693 -40.374  23.791  0.00  0.00    +0.022 C 
ENDROOT
BRANCH   1  10
ATOM      7  N   UNL     1     -16.066 -41.641  25.741  0.00  0.00    -0.307 N 
ATOM      8  C   UNL     1     -17.150 -42.114  26.528  0.00  0.00    +0.112 C 
ATOM      9  C   UNL     1     -18.371 -42.487  25.770  0.00  0.00    +0.112 C 
ATOM     10  N   UNL     1     -18.711 -41.400  24.847  0.00  0.00    -0.302 N 
ATOM     11  C   UNL     1     -17.645 -41.004  23.953  0.00  0.00    +0.112 C 
ATOM     12  C   UNL     1     -16.329 -41.649  24.321  0.00  0.00    +0.112 C 
BRANCH   7  13
ATOM     13  C   UNL     1     -14.945 -42.540  25.926  0.00  0.00    +0.025 C 
ATOM     14  C   UNL     1     -14.958 -43.718  25.345  0.00  0.00    -0.011 C 
ATOM     15  C   UNL     1     -13.890 -44.745  25.439  0.00  0.00    +0.053 C 
ATOM     16  C   UNL     1     -13.094 -44.496  26.666  0.00  0.00    -0.021 C 
ATOM     17  C   UNL     1     -13.045 -43.275  27.293  0.00  0.00    -0.020 C 
ATOM     18  C   UNL     1     -12.287 -43.064  28.449  0.00  0.00    -0.003 C 
ATOM     19  C   UNL     1     -11.550 -44.076  29.017  0.00  0.00    +0.021 C 
ATOM     20  C   UNL     1     -11.605 -45.311  28.375  0.00  0.00    +0.001 C 
ATOM     21  C   UNL     1     -12.346 -45.532  27.238  0.00  0.00    -0.004 C 
ATOM     22  C   UNL     1     -13.798 -42.128  26.755  0.00  0.00    +0.067 C 
BRANCH  19  23
ATOM     23  C   UNL     1     -10.751 -43.894  30.220  0.00  0.00    +0.122 C 
ATOM     24  N   UNL     1     -10.052 -44.968  30.681  0.00  0.00    -0.145 NA
ATOM     25  N   UNL     1      -9.300 -44.905  31.763  0.00  0.00    -0.125 NA
ATOM     26  C   UNL     1      -9.182 -43.769  32.475  0.00  0.00    +0.222 C 
ATOM     27  N   UNL     1      -9.863 -42.689  32.042  0.00  0.00    -0.219 NA
ATOM     28  C   UNL     1     -10.641 -42.735  30.930  0.00  0.00    +0.122 C 
ENDBRANCH  19  23
ENDBRANCH   7  13
ENDBRANCH   1  10
BRANCH   6  29
ATOM     29  C   UNL     1     -20.223 -40.479  22.433  0.00  0.00    +0.064 C 
ATOM     30  C   UNL     1     -20.581 -41.495  21.527  0.00  0.00    +0.214 C 
ATOM     31  O   UNL     1     -19.984 -41.212  20.416  0.00  0.00    -0.350 OA
ATOM     32  N   UNL     1     -19.288 -40.135  20.502  0.00  0.00    -0.075 NA
ATOM     33  C   UNL     1     -19.404 -39.630  21.757  0.00  0.00    +0.144 C 
ENDBRANCH   6  29
BRANCH   4  34
ATOM     34  N   UNL     1     -23.806 -39.069  25.324  0.00  0.00    -0.230 N 
ATOM     35  C   UNL     1     -24.658 -38.989  24.200  0.00  0.00    +0.311 C 
ATOM     36  O   UNL     1     -25.800 -38.469  24.304  0.00  0.00    -0.264 OA
BRANCH  34  37
ATOM     37  C   UNL     1     -24.252 -38.556  26.565  0.00  0.00    +0.059 C 
ATOM     38  C   UNL     1     -23.716 -37.335  26.965  0.00  0.00    +0.015 C 
ATOM     39  C   UNL     1     -24.100 -36.772  28.154  0.00  0.00    +0.008 C 
ATOM     40  C   UNL     1     -25.015 -37.416  28.951  0.00  0.00    +0.076 C 
ATOM     41  C   UNL     1     -25.569 -38.643  28.578  0.00  0.00    +0.008 C 
ATOM     42  C   UNL     1     -25.163 -39.180  27.379  0.00  0.00    +0.015 C 
BRANCH  40  43
ATOM     43  C   UNL     1     -25.422 -36.824  30.203  0.00  0.00    +0.338 C 
ATOM     44  O   UNL     1     -24.853 -35.780  30.612  0.00  0.00    -0.245 OA
BRANCH  43  45
ATOM     45  O   UNL     1     -26.437 -37.362  31.000  0.00  0.00    -0.477 OA
ATOM     46  H   UNL     1     -26.884 -38.139  30.728  0.00  0.00    +0.295 HD
ENDBRANCH  43  45
ENDBRANCH  40  43
ENDBRANCH  34  37
ENDBRANCH   4  34
BRANCH   2  47
ATOM     47  O   UNL     1     -19.849 -41.015  27.262  0.00  0.00    -0.504 OA
ATOM     48  H   UNL     1     -18.997 -41.394  27.170  0.00  0.00    +0.292 HD
ENDBRANCH   2  47
TORSDOF 9
