MODEL 1
REMARK VINA RESULT:    -9.142      0.000      0.000
REMARK INTER + INTRA:         -17.908
REMARK INTER:                 -13.417
REMARK INTRA:                  -4.491
REMARK UNBOUND:                -4.491
REMARK  Name = =
REMARK  8 active torsions:
REMARK  status: ('A' for Active; 'I' for Inactive)
REMARK    1  A    between atoms: C_1  and  C_2
REMARK    2  A    between atoms: C_1  and  C_3
REMARK    3  A    between atoms: C_1  and  S_29
REMARK    4  A    between atoms: C_2  and  C_17
REMARK    5  A    between atoms: C_2  and  C_32
REMARK    6  A    between atoms: C_32  and  O_34
REMARK    7  A    between atoms: O_34  and  C_35
REMARK    8  A    between atoms: C_38  and  C_43
REMARK                            x       y       z     vdW  Elec       q    Type
REMARK                         _______ _______ _______ _____ _____    ______ ____
ROOT
ATOM      1  C   UNL     1       3.788  -5.319  26.795  0.00  0.00    +0.139 C 
ENDROOT
BRANCH   1   2
ATOM      2  C   UNL     1       4.303  -4.808  25.558  0.00  0.00    +0.031 C 
ATOM      3  C   UNL     1       5.633  -4.525  25.435  0.00  0.00    +0.041 C 
ATOM      4  C   UNL     1       6.255  -4.016  24.228  0.00  0.00    +0.196 C 
ATOM      5  O   UNL     1       7.489  -3.785  24.221  0.00  0.00    -0.287 OA
ATOM      6  C   UNL     1       5.497  -3.770  23.040  0.00  0.00    +0.042 C 
ATOM      7  C   UNL     1       4.156  -4.028  23.068  0.00  0.00    +0.042 C 
ATOM      8  C   UNL     1       3.365  -3.812  21.957  0.00  0.00    +0.003 C 
ATOM      9  C   UNL     1       3.927  -3.333  20.808  0.00  0.00    +0.000 C 
ATOM     10  C   UNL     1       5.276  -3.064  20.750  0.00  0.00    +0.000 C 
ATOM     11  C   UNL     1       6.043  -3.287  21.870  0.00  0.00    +0.003 C 
ATOM     12  C   UNL     1       3.569  -4.548  24.334  0.00  0.00    +0.192 C 
ATOM     13  O   UNL     1       2.359  -4.752  24.256  0.00  0.00    -0.287 OA
ENDBRANCH   1   2
BRANCH   1  14
ATOM     14  C   UNL     1       3.902  -4.318  27.933  0.00  0.00    +0.326 C 
ATOM     15  O   UNL     1       4.659  -4.407  28.902  0.00  0.00    -0.249 OA
BRANCH  14  16
ATOM     16  O   UNL     1       3.105  -3.180  27.960  0.00  0.00    -0.421 OA
BRANCH  16  17
ATOM     17  C   UNL     1       1.752  -3.208  28.276  0.00  0.00    +0.178 C 
ATOM     18  C   UNL     1       0.748  -2.989  27.367  0.00  0.00    +0.202 C 
ATOM     19  C   UNL     1      -0.568  -3.043  27.796  0.00  0.00    +0.172 C 
ATOM     20  C   UNL     1      -0.933  -3.305  29.093  0.00  0.00    +0.051 C 
ATOM     21  C   UNL     1       0.103  -3.522  29.989  0.00  0.00    +0.007 C 
ATOM     22  C   UNL     1       1.405  -3.473  29.580  0.00  0.00    +0.040 C 
ATOM     23  F   UNL     1      -1.552  -2.822  26.870  0.00  0.00    -0.202 F 
ATOM     24  F   UNL     1       1.063  -2.727  26.071  0.00  0.00    -0.199 F 
BRANCH  20  25
ATOM     25  C   UNL     1      -2.306  -3.366  29.573  0.00  0.00    +0.124 C 
ATOM     26  N   UNL     1      -2.832  -2.577  30.538  0.00  0.00    -0.204 NA
ATOM     27  C   UNL     1      -4.112  -2.884  30.748  0.00  0.00    +0.285 C 
ATOM     28  O   UNL     1      -4.384  -3.858  29.920  0.00  0.00    -0.428 OA
ATOM     29  C   UNL     1      -3.335  -4.185  29.193  0.00  0.00    +0.201 C 
ENDBRANCH  20  25
ENDBRANCH  16  17
ENDBRANCH  14  16
ENDBRANCH   1  14
BRANCH   1  30
ATOM     30  C   UNL     1       3.477  -6.478  27.211  0.00  0.00    +0.091 C 
BRANCH  30  31
ATOM     31  C   UNL     1       2.100  -6.721  27.801  0.00  0.00    -0.010 C 
ATOM     32  C   UNL     1       1.908  -7.007  29.121  0.00  0.00    +0.016 C 
ATOM     33  C   UNL     1       0.597  -7.179  29.606  0.00  0.00    +0.081 C 
ATOM     34  N   UNL     1       0.465  -7.462  30.932  0.00  0.00    -0.244 NA
ATOM     35  C   UNL     1      -0.771  -7.635  31.438  0.00  0.00    +0.099 C 
ATOM     36  C   UNL     1      -1.867  -7.522  30.610  0.00  0.00    +0.099 C 
ATOM     37  N   UNL     1      -3.115  -7.699  31.133  0.00  0.00    -0.242 NA
ATOM     38  C   UNL     1      -3.313  -7.981  32.433  0.00  0.00    +0.099 C 
ATOM     39  C   UNL     1      -2.248  -8.104  33.300  0.00  0.00    +0.022 C 
ATOM     40  C   UNL     1      -0.985  -7.925  32.770  0.00  0.00    +0.022 C 
ATOM     41  C   UNL     1      -1.741  -7.236  29.271  0.00  0.00    +0.022 C 
ATOM     42  C   UNL     1      -0.465  -7.057  28.747  0.00  0.00    +0.019 C 
ATOM     43  C   UNL     1      -0.262  -6.772  27.430  0.00  0.00    +0.001 C 
ATOM     44  C   UNL     1       1.040  -6.601  26.950  0.00  0.00    -0.003 C 
ENDBRANCH  30  31
BRANCH  30  45
ATOM     45  S   UNL     1       4.385  -7.960  27.195  0.00  0.00    -0.088 S 
ATOM     46  O   UNL     1       4.360  -8.495  25.691  0.00  0.00    -0.174 OA
ATOM     47  C   UNL     1       5.959  -7.744  27.281  0.00  0.00    +0.076 C 
ATOM     48  H   UNL     1       3.867  -8.710  28.204  0.00  0.00    +0.114 HD
ENDBRANCH  30  45
ENDBRANCH   1  30
TORSDOF 8
ENDMDL
