MODEL 1
REMARK VINA RESULT:   -10.715      0.000      0.000
REMARK INTER + INTRA:         -16.606
REMARK INTER:                 -14.473
REMARK INTRA:                  -2.133
REMARK UNBOUND:                -2.133
REMARK  Name = =
REMARK  6 active torsions:
REMARK  status: ('A' for Active; 'I' for Inactive)
REMARK    1  A    between atoms: C_1  and  C_4
REMARK    2  A    between atoms: C_1  and  C_23
REMARK    3  A    between atoms: N_2  and  C_10
REMARK    4  A    between atoms: C_11  and  N_15
REMARK    5  A    between atoms: C_23  and  C_25
REMARK    6  A    between atoms: C_33  and  N_36
REMARK                            x       y       z     vdW  Elec       q    Type
REMARK                         _______ _______ _______ _____ _____    ______ ____
ROOT
ATOM      1  C   UNL     1       0.003  -3.727  29.516  0.00  0.00    +0.039 C 
ENDROOT
BRANCH   1   4
ATOM      2  N   UNL     1       1.917  -2.660  26.565  0.00  0.00    -0.269 NA
ATOM      3  C   UNL     1       1.406  -3.595  27.466  0.00  0.00    +0.088 C 
ATOM      4  C   UNL     1       1.196  -3.041  28.860  0.00  0.00    +0.074 C 
ATOM      5  N   UNL     1       0.987  -1.614  28.751  0.00  0.00    -0.296 NA
ATOM      6  C   UNL     1       2.254  -1.034  28.356  0.00  0.00    +0.086 C 
ATOM      7  C   UNL     1       2.623  -1.528  27.003  0.00  0.00    +0.089 C 
ATOM      8  H   UNL     1       0.691  -1.233  29.650  0.00  0.00    +0.123 HD
BRANCH   2  11
ATOM      9  N   UNL     1       3.242  -2.262  23.370  0.00  0.00    -0.269 N 
ATOM     10  C   UNL     1       2.083  -2.278  24.239  0.00  0.00    +0.112 C 
ATOM     11  C   UNL     1       2.406  -3.263  25.345  0.00  0.00    +0.098 C 
ATOM     12  C   UNL     1       3.860  -3.427  25.235  0.00  0.00    +0.118 C 
ATOM     13  C   UNL     1       4.115  -3.359  23.738  0.00  0.00    +0.115 C 
ATOM     14  C   UNL     1       3.463  -1.326  22.347  0.00  0.00    +0.303 C 
ATOM     15  O   UNL     1       4.496  -1.395  21.648  0.00  0.00    -0.265 OA
BRANCH  12  16
ATOM     16  N   UNL     1       4.431  -4.596  25.829  0.00  0.00    -0.228 N 
ATOM     17  C   UNL     1       5.507  -4.587  26.753  0.00  0.00    +0.231 C 
ATOM     18  O   UNL     1       6.052  -3.485  27.009  0.00  0.00    -0.274 OA
ATOM     19  C   UNL     1       6.050  -5.769  27.449  0.00  0.00    +0.086 C 
ATOM     20  C   UNL     1       5.358  -7.050  27.091  0.00  0.00    +0.019 C 
ATOM     21  C   UNL     1       4.804  -7.053  25.691  0.00  0.00    +0.086 C 
ATOM     22  C   UNL     1       3.916  -5.877  25.507  0.00  0.00    +0.231 C 
ATOM     23  O   UNL     1       2.755  -6.061  25.075  0.00  0.00    -0.274 OA
ENDBRANCH  12  16
ENDBRANCH   2  11
ENDBRANCH   1   4
BRANCH   1  24
ATOM     24  C   UNL     1       0.472  -4.902  30.289  0.00  0.00    -0.039 C 
ATOM     25  C   UNL     1       1.562  -4.766  31.102  0.00  0.00    -0.009 C 
BRANCH  24  26
ATOM     26  C   UNL     1      -0.117  -6.232  30.284  0.00  0.00    +0.038 C 
ATOM     27  C   UNL     1       0.262  -7.138  29.123  0.00  0.00    +0.008 C 
ATOM     28  C   UNL     1       1.722  -7.205  28.843  0.00  0.00    +0.001 C 
ATOM     29  C   UNL     1       1.931  -8.288  27.771  0.00  0.00    +0.000 C 
ATOM     30  C   UNL     1       0.593  -8.722  27.207  0.00  0.00    +0.000 C 
ATOM     31  C   UNL     1      -0.266  -9.368  28.270  0.00  0.00    +0.000 C 
ATOM     32  C   UNL     1      -0.203  -8.542  29.561  0.00  0.00    +0.002 C 
ATOM     33  C   UNL     1      -1.584  -8.397  30.153  0.00  0.00    +0.020 C 
ATOM     34  C   UNL     1      -1.448  -7.889  31.581  0.00  0.00    +0.077 C 
ATOM     35  C   UNL     1      -0.204  -7.017  31.514  0.00  0.00    -0.027 C 
ATOM     36  C   UNL     1       0.682  -7.056  32.442  0.00  0.00    -0.008 C 
BRANCH  34  37
ATOM     37  N   UNL     1      -2.593  -7.223  32.040  0.00  0.00    -0.267 NA
ATOM     38  C   UNL     1      -3.558  -6.814  31.106  0.00  0.00    +0.099 C 
ATOM     39  C   UNL     1      -3.943  -5.406  31.394  0.00  0.00    -0.010 C 
ATOM     40  C   UNL     1      -4.177  -5.094  32.714  0.00  0.00    -0.023 C 
ATOM     41  C   UNL     1      -4.539  -3.813  33.084  0.00  0.00    -0.004 C 
ATOM     42  C   UNL     1      -4.654  -2.873  32.073  0.00  0.00    -0.000 C 
ATOM     43  C   UNL     1      -4.425  -3.157  30.744  0.00  0.00    -0.000 C 
ATOM     44  C   UNL     1      -4.060  -4.462  30.399  0.00  0.00    -0.003 C 
ATOM     45  C   UNL     1      -4.021  -6.195  33.701  0.00  0.00    +0.043 C 
ATOM     46  C   UNL     1      -2.826  -7.077  33.407  0.00  0.00    +0.077 C 
ENDBRANCH  34  37
ENDBRANCH  24  26
ENDBRANCH   1  24
TORSDOF 6
ENDMDL
