REMARK  Name = =
REMARK  2 active torsions:
REMARK  status: ('A' for Active; 'I' for Inactive)
REMARK    1  A    between atoms: N_8  and  C_9
REMARK    2  A    between atoms: C_9  and  O_11
REMARK                            x       y       z     vdW  Elec       q    Type
REMARK                         _______ _______ _______ _____ _____    ______ ____
ROOT
ATOM      1  N   UNL     1      -3.151  -3.843  31.148  0.00  0.00    -0.214 N 
ATOM      2  C   UNL     1      -3.857  -3.234  32.256  0.00  0.00    +0.112 C 
ATOM      3  C   UNL     1      -5.081  -3.989  31.720  0.00  0.00    +0.108 C 
ATOM      4  C   UNL     1      -4.046  -4.937  31.254  0.00  0.00    +0.234 C 
ATOM      5  O   UNL     1      -3.944  -6.160  31.035  0.00  0.00    -0.274 OA
ATOM      6  C   UNL     1      -2.069  -3.581  30.281  0.00  0.00    +0.311 C 
ATOM      7  O   UNL     1      -1.427  -2.500  30.410  0.00  0.00    -0.252 OA
ATOM      8  N   UNL     1      -1.664  -4.470  29.269  0.00  0.00    -0.267 N 
ATOM      9  H   UNL     1      -2.160  -5.314  29.162  0.00  0.00    +0.153 HD
ENDROOT
BRANCH   8  10
ATOM     10  C   UNL     1      -0.556  -4.206  28.379  0.00  0.00    +0.189 C 
ATOM     11  C   UNL     1      -1.029  -3.183  27.356  0.00  0.00    +0.055 C 
BRANCH  10  12
ATOM     12  O   UNL     1      -0.184  -5.356  27.725  0.00  0.00    -0.367 OA
ATOM     13  H   UNL     1       0.559  -5.165  27.132  0.00  0.00    +0.212 HD
ENDBRANCH  10  12
ENDBRANCH   8  10
TORSDOF 2
