REMARK  Name = =
REMARK  10 active torsions:
REMARK  status: ('A' for Active; 'I' for Inactive)
REMARK    1  A    between atoms: N_1  and  C_24
REMARK    2  A    between atoms: C_2  and  N_7
REMARK    3  A    between atoms: C_9  and  C_21
REMARK    4  A    between atoms: C_11  and  C_13
REMARK    5  A    between atoms: C_13  and  O_15
REMARK    6  A    between atoms: O_15  and  C_16
REMARK    7  A    between atoms: C_21  and  O_23
REMARK    8  A    between atoms: C_24  and  C_25
REMARK    9  A    between atoms: C_25  and  N_33
REMARK   10  A    between atoms: C_25  and  O_34
REMARK                            x       y       z     vdW  Elec       q    Type
REMARK                         _______ _______ _______ _____ _____    ______ ____
ROOT
ATOM      1  N   UNL     1      -1.395  -5.122  30.604  0.00  0.00    -0.255 NA
ATOM      2  C   UNL     1      -2.735  -5.106  30.128  0.00  0.00    +0.135 C 
ATOM      3  C   UNL     1      -3.352  -6.465  30.004  0.00  0.00    +0.037 C 
ATOM      4  C   UNL     1      -3.049  -7.425  31.099  0.00  0.00    +0.005 C 
ATOM      5  C   UNL     1      -1.722  -7.239  31.778  0.00  0.00    +0.017 C 
ATOM      6  C   UNL     1      -0.854  -6.424  30.791  0.00  0.00    +0.074 C 
ENDROOT
BRANCH   2   7
ATOM      7  N   UNL     1      -3.597  -4.165  30.861  0.00  0.00    -0.291 N 
ATOM      8  C   UNL     1      -4.312  -4.563  32.019  0.00  0.00    +0.125 C 
ATOM      9  C   UNL     1      -5.100  -3.762  32.717  0.00  0.00    +0.073 C 
ATOM     10  C   UNL     1      -5.269  -2.377  32.299  0.00  0.00    +0.012 C 
ATOM     11  C   UNL     1      -4.529  -1.976  31.111  0.00  0.00    +0.090 C 
ATOM     12  C   UNL     1      -3.750  -2.803  30.437  0.00  0.00    +0.069 C 
BRANCH  11  13
ATOM     13  C   UNL     1      -4.661  -0.587  30.659  0.00  0.00    +0.342 C 
ATOM     14  O   UNL     1      -3.819  -0.072  29.853  0.00  0.00    -0.245 OA
BRANCH  13  15
ATOM     15  O   UNL     1      -5.686   0.235  31.076  0.00  0.00    -0.449 OA
BRANCH  15  16
ATOM     16  C   UNL     1      -6.044   1.438  30.419  0.00  0.00    +0.169 C 
ATOM     17  C   UNL     1      -6.053   2.614  31.364  0.00  0.00    +0.044 C 
ATOM     18  C   UNL     1      -7.547   2.889  31.587  0.00  0.00    +0.004 C 
ATOM     19  C   UNL     1      -8.100   2.588  30.186  0.00  0.00    +0.004 C 
ATOM     20  C   UNL     1      -7.474   1.237  29.938  0.00  0.00    +0.044 C 
ENDBRANCH  15  16
ENDBRANCH  13  15
ENDBRANCH  11  13
BRANCH   9  21
ATOM     21  C   UNL     1      -5.811  -4.231  33.903  0.00  0.00    +0.336 C 
ATOM     22  O   UNL     1      -6.783  -3.579  34.357  0.00  0.00    -0.245 OA
BRANCH  21  23
ATOM     23  O   UNL     1      -5.455  -5.392  34.574  0.00  0.00    -0.477 OA
ATOM     24  H   UNL     1      -4.735  -5.908  34.268  0.00  0.00    +0.295 HD
ENDBRANCH  21  23
ENDBRANCH   9  21
ENDBRANCH   2   7
BRANCH   1  25
ATOM     25  C   UNL     1      -0.476  -4.260  29.950  0.00  0.00    +0.124 C 
BRANCH  25  26
ATOM     26  C   UNL     1      -0.351  -4.400  28.474  0.00  0.00    +0.205 C 
BRANCH  26  34
ATOM     27  N   UNL     1       1.390  -1.647  26.438  0.00  0.00    -0.214 N 
ATOM     28  C   UNL     1       1.502  -0.638  25.415  0.00  0.00    +0.112 C 
ATOM     29  C   UNL     1       3.001  -0.968  25.436  0.00  0.00    +0.108 C 
ATOM     30  C   UNL     1       2.721  -1.362  26.823  0.00  0.00    +0.234 C 
ATOM     31  O   UNL     1       3.302  -1.453  27.939  0.00  0.00    -0.274 OA
ATOM     32  C   UNL     1       0.422  -2.559  26.914  0.00  0.00    +0.311 C 
ATOM     33  O   UNL     1      -0.710  -2.562  26.339  0.00  0.00    -0.252 OA
ATOM     34  N   UNL     1       0.667  -3.455  27.992  0.00  0.00    -0.266 N 
ATOM     35  H   UNL     1       1.549  -3.442  28.430  0.00  0.00    +0.153 HD
ENDBRANCH  26  34
BRANCH  26  36
ATOM     36  O   UNL     1       0.111  -5.678  28.171  0.00  0.00    -0.366 OA
ATOM     37  H   UNL     1      -0.535  -6.335  28.474  0.00  0.00    +0.212 HD
ENDBRANCH  26  36
ENDBRANCH  25  26
ENDBRANCH   1  25
TORSDOF 10
