MODEL 1
REMARK VINA RESULT:    -9.428      0.000      0.000
REMARK INTER + INTRA:         -12.719
REMARK INTER:                 -13.287
REMARK INTRA:                   0.568
REMARK UNBOUND:                 0.568
REMARK  Name = =
REMARK  9 active torsions:
REMARK  status: ('A' for Active; 'I' for Inactive)
REMARK    1  A    between atoms: P_1  and  O_2
REMARK    2  A    between atoms: P_1  and  C_3
REMARK    3  A    between atoms: P_1  and  O_13
REMARK    4  A    between atoms: P_1  and  O_14
REMARK    5  A    between atoms: P_1  and  O_15
REMARK    6  A    between atoms: C_3  and  N_8
REMARK    7  A    between atoms: N_8  and  S_9
REMARK    8  A    between atoms: S_9  and  N_12
REMARK    9  A    between atoms: O_15  and  N_16
REMARK                            x       y       z     vdW  Elec       q    Type
REMARK                         _______ _______ _______ _____ _____    ______ ____
ROOT
ATOM      1  P   UNL     1       0.851  -4.445  29.461  0.00  0.00    +0.333 P 
ENDROOT
BRANCH   1   2
ATOM      2  C   UNL     1       2.221  -5.558  29.808  0.00  0.00    +0.245 C 
ATOM      3  S   UNL     1       2.341  -6.673  28.335  0.00  0.00    -0.097 S 
ATOM      4  C   UNL     1       3.461  -5.558  27.389  0.00  0.00    +0.078 C 
ATOM      5  C   UNL     1       3.761  -4.488  28.412  0.00  0.00    +0.082 C 
ATOM      6  N   UNL     1       3.521  -5.004  29.732  0.00  0.00    -0.268 NA
ATOM      7  H   UNL     1       4.209  -5.729  29.942  0.00  0.00    +0.126 HD
BRANCH   2   8
ATOM      8  N   UNL     1       1.937  -6.251  30.984  0.00  0.00    -0.139 NA
ATOM      9  H   UNL     1       2.366  -7.171  30.888  0.00  0.00    +0.153 HD
BRANCH   8  10
ATOM     10  S   UNL     1       2.413  -5.657  32.481  0.00  0.00    +0.095 S 
ATOM     11  O   UNL     1       3.833  -5.877  32.869  0.00  0.00    -0.141 OA
ATOM     12  O   UNL     1       2.283  -4.124  32.406  0.00  0.00    -0.141 OA
BRANCH  10  13
ATOM     13  N   UNL     1       1.295  -6.089  33.741  0.00  0.00    -0.193 NA
ATOM     14  H   UNL     1       1.764  -6.687  34.421  0.00  0.00    +0.145 HD
ATOM     15  H   UNL     1       0.504  -6.589  33.336  0.00  0.00    +0.145 HD
ENDBRANCH  10  13
ENDBRANCH   8  10
ENDBRANCH   2   8
ENDBRANCH   1   2
BRANCH   1  16
ATOM     16  O   UNL     1       0.083  -3.871  30.623  0.00  0.00    -0.319 OA
ATOM     17  H   UNL     1      -0.777  -3.545  30.314  0.00  0.00    +0.221 HD
ENDBRANCH   1  16
BRANCH   1  18
ATOM     18  O   UNL     1       1.140  -4.306  27.783  0.00  0.00    -0.319 OA
ATOM     19  H   UNL     1       0.861  -5.121  27.339  0.00  0.00    +0.221 HD
ENDBRANCH   1  18
BRANCH   1  20
ATOM     20  O   UNL     1       1.145  -2.882  29.991  0.00  0.00    -0.319 OA
ATOM     21  H   UNL     1       1.139  -2.863  30.960  0.00  0.00    +0.221 HD
ENDBRANCH   1  20
BRANCH   1  22
ATOM     22  O   UNL     1      -0.456  -5.249  28.771  0.00  0.00    -0.185 OA
BRANCH  22  23
ATOM     23  N   UNL     1      -1.447  -5.335  29.644  0.00  0.00    -0.131 N 
ATOM     24  C   UNL     1      -1.598  -6.634  30.268  0.00  0.00    +0.114 C 
ATOM     25  C   UNL     1      -2.240  -6.930  31.453  0.00  0.00    +0.158 C 
ATOM     26  N   UNL     1      -2.297  -8.170  31.938  0.00  0.00    -0.227 NA
ATOM     27  C   UNL     1      -1.719  -9.209  31.270  0.00  0.00    +0.100 C 
ATOM     28  C   UNL     1      -1.079  -8.911  30.088  0.00  0.00    +0.022 C 
ATOM     29  C   UNL     1      -0.991  -7.651  29.544  0.00  0.00    +0.022 C 
ATOM     30  N   UNL     1      -2.919  -5.976  32.307  0.00  0.00    -0.214 N 
ATOM     31  C   UNL     1      -3.639  -4.820  31.877  0.00  0.00    +0.064 C 
ATOM     32  C   UNL     1      -3.311  -4.003  30.803  0.00  0.00    +0.070 C 
ATOM     33  C   UNL     1      -4.079  -2.921  30.509  0.00  0.00    +0.006 C 
ATOM     34  C   UNL     1      -5.186  -2.639  31.280  0.00  0.00    +0.000 C 
ATOM     35  C   UNL     1      -5.482  -3.469  32.333  0.00  0.00    +0.001 C 
ATOM     36  C   UNL     1      -4.725  -4.572  32.656  0.00  0.00    +0.015 C 
ATOM     37  C   UNL     1      -2.204  -4.140  29.832  0.00  0.00    +0.277 C 
ATOM     38  O   UNL     1      -1.950  -3.121  29.154  0.00  0.00    -0.267 OA
ATOM     39  C   UNL     1      -2.871  -6.244  33.683  0.00  0.00    +0.312 C 
ATOM     40  O   UNL     1      -3.316  -5.492  34.561  0.00  0.00    -0.264 OA
ENDBRANCH  22  23
ENDBRANCH   1  22
TORSDOF 9
ENDMDL
