MODEL 1
REMARK VINA RESULT:   -11.165      0.000      0.000
REMARK INTER + INTRA:         -16.991
REMARK INTER:                 -16.713
REMARK INTRA:                  -0.277
REMARK UNBOUND:                -0.277
REMARK  Name = =
REMARK  9 active torsions:
REMARK  status: ('A' for Active; 'I' for Inactive)
REMARK    1  A    between atoms: C_1  and  C_11
REMARK    2  A    between atoms: C_2  and  C_27
REMARK    3  A    between atoms: C_11  and  O_17
REMARK    4  A    between atoms: O_17  and  P_19
REMARK    5  A    between atoms: S_18  and  P_19
REMARK    6  A    between atoms: S_18  and  C_21
REMARK    7  A    between atoms: P_19  and  O_26
REMARK    8  A    between atoms: C_29  and  N_33
REMARK    9  A    between atoms: N_33  and  S_34
REMARK                            x       y       z     vdW  Elec       q    Type
REMARK                         _______ _______ _______ _____ _____    ______ ____
ROOT
ATOM      1  C   UNL     1     -12.719 -43.742  28.746  0.00  0.00    +0.024 C 
ATOM      2  C   UNL     1     -13.885 -43.661  29.427  0.00  0.00    +0.079 C 
ATOM      3  N   UNL     1     -15.025 -43.260  28.749  0.00  0.00    -0.230 NA
ATOM      4  C   UNL     1     -15.002 -42.958  27.469  0.00  0.00    +0.151 C 
ATOM      5  N   UNL     1     -16.144 -42.571  26.854  0.00  0.00    -0.173 NA
ATOM      6  C   UNL     1     -16.163 -42.256  25.559  0.00  0.00    +0.187 C 
ATOM      7  N   UNL     1     -15.022 -42.328  24.867  0.00  0.00    -0.225 NA
ATOM      8  C   UNL     1     -13.858 -42.704  25.417  0.00  0.00    +0.099 C 
ATOM      9  C   UNL     1     -13.835 -43.031  26.760  0.00  0.00    +0.035 C 
ATOM     10  C   UNL     1     -12.668 -43.422  27.371  0.00  0.00    +0.058 C 
ENDROOT
BRANCH   1  11
ATOM     11  C   UNL     1     -11.446 -44.152  29.368  0.00  0.00    +0.222 C 
ATOM     12  C   UNL     1     -10.300 -43.650  28.518  0.00  0.00    +0.261 C 
ATOM     13  O   UNL     1      -9.263 -44.607  28.766  0.00  0.00    -0.430 OA
ATOM     14  C   UNL     1      -9.924 -45.819  28.647  0.00  0.00    +0.404 C 
ATOM     15  O   UNL     1      -9.527 -46.925  28.152  0.00  0.00    -0.226 OA
ATOM     16  N   UNL     1     -11.221 -45.609  29.212  0.00  0.00    -0.245 N 
ATOM     17  H   UNL     1     -11.861 -46.317  29.458  0.00  0.00    +0.155 HD
BRANCH  11  18
ATOM     18  O   UNL     1     -11.358 -43.855  30.682  0.00  0.00    -0.267 OA
BRANCH  18  19
ATOM     19  P   UNL     1     -10.615 -42.465  31.101  0.00  0.00    +0.386 P 
ATOM     20  O   UNL     1     -11.619 -41.289  31.044  0.00  0.00    -0.247 OA
BRANCH  19  21
ATOM     21  S   UNL     1     -10.066 -42.378  32.948  0.00  0.00    -0.045 S 
ATOM     22  H   UNL     1     -10.210 -41.112  33.424  0.00  0.00    +0.111 HD
BRANCH  21  23
ATOM     23  C   UNL     1      -8.369 -42.853  32.973  0.00  0.00    +0.211 C 
ATOM     24  N   UNL     1      -7.332 -42.432  33.726  0.00  0.00    -0.212 NA
ATOM     25  C   UNL     1      -6.229 -43.104  33.366  0.00  0.00    +0.304 C 
ATOM     26  O   UNL     1      -6.570 -43.924  32.410  0.00  0.00    -0.207 OA
ATOM     27  N   UNL     1      -7.845 -43.788  32.162  0.00  0.00    -0.104 NA
ENDBRANCH  21  23
ENDBRANCH  19  21
BRANCH  19  28
ATOM     28  O   UNL     1      -9.318 -41.980  30.159  0.00  0.00    -0.317 OA
ATOM     29  H   UNL     1      -8.829 -41.280  30.619  0.00  0.00    +0.221 HD
ENDBRANCH  19  28
ENDBRANCH  18  19
ENDBRANCH  11  18
ENDBRANCH   1  11
BRANCH   2  30
ATOM     30  C   UNL     1     -14.086 -44.019  30.813  0.00  0.00    +0.018 C 
ATOM     31  C   UNL     1     -14.318 -43.217  31.871  0.00  0.00    +0.017 C 
ATOM     32  C   UNL     1     -14.464 -43.722  33.166  0.00  0.00    +0.064 C 
ATOM     33  C   UNL     1     -14.380 -45.063  33.438  0.00  0.00    +0.016 C 
ATOM     34  C   UNL     1     -14.146 -45.900  32.372  0.00  0.00    +0.001 C 
ATOM     35  C   UNL     1     -14.003 -45.400  31.100  0.00  0.00    +0.002 C 
BRANCH  32  36
ATOM     36  N   UNL     1     -14.701 -42.803  34.198  0.00  0.00    -0.222 N 
ATOM     37  H   UNL     1     -14.804 -43.127  35.122  0.00  0.00    +0.173 HD
BRANCH  36  38
ATOM     38  S   UNL     1     -14.813 -41.128  33.879  0.00  0.00    +0.033 S 
ATOM     39  O   UNL     1     -14.699 -40.324  35.120  0.00  0.00    -0.158 OA
ATOM     40  O   UNL     1     -16.152 -40.803  33.254  0.00  0.00    -0.158 OA
ATOM     41  H   UNL     1     -13.789 -40.819  33.038  0.00  0.00    +0.233 HD
ENDBRANCH  36  38
ENDBRANCH  32  36
ENDBRANCH   2  30
TORSDOF 9
ENDMDL
