REMARK  Name = =
REMARK  9 active torsions:
REMARK  status: ('A' for Active; 'I' for Inactive)
REMARK    1  A    between atoms: C_1  and  C_11
REMARK    2  A    between atoms: C_2  and  C_27
REMARK    3  A    between atoms: C_11  and  O_17
REMARK    4  A    between atoms: O_17  and  P_19
REMARK    5  A    between atoms: S_18  and  P_19
REMARK    6  A    between atoms: S_18  and  C_21
REMARK    7  A    between atoms: P_19  and  O_26
REMARK    8  A    between atoms: C_29  and  N_33
REMARK    9  A    between atoms: N_33  and  S_34
REMARK                            x       y       z     vdW  Elec       q    Type
REMARK                         _______ _______ _______ _____ _____    ______ ____
ROOT
ATOM      1  C   UNL     1     -11.337 -44.136  31.055  0.00  0.00    +0.024 C 
ATOM      2  C   UNL     1     -10.940 -44.083  29.764  0.00  0.00    +0.079 C 
ATOM      3  N   UNL     1      -9.583 -44.043  29.486  0.00  0.00    -0.230 NA
ATOM      4  C   UNL     1      -8.677 -44.055  30.440  0.00  0.00    +0.151 C 
ATOM      5  N   UNL     1      -7.364 -44.014  30.115  0.00  0.00    -0.173 NA
ATOM      6  C   UNL     1      -6.416 -44.024  31.051  0.00  0.00    +0.187 C 
ATOM      7  N   UNL     1      -6.786 -44.075  32.334  0.00  0.00    -0.225 NA
ATOM      8  C   UNL     1      -8.069 -44.117  32.722  0.00  0.00    +0.099 C 
ATOM      9  C   UNL     1      -9.055 -44.107  31.753  0.00  0.00    +0.035 C 
ATOM     10  C   UNL     1     -10.384 -44.148  32.098  0.00  0.00    +0.058 C 
ENDROOT
BRANCH   1  11
ATOM     11  C   UNL     1     -12.753 -44.176  31.465  0.00  0.00    +0.222 C 
ATOM     12  C   UNL     1     -12.842 -44.723  32.873  0.00  0.00    +0.261 C 
ATOM     13  O   UNL     1     -14.134 -45.342  32.904  0.00  0.00    -0.430 OA
ATOM     14  C   UNL     1     -14.160 -46.066  31.722  0.00  0.00    +0.404 C 
ATOM     15  O   UNL     1     -14.659 -47.213  31.473  0.00  0.00    -0.226 OA
ATOM     16  N   UNL     1     -13.483 -45.255  30.757  0.00  0.00    -0.245 N 
ATOM     17  H   UNL     1     -13.499 -45.391  29.782  0.00  0.00    +0.155 HD
BRANCH  11  18
ATOM     18  O   UNL     1     -13.416 -43.018  31.257  0.00  0.00    -0.267 OA
BRANCH  18  19
ATOM     19  P   UNL     1     -13.529 -41.971  32.502  0.00  0.00    +0.386 P 
ATOM     20  O   UNL     1     -14.273 -40.691  32.052  0.00  0.00    -0.247 OA
BRANCH  19  21
ATOM     21  S   UNL     1     -14.671 -42.561  33.940  0.00  0.00    -0.045 S 
ATOM     22  H   UNL     1     -15.867 -42.984  33.450  0.00  0.00    +0.111 HD
BRANCH  21  23
ATOM     23  C   UNL     1     -14.898 -41.160  34.986  0.00  0.00    +0.211 C 
ATOM     24  N   UNL     1     -15.763 -40.127  34.924  0.00  0.00    -0.212 NA
ATOM     25  C   UNL     1     -15.539 -39.307  35.961  0.00  0.00    +0.304 C 
ATOM     26  O   UNL     1     -14.557 -39.816  36.653  0.00  0.00    -0.207 OA
ATOM     27  N   UNL     1     -14.161 -40.924  36.085  0.00  0.00    -0.104 NA
ENDBRANCH  21  23
ENDBRANCH  19  21
BRANCH  19  28
ATOM     28  O   UNL     1     -12.095 -41.430  33.177  0.00  0.00    -0.317 OA
ATOM     29  H   UNL     1     -11.501 -41.126  32.473  0.00  0.00    +0.221 HD
ENDBRANCH  19  28
ENDBRANCH  18  19
ENDBRANCH  11  18
ENDBRANCH   1  11
BRANCH   2  30
ATOM     30  C   UNL     1     -11.805 -44.128  28.606  0.00  0.00    +0.018 C 
ATOM     31  C   UNL     1     -12.284 -43.109  27.866  0.00  0.00    +0.017 C 
ATOM     32  C   UNL     1     -13.142 -43.320  26.782  0.00  0.00    +0.064 C 
ATOM     33  C   UNL     1     -13.547 -44.575  26.408  0.00  0.00    +0.016 C 
ATOM     34  C   UNL     1     -13.068 -45.630  27.150  0.00  0.00    +0.001 C 
ATOM     35  C   UNL     1     -12.225 -45.419  28.214  0.00  0.00    +0.002 C 
BRANCH  32  36
ATOM     36  N   UNL     1     -13.586 -42.192  26.078  0.00  0.00    -0.222 N 
ATOM     37  H   UNL     1     -12.954 -41.697  25.508  0.00  0.00    +0.173 HD
BRANCH  36  38
ATOM     38  S   UNL     1     -15.206 -41.661  26.192  0.00  0.00    +0.033 S 
ATOM     39  O   UNL     1     -16.097 -42.725  26.713  0.00  0.00    -0.158 OA
ATOM     40  O   UNL     1     -15.725 -41.269  24.826  0.00  0.00    -0.158 OA
ATOM     41  H   UNL     1     -15.212 -40.601  27.044  0.00  0.00    +0.233 HD
ENDBRANCH  36  38
ENDBRANCH  32  36
ENDBRANCH   2  30
TORSDOF 9
