REMARK  Name = =
REMARK  2 active torsions:
REMARK  status: ('A' for Active; 'I' for Inactive)
REMARK    1  A    between atoms: S_1  and  N_4
REMARK    2  A    between atoms: S_1  and  N_5
REMARK                            x       y       z     vdW  Elec       q    Type
REMARK                         _______ _______ _______ _____ _____    ______ ____
ROOT
ATOM      1  S   UNL     1      52.057 154.878  28.484  0.00  0.00    +0.090 S 
ATOM      2  O   UNL     1      53.170 155.835  28.227  0.00  0.00    -0.142 OA
ATOM      3  O   UNL     1      51.317 154.619  27.184  0.00  0.00    -0.142 OA
ENDROOT
BRANCH   1   4
ATOM      4  N   UNL     1      50.944 155.513  29.601  0.00  0.00    -0.194 NA
ATOM      5  H   UNL     1      51.417 155.696  30.486  0.00  0.00    +0.145 HD
ATOM      6  H   UNL     1      50.192 154.841  29.751  0.00  0.00    +0.145 HD
ENDBRANCH   1   4
BRANCH   1   7
ATOM      7  N   UNL     1      52.744 153.381  28.981  0.00  0.00    -0.194 NA
ATOM      8  H   UNL     1      53.252 153.514  29.855  0.00  0.00    +0.145 HD
ATOM      9  H   UNL     1      53.386 153.046  28.262  0.00  0.00    +0.145 HD
ENDBRANCH   1   7
TORSDOF 2
