REMARK  Name = =
REMARK  0 active torsions:
REMARK  status: ('A' for Active; 'I' for Inactive)
REMARK                            x       y       z     vdW  Elec       q    Type
REMARK                         _______ _______ _______ _____ _____    ______ ____
ROOT
ATOM      1  C   UNL     1      52.567 156.640  29.163  0.00  0.00    +0.057 C 
ATOM      2  C   UNL     1      52.457 155.552  28.186  0.00  0.00    +0.005 C 
ATOM      3  C   UNL     1      52.564 155.877  26.751  0.00  0.00    +0.000 C 
ATOM      4  C   UNL     1      53.915 155.404  26.191  0.00  0.00    +0.000 C 
ATOM      5  C   UNL     1      54.176 154.014  26.734  0.00  0.00    +0.000 C 
ATOM      6  C   UNL     1      52.897 153.276  26.470  0.00  0.00    +0.000 C 
ATOM      7  C   UNL     1      52.454 153.272  25.234  0.00  0.00    +0.000 C 
ATOM      8  C   UNL     1      52.839 154.269  24.206  0.00  0.00    +0.000 C 
ATOM      9  C   UNL     1      53.765 155.321  24.707  0.00  0.00    +0.000 C 
ATOM     10  C   UNL     1      51.979 152.522  27.330  0.00  0.00    +0.000 C 
ATOM     11  C   UNL     1      51.799 153.180  28.680  0.00  0.00    +0.000 C 
ATOM     12  C   UNL     1      51.306 154.629  28.539  0.00  0.00    +0.000 C 
ATOM     13  C   UNL     1      50.687 154.955  29.865  0.00  0.00    +0.002 C 
ATOM     14  C   UNL     1      50.391 156.382  30.139  0.00  0.00    +0.030 C 
ATOM     15  C   UNL     1      51.160 157.255  29.250  0.00  0.00    +0.120 C 
ATOM     16  O   UNL     1      51.817 158.358  29.773  0.00  0.00    -0.356 OA
ATOM     17  C   UNL     1      52.800 158.049  28.789  0.00  0.00    +0.142 C 
ENDROOT
TORSDOF 0
