REMARK  Name = =
REMARK  2 active torsions:
REMARK  status: ('A' for Active; 'I' for Inactive)
REMARK    1  A    between atoms: C_1  and  N_18
REMARK    2  A    between atoms: N_18  and  O_19
REMARK                            x       y       z     vdW  Elec       q    Type
REMARK                         _______ _______ _______ _____ _____    ______ ____
ROOT
ATOM      1  C   UNL     1      51.823 156.261  28.641  0.00  0.00    +0.139 C 
ATOM      2  C   UNL     1      52.670 155.490  27.726  0.00  0.00    +0.022 C 
ATOM      3  C   UNL     1      53.920 156.123  27.265  0.00  0.00    +0.002 C 
ATOM      4  C   UNL     1      54.403 155.701  25.921  0.00  0.00    +0.004 C 
ATOM      5  C   UNL     1      54.379 154.226  25.675  0.00  0.00    +0.022 C 
ATOM      6  C   UNL     1      53.009 153.836  25.331  0.00  0.00    -0.048 C 
ATOM      7  C   UNL     1      52.403 154.527  24.373  0.00  0.00    -0.035 C 
ATOM      8  C   UNL     1      53.055 155.730  23.780  0.00  0.00    +0.025 C 
ATOM      9  C   UNL     1      53.845 156.504  24.788  0.00  0.00    +0.005 C 
ATOM     10  C   UNL     1      52.011 152.845  25.754  0.00  0.00    +0.022 C 
ATOM     11  C   UNL     1      51.458 153.366  27.091  0.00  0.00    +0.004 C 
ATOM     12  C   UNL     1      52.612 154.029  27.788  0.00  0.00    +0.002 C 
ATOM     13  C   UNL     1      52.611 153.560  29.223  0.00  0.00    +0.003 C 
ATOM     14  C   UNL     1      51.418 154.112  29.909  0.00  0.00    +0.031 C 
ATOM     15  C   UNL     1      50.953 155.437  29.501  0.00  0.00    +0.137 C 
ATOM     16  O   UNL     1      51.091 156.383  30.520  0.00  0.00    -0.353 OA
ATOM     17  C   UNL     1      52.357 156.680  29.963  0.00  0.00    +0.160 C 
ENDROOT
BRANCH   1  18
ATOM     18  N   UNL     1      51.050 157.352  28.042  0.00  0.00    -0.086 NA
BRANCH  18  19
ATOM     19  O   UNL     1      51.628 158.535  28.166  0.00  0.00    -0.295 OA
ATOM     20  H   UNL     1      51.071 159.212  27.752  0.00  0.00    +0.238 HD
ENDBRANCH  18  19
ENDBRANCH   1  18
TORSDOF 2
