REMARK  Name = =
REMARK  3 active torsions:
REMARK  status: ('A' for Active; 'I' for Inactive)
REMARK    1  A    between atoms: C_1  and  N_19
REMARK    2  A    between atoms: N_19  and  S_20
REMARK    3  A    between atoms: S_20  and  N_23
REMARK                            x       y       z     vdW  Elec       q    Type
REMARK                         _______ _______ _______ _____ _____    ______ ____
ROOT
ATOM      1  C   UNL     1      52.868 155.464  27.370  0.00  0.00    +0.094 C 
ATOM      2  C   UNL     1      51.371 155.114  27.244  0.00  0.00    +0.022 C 
ATOM      3  C   UNL     1      51.211 153.817  28.015  0.00  0.00    +0.002 C 
ATOM      4  C   UNL     1      52.554 153.333  28.611  0.00  0.00    +0.004 C 
ATOM      5  C   UNL     1      53.434 153.048  27.486  0.00  0.00    +0.019 C 
ATOM      6  C   UNL     1      54.784 152.511  27.664  0.00  0.00    +0.004 C 
ATOM      7  C   UNL     1      55.503 152.337  26.331  0.00  0.00    +0.005 C 
ATOM      8  C   UNL     1      54.903 153.130  25.263  0.00  0.00    +0.025 C 
ATOM      9  C   UNL     1      54.921 152.776  23.962  0.00  0.00    +0.068 C 
ATOM     10  C   UNL     1      54.260 153.732  23.094  0.00  0.00    +0.151 C 
ATOM     11  O   UNL     1      53.554 153.309  22.157  0.00  0.00    -0.296 OA
ATOM     12  C   UNL     1      54.416 155.158  23.309  0.00  0.00    +0.069 C 
ATOM     13  C   UNL     1      54.315 155.591  24.791  0.00  0.00    +0.029 C 
ATOM     14  C   UNL     1      54.228 154.406  25.619  0.00  0.00    -0.050 C 
ATOM     15  C   UNL     1      53.578 154.393  26.742  0.00  0.00    -0.037 C 
ATOM     16  C   UNL     1      52.079 152.182  29.425  0.00  0.00    +0.000 C 
ATOM     17  C   UNL     1      50.824 152.726  30.079  0.00  0.00    +0.000 C 
ATOM     18  C   UNL     1      50.397 153.931  29.257  0.00  0.00    +0.000 C 
ENDROOT
BRANCH   1  19
ATOM     19  N   UNL     1      53.162 156.814  27.212  0.00  0.00    -0.167 NA
ATOM     20  H   UNL     1      52.544 157.217  26.507  0.00  0.00    +0.150 HD
BRANCH  19  21
ATOM     21  S   UNL     1      52.926 157.647  28.746  0.00  0.00    +0.093 S 
ATOM     22  O   UNL     1      51.944 156.933  29.607  0.00  0.00    -0.142 OA
ATOM     23  O   UNL     1      52.468 159.037  28.402  0.00  0.00    -0.142 OA
BRANCH  21  24
ATOM     24  N   UNL     1      54.413 157.788  29.611  0.00  0.00    -0.193 NA
ATOM     25  H   UNL     1      54.751 156.858  29.860  0.00  0.00    +0.145 HD
ATOM     26  H   UNL     1      54.262 158.333  30.460  0.00  0.00    +0.145 HD
ENDBRANCH  21  24
ENDBRANCH  19  21
ENDBRANCH   1  19
TORSDOF 3
