REMARK  Name = =
REMARK  2 active torsions:
REMARK  status: ('A' for Active; 'I' for Inactive)
REMARK    1  A    between atoms: C_1  and  N_23
REMARK    2  A    between atoms: N_23  and  O_24
REMARK                            x       y       z     vdW  Elec       q    Type
REMARK                         _______ _______ _______ _____ _____    ______ ____
ROOT
ATOM      1  C   UNL     1      52.667 156.632  25.250  0.00  0.00    +0.127 C 
ATOM      2  C   UNL     1      53.895 156.915  24.468  0.00  0.00    +0.037 C 
ATOM      3  C   UNL     1      55.079 155.912  24.663  0.00  0.00    +0.018 C 
ATOM      4  C   UNL     1      53.960 156.182  25.694  0.00  0.00    +0.062 C 
ATOM      5  N   UNL     1      54.483 157.015  26.773  0.00  0.00    -0.298 NA
ATOM      6  C   UNL     1      54.223 156.546  28.080  0.00  0.00    +0.079 C 
ATOM      7  C   UNL     1      53.920 155.063  28.089  0.00  0.00    +0.056 C 
ATOM      8  S   UNL     1      52.724 154.469  27.146  0.00  0.00    -0.203 S 
ATOM      9  C   UNL     1      55.027 154.524  24.330  0.00  0.00    +0.006 C 
ATOM     10  C   UNL     1      55.545 153.464  25.225  0.00  0.00    +0.022 C 
ATOM     11  C   UNL     1      54.520 152.366  25.471  0.00  0.00    -0.048 C 
ATOM     12  C   UNL     1      54.006 151.947  24.290  0.00  0.00    -0.035 C 
ATOM     13  C   UNL     1      54.318 152.571  23.005  0.00  0.00    +0.025 C 
ATOM     14  C   UNL     1      54.755 153.988  23.010  0.00  0.00    +0.005 C 
ATOM     15  C   UNL     1      54.159 151.825  26.769  0.00  0.00    +0.023 C 
ATOM     16  C   UNL     1      52.738 151.770  27.209  0.00  0.00    +0.013 C 
ATOM     17  C   UNL     1      52.283 152.922  28.069  0.00  0.00    +0.031 C 
ATOM     18  C   UNL     1      50.829 153.192  28.100  0.00  0.00    +0.013 C 
ATOM     19  C   UNL     1      50.662 154.690  28.450  0.00  0.00    +0.040 C 
ATOM     20  C   UNL     1      51.251 155.431  27.332  0.00  0.00    +0.144 C 
ATOM     21  O   UNL     1      51.567 156.724  27.438  0.00  0.00    -0.346 OA
ATOM     22  C   UNL     1      52.067 157.400  26.366  0.00  0.00    +0.163 C 
ATOM     23  H   UNL     1      54.069 157.943  26.683  0.00  0.00    +0.123 HD
ATOM     24  H   UNL     1      53.099 154.388  25.841  0.00  0.00    +0.086 HD
ENDROOT
BRANCH   1  25
ATOM     25  N   UNL     1      51.687 156.124  24.359  0.00  0.00    -0.087 NA
BRANCH  25  26
ATOM     26  O   UNL     1      51.127 157.153  23.682  0.00  0.00    -0.295 OA
ATOM     27  H   UNL     1      50.456 156.811  23.071  0.00  0.00    +0.238 HD
ENDBRANCH  25  26
ENDBRANCH   1  25
TORSDOF 2
