REMARK  Name = =
REMARK  5 active torsions:
REMARK  status: ('A' for Active; 'I' for Inactive)
REMARK    1  A    between atoms: C_1  and  N_23
REMARK    2  A    between atoms: N_23  and  N_24
REMARK    3  A    between atoms: N_23  and  O_30
REMARK    4  A    between atoms: C_25  and  C_27
REMARK    5  A    between atoms: C_27  and  O_29
REMARK                            x       y       z     vdW  Elec       q    Type
REMARK                         _______ _______ _______ _____ _____    ______ ____
ROOT
ATOM      1  C   UNL     1      54.489 156.348  26.058  0.00  0.00    +0.128 C 
ATOM      2  C   UNL     1      55.300 155.191  25.661  0.00  0.00    +0.037 C 
ATOM      3  C   UNL     1      55.012 154.194  24.643  0.00  0.00    +0.018 C 
ATOM      4  C   UNL     1      54.025 155.184  25.166  0.00  0.00    +0.062 C 
ATOM      5  N   UNL     1      53.009 155.624  24.407  0.00  0.00    -0.298 NA
ATOM      6  C   UNL     1      51.666 155.341  24.946  0.00  0.00    +0.079 C 
ATOM      7  C   UNL     1      51.694 154.242  25.960  0.00  0.00    +0.056 C 
ATOM      8  S   UNL     1      50.832 154.496  27.428  0.00  0.00    -0.203 S 
ATOM      9  C   UNL     1      54.751 152.794  24.832  0.00  0.00    +0.001 C 
ATOM     10  C   UNL     1      54.739 152.166  26.170  0.00  0.00    +0.000 C 
ATOM     11  C   UNL     1      53.442 151.443  26.284  0.00  0.00    +0.000 C 
ATOM     12  C   UNL     1      53.099 150.694  25.229  0.00  0.00    +0.000 C 
ATOM     13  C   UNL     1      53.543 150.925  23.849  0.00  0.00    +0.000 C 
ATOM     14  C   UNL     1      54.695 151.882  23.707  0.00  0.00    +0.000 C 
ATOM     15  C   UNL     1      52.505 151.483  27.422  0.00  0.00    +0.001 C 
ATOM     16  C   UNL     1      52.618 152.612  28.365  0.00  0.00    +0.009 C 
ATOM     17  C   UNL     1      51.415 153.463  28.599  0.00  0.00    +0.031 C 
ATOM     18  C   UNL     1      51.727 154.365  29.771  0.00  0.00    +0.012 C 
ATOM     19  C   UNL     1      51.852 155.759  29.372  0.00  0.00    +0.040 C 
ATOM     20  C   UNL     1      51.461 156.031  27.993  0.00  0.00    +0.144 C 
ATOM     21  O   UNL     1      52.348 156.603  27.139  0.00  0.00    -0.346 OA
ATOM     22  C   UNL     1      53.679 156.375  27.330  0.00  0.00    +0.163 C 
ATOM     23  H   UNL     1      53.104 156.635  24.305  0.00  0.00    +0.123 HD
ATOM     24  H   UNL     1      49.491 154.376  27.237  0.00  0.00    +0.086 HD
ENDROOT
BRANCH   1  25
ATOM     25  N   UNL     1      54.792 157.552  25.391  0.00  0.00    -0.096 NA
BRANCH  25  26
ATOM     26  N   UNL     1      55.428 158.528  26.074  0.00  0.00    -0.216 N 
ATOM     27  C   UNL     1      56.836 158.670  26.060  0.00  0.00    +0.336 C 
ATOM     28  O   UNL     1      57.539 157.851  25.377  0.00  0.00    -0.262 OA
ATOM     29  H   UNL     1      54.893 159.164  26.601  0.00  0.00    +0.172 HD
BRANCH  27  30
ATOM     30  C   UNL     1      57.528 159.728  26.799  0.00  0.00    +0.394 C 
ATOM     31  O   UNL     1      56.821 160.448  27.546  0.00  0.00    -0.240 OA
BRANCH  30  32
ATOM     32  O   UNL     1      58.880 159.908  26.666  0.00  0.00    -0.474 OA
ATOM     33  H   UNL     1      59.373 159.349  26.098  0.00  0.00    +0.296 HD
ENDBRANCH  30  32
ENDBRANCH  27  30
ENDBRANCH  25  26
BRANCH  25  34
ATOM     34  O   UNL     1      54.632 157.640  24.098  0.00  0.00    -0.294 OA
ATOM     35  H   UNL     1      54.158 156.857  23.777  0.00  0.00    +0.239 HD
ENDBRANCH  25  34
ENDBRANCH   1  25
TORSDOF 5
