REMARK  Name = =
REMARK  5 active torsions:
REMARK  status: ('A' for Active; 'I' for Inactive)
REMARK    1  A    between atoms: N_1  and  C_29
REMARK    2  A    between atoms: C_5  and  C_19
REMARK    3  A    between atoms: N_8  and  C_17
REMARK    4  A    between atoms: P_36  and  O_38
REMARK    5  A    between atoms: P_36  and  O_39
REMARK                            x       y       z     vdW  Elec       q    Type
REMARK                         _______ _______ _______ _____ _____    ______ ____
ROOT
ATOM      1  N   UNL     1      51.090 159.458  30.590  0.00  0.00    -0.231 N 
ATOM      2  C   UNL     1      51.536 158.260  29.921  0.00  0.00    +0.088 C 
ATOM      3  C   UNL     1      52.716 158.057  29.237  0.00  0.00    +0.151 C 
ATOM      4  N   UNL     1      52.938 156.886  28.662  0.00  0.00    -0.226 NA
ATOM      5  C   UNL     1      52.030 155.898  28.737  0.00  0.00    +0.118 C 
ATOM      6  C   UNL     1      50.820 156.062  29.421  0.00  0.00    +0.024 C 
ATOM      7  C   UNL     1      50.575 157.281  30.027  0.00  0.00    +0.019 C 
ATOM      8  N   UNL     1      53.824 158.970  29.068  0.00  0.00    -0.243 N 
ATOM      9  C   UNL     1      54.249 159.939  30.008  0.00  0.00    +0.059 C 
ATOM     10  C   UNL     1      53.456 160.569  30.963  0.00  0.00    +0.068 C 
ATOM     11  C   UNL     1      54.068 161.479  31.786  0.00  0.00    +0.006 C 
ATOM     12  C   UNL     1      55.407 161.793  31.712  0.00  0.00    +0.000 C 
ATOM     13  C   UNL     1      56.168 161.136  30.739  0.00  0.00    +0.001 C 
ATOM     14  C   UNL     1      55.587 160.217  29.898  0.00  0.00    +0.015 C 
ATOM     15  C   UNL     1      52.037 160.373  31.204  0.00  0.00    +0.256 C 
ATOM     16  O   UNL     1      51.558 161.115  32.088  0.00  0.00    -0.269 OA
ENDROOT
BRANCH   5  17
ATOM     17  C   UNL     1      52.300 154.607  28.089  0.00  0.00    +0.180 C 
ATOM     18  N   UNL     1      53.022 154.569  26.964  0.00  0.00    -0.222 NA
ATOM     19  C   UNL     1      53.333 153.465  26.286  0.00  0.00    +0.121 C 
ATOM     20  C   UNL     1      52.864 152.273  26.798  0.00  0.00    +0.121 C 
ATOM     21  N   UNL     1      53.144 151.124  26.159  0.00  0.00    -0.221 NA
ATOM     22  C   UNL     1      53.878 151.195  25.037  0.00  0.00    +0.199 C 
ATOM     23  N   UNL     1      54.342 152.346  24.524  0.00  0.00    -0.221 NA
ATOM     24  C   UNL     1      54.091 153.524  25.122  0.00  0.00    +0.121 C 
ATOM     25  C   UNL     1      52.119 152.314  27.959  0.00  0.00    +0.121 C 
ATOM     26  N   UNL     1      51.839 153.458  28.595  0.00  0.00    -0.222 NA
ENDBRANCH   5  17
BRANCH   1  27
ATOM     27  C   UNL     1      49.694 159.714  30.665  0.00  0.00    +0.196 C 
ATOM     28  C   UNL     1      48.833 158.512  30.364  0.00  0.00    +0.067 C 
ATOM     29  C   UNL     1      47.448 158.825  29.929  0.00  0.00    +0.073 C 
ATOM     30  N   UNL     1      47.309 160.001  29.122  0.00  0.00    -0.295 NA
ATOM     31  C   UNL     1      47.781 161.120  29.831  0.00  0.00    +0.103 C 
ATOM     32  C   UNL     1      49.161 161.063  30.403  0.00  0.00    +0.184 C 
ATOM     33  O   UNL     1      49.553 159.699  32.117  0.00  0.00    -0.269 OA
ATOM     34  P   UNL     1      48.683 161.011  32.660  0.00  0.00    +0.381 P 
ATOM     35  O   UNL     1      48.827 162.237  31.789  0.00  0.00    -0.282 OA
ATOM     36  H   UNL     1      47.850 159.890  28.265  0.00  0.00    +0.123 HD
BRANCH  34  37
ATOM     37  O   UNL     1      49.184 161.490  34.227  0.00  0.00    -0.314 OA
ATOM     38  H   UNL     1      49.112 160.737  34.834  0.00  0.00    +0.221 HD
ENDBRANCH  34  37
BRANCH  34  39
ATOM     39  O   UNL     1      47.026 160.616  32.848  0.00  0.00    -0.314 OA
ATOM     40  H   UNL     1      46.943 159.828  33.408  0.00  0.00    +0.221 HD
ENDBRANCH  34  39
ENDBRANCH   1  27
BRANCH   8  41
ATOM     41  C   UNL     1      54.548 158.871  27.869  0.00  0.00    +0.283 C 
ATOM     42  O   UNL     1      54.182 157.944  27.050  0.00  0.00    -0.195 OA
ENDBRANCH   8  41
TORSDOF 5
