REMARK  Name = =
REMARK  9 active torsions:
REMARK  status: ('A' for Active; 'I' for Inactive)
REMARK    1  A    between atoms: C_1  and  N_23
REMARK    2  A    between atoms: N_23  and  N_24
REMARK    3  A    between atoms: N_23  and  O_35
REMARK    4  A    between atoms: N_24  and  N_27
REMARK    5  A    between atoms: C_25  and  C_32
REMARK    6  A    between atoms: N_27  and  P_28
REMARK    7  A    between atoms: P_28  and  N_30
REMARK    8  A    between atoms: P_28  and  O_31
REMARK    9  A    between atoms: C_32  and  O_34
REMARK                            x       y       z     vdW  Elec       q    Type
REMARK                         _______ _______ _______ _____ _____    ______ ____
ROOT
ATOM      1  C   UNL     1      53.238 152.563  25.473  0.00  0.00    +0.130 C 
ATOM      2  C   UNL     1      53.379 153.232  26.820  0.00  0.00    +0.037 C 
ATOM      3  C   UNL     1      52.068 153.273  27.630  0.00  0.00    +0.018 C 
ATOM      4  C   UNL     1      52.095 153.151  26.159  0.00  0.00    +0.062 C 
ATOM      5  N   UNL     1      51.394 154.076  25.389  0.00  0.00    -0.298 NA
ATOM      6  C   UNL     1      51.677 155.455  25.518  0.00  0.00    +0.079 C 
ATOM      7  C   UNL     1      51.922 156.198  24.243  0.00  0.00    +0.056 C 
ATOM      8  S   UNL     1      53.449 157.048  24.301  0.00  0.00    -0.203 S 
ATOM      9  C   UNL     1      51.764 154.586  28.195  0.00  0.00    +0.006 C 
ATOM     10  C   UNL     1      52.856 155.274  28.977  0.00  0.00    +0.022 C 
ATOM     11  C   UNL     1      52.544 156.748  28.816  0.00  0.00    -0.048 C 
ATOM     12  C   UNL     1      51.303 157.065  29.190  0.00  0.00    -0.035 C 
ATOM     13  C   UNL     1      50.488 155.974  29.796  0.00  0.00    +0.025 C 
ATOM     14  C   UNL     1      50.462 154.740  28.886  0.00  0.00    +0.005 C 
ATOM     15  C   UNL     1      53.489 157.744  28.305  0.00  0.00    +0.023 C 
ATOM     16  C   UNL     1      53.383 158.042  26.837  0.00  0.00    +0.013 C 
ATOM     17  C   UNL     1      53.965 156.999  26.004  0.00  0.00    +0.031 C 
ATOM     18  C   UNL     1      55.406 156.870  25.857  0.00  0.00    +0.013 C 
ATOM     19  C   UNL     1      55.819 156.262  24.593  0.00  0.00    +0.040 C 
ATOM     20  C   UNL     1      54.635 155.555  23.935  0.00  0.00    +0.144 C 
ATOM     21  O   UNL     1      54.226 154.604  24.805  0.00  0.00    -0.346 OA
ATOM     22  C   UNL     1      53.874 153.376  24.357  0.00  0.00    +0.163 C 
ATOM     23  H   UNL     1      51.557 153.831  24.412  0.00  0.00    +0.123 HD
ATOM     24  H   UNL     1      53.424 158.228  23.625  0.00  0.00    +0.086 HD
ENDROOT
BRANCH   1  25
ATOM     25  N   UNL     1      53.494 151.140  25.497  0.00  0.00    -0.078 NA
BRANCH  25  26
ATOM     26  N   UNL     1      52.548 150.388  26.170  0.00  0.00    -0.122 N 
ATOM     27  C   UNL     1      52.288 150.634  27.568  0.00  0.00    +0.354 C 
ATOM     28  O   UNL     1      52.913 151.546  28.145  0.00  0.00    -0.260 OA
BRANCH  26  29
ATOM     29  N   UNL     1      51.847 149.387  25.536  0.00  0.00    -0.133 NA
ATOM     30  H   UNL     1      51.393 149.793  24.718  0.00  0.00    +0.157 HD
BRANCH  29  31
ATOM     31  P   UNL     1      52.776 148.036  25.007  0.00  0.00    +0.355 P 
ATOM     32  O   UNL     1      53.163 147.222  26.249  0.00  0.00    -0.253 OA
BRANCH  31  33
ATOM     33  N   UNL     1      51.878 146.969  23.974  0.00  0.00    -0.246 NA
ATOM     34  H   UNL     1      51.012 146.695  24.438  0.00  0.00    +0.129 HD
ATOM     35  H   UNL     1      52.435 146.138  23.777  0.00  0.00    +0.129 HD
ENDBRANCH  31  33
BRANCH  31  36
ATOM     36  O   UNL     1      54.242 148.529  24.279  0.00  0.00    -0.321 OA
ATOM     37  H   UNL     1      54.718 149.123  24.881  0.00  0.00    +0.220 HD
ENDBRANCH  31  36
ENDBRANCH  29  31
ENDBRANCH  26  29
BRANCH  27  38
ATOM     38  C   UNL     1      51.306 149.806  28.253  0.00  0.00    +0.395 C 
ATOM     39  O   UNL     1      50.261 149.416  27.668  0.00  0.00    -0.240 OA
BRANCH  38  40
ATOM     40  O   UNL     1      51.497 149.425  29.569  0.00  0.00    -0.474 OA
ATOM     41  H   UNL     1      52.265 149.700  30.030  0.00  0.00    +0.296 HD
ENDBRANCH  38  40
ENDBRANCH  27  38
ENDBRANCH  25  26
BRANCH  25  42
ATOM     42  O   UNL     1      54.730 150.835  25.898  0.00  0.00    -0.293 OA
ATOM     43  H   UNL     1      55.371 151.376  25.411  0.00  0.00    +0.239 HD
ENDBRANCH  25  42
ENDBRANCH   1  25
TORSDOF 9
