REMARK  Name = =
REMARK  0 active torsions:
REMARK  status: ('A' for Active; 'I' for Inactive)
REMARK                            x       y       z     vdW  Elec       q    Type
REMARK                         _______ _______ _______ _____ _____    ______ ____
ROOT
ATOM      1  C   UNL     1     -13.691 -43.506  27.308  0.00  0.00    +0.226 C 
ATOM      2  N   UNL     1     -14.783 -43.041  27.945  0.00  0.00    -0.213 NA
ATOM      3  C   UNL     1     -15.868 -42.556  27.319  0.00  0.00    +0.086 C 
ATOM      4  C   UNL     1     -15.911 -42.512  25.941  0.00  0.00    +0.037 C 
ATOM      5  C   UNL     1     -17.018 -42.015  25.278  0.00  0.00    +0.003 C 
ATOM      6  C   UNL     1     -18.110 -41.552  25.991  0.00  0.00    +0.000 C 
ATOM      7  C   UNL     1     -18.096 -41.583  27.371  0.00  0.00    +0.002 C 
ATOM      8  C   UNL     1     -16.975 -42.085  27.996  0.00  0.00    +0.019 C 
ATOM      9  C   UNL     1     -14.799 -42.985  25.274  0.00  0.00    +0.103 C 
ATOM     10  N   UNL     1     -13.740 -43.460  25.954  0.00  0.00    -0.212 NA
ATOM     11  N   UNL     1     -12.563 -44.013  28.002  0.00  0.00    -0.229 N 
ATOM     12  C   UNL     1     -11.805 -43.266  28.976  0.00  0.00    +0.102 C 
ATOM     13  C   UNL     1     -10.507 -44.024  29.173  0.00  0.00    +0.032 C 
ATOM     14  C   UNL     1     -10.930 -45.461  28.951  0.00  0.00    +0.087 C 
ATOM     15  C   UNL     1     -11.976 -45.296  27.887  0.00  0.00    +0.232 C 
ATOM     16  O   UNL     1     -12.326 -46.129  27.002  0.00  0.00    -0.274 OA
ENDROOT
TORSDOF 0
