MODEL 1
REMARK VINA RESULT:    -6.311      0.000      0.000
REMARK INTER + INTRA:         -13.549
REMARK INTER:                 -10.000
REMARK INTRA:                  -3.549
REMARK UNBOUND:                -3.549
REMARK  Name = =
REMARK  11 active torsions:
REMARK  status: ('A' for Active; 'I' for Inactive)
REMARK    1  A    between atoms: C_1  and  C_16
REMARK    2  A    between atoms: C_2  and  N_34
REMARK    3  A    between atoms: C_16  and  C_17
REMARK    4  A    between atoms: C_16  and  C_24
REMARK    5  A    between atoms: C_17  and  C_18
REMARK    6  A    between atoms: C_24  and  C_25
REMARK    7  A    between atoms: C_24  and  C_26
REMARK    8  A    between atoms: C_25  and  C_31
REMARK    9  A    between atoms: N_34  and  P_35
REMARK   10  A    between atoms: P_35  and  N_37
REMARK   11  A    between atoms: P_35  and  N_38
REMARK                            x       y       z     vdW  Elec       q    Type
REMARK                         _______ _______ _______ _____ _____    ______ ____
ROOT
ATOM      1  C   UNL     1      59.959 162.551  39.199  0.00  0.00    -0.009 C 
ATOM      2  C   UNL     1      60.202 163.850  38.939  0.00  0.00    +0.047 C 
ATOM      3  C   UNL     1      60.018 164.499  37.698  0.00  0.00    +0.015 C 
ATOM      4  C   UNL     1      59.568 163.669  36.691  0.00  0.00    +0.030 C 
ATOM      5  C   UNL     1      59.316 162.339  36.887  0.00  0.00    +0.006 C 
ATOM      6  C   UNL     1      59.493 161.761  38.083  0.00  0.00    -0.003 C 
ATOM      7  S   UNL     1      59.291 164.326  35.059  0.00  0.00    -0.087 S 
ATOM      8  C   UNL     1      59.789 166.006  35.075  0.00  0.00    +0.025 C 
ATOM      9  C   UNL     1      60.193 166.621  36.222  0.00  0.00    -0.016 C 
ATOM     10  C   UNL     1      60.555 167.977  36.125  0.00  0.00    +0.052 C 
ATOM     11  C   UNL     1      60.512 168.674  34.939  0.00  0.00    -0.021 C 
ATOM     12  C   UNL     1      60.099 168.025  33.800  0.00  0.00    -0.004 C 
ATOM     13  C   UNL     1      59.745 166.693  33.898  0.00  0.00    +0.006 C 
ATOM     14  C   UNL     1      60.307 165.912  37.500  0.00  0.00    -0.023 C 
ATOM     15  C   UNL     1      60.397 166.740  38.551  0.00  0.00    +0.031 C 
ENDROOT
BRANCH   2  16
ATOM     16  N   UNL     1      61.066 164.610  39.823  0.00  0.00    -0.271 N 
ATOM     17  H   UNL     1      60.694 165.279  40.443  0.00  0.00    +0.156 HD
BRANCH  16  18
ATOM     18  P   UNL     1      62.812 164.299  39.756  0.00  0.00    +0.293 P 
ATOM     19  O   UNL     1      63.598 165.450  39.197  0.00  0.00    -0.265 OA
BRANCH  18  20
ATOM     20  N   UNL     1      63.476 164.032  41.370  0.00  0.00    -0.254 NA
ATOM     21  H   UNL     1      62.981 164.619  42.042  0.00  0.00    +0.128 HD
ATOM     22  H   UNL     1      64.467 164.272  41.374  0.00  0.00    +0.128 HD
ENDBRANCH  18  20
BRANCH  18  23
ATOM     23  N   UNL     1      63.143 162.926  38.711  0.00  0.00    -0.254 NA
ATOM     24  H   UNL     1      63.680 163.236  37.901  0.00  0.00    +0.128 HD
ATOM     25  H   UNL     1      62.263 162.516  38.398  0.00  0.00    +0.128 HD
ENDBRANCH  18  23
ENDBRANCH  16  18
ENDBRANCH   2  16
BRANCH   1  26
ATOM     26  C   UNL     1      60.102 161.810  40.442  0.00  0.00    +0.031 C 
BRANCH  26  27
ATOM     27  C   UNL     1      59.249 162.279  41.423  0.00  0.00    +0.031 C 
BRANCH  27  28
ATOM     28  C   UNL     1      57.827 162.346  41.409  0.00  0.00    -0.022 C 
ATOM     29  C   UNL     1      57.020 161.206  41.390  0.00  0.00    -0.004 C 
ATOM     30  C   UNL     1      55.654 161.286  41.422  0.00  0.00    -0.000 C 
ATOM     31  C   UNL     1      55.006 162.524  41.475  0.00  0.00    -0.000 C 
ATOM     32  C   UNL     1      55.805 163.647  41.493  0.00  0.00    -0.000 C 
ATOM     33  C   UNL     1      57.171 163.560  41.461  0.00  0.00    -0.004 C 
ENDBRANCH  27  28
ENDBRANCH  26  27
BRANCH  26  34
ATOM     34  C   UNL     1      60.607 160.516  40.681  0.00  0.00    +0.037 C 
BRANCH  34  35
ATOM     35  C   UNL     1      61.863 160.855  41.734  0.00  0.00    +0.116 C 
ATOM     36  O   UNL     1      62.992 160.965  41.105  0.00  0.00    -0.356 OA
ATOM     37  C   UNL     1      64.020 160.393  41.867  0.00  0.00    +0.142 C 
ATOM     38  C   UNL     1      63.394 159.581  42.943  0.00  0.00    +0.035 C 
ATOM     39  C   UNL     1      61.892 159.798  42.760  0.00  0.00    +0.032 C 
ENDBRANCH  34  35
BRANCH  34  40
ATOM     40  C   UNL     1      60.373 159.321  40.939  0.00  0.00    +0.041 C 
BRANCH  40  41
ATOM     41  C   UNL     1      59.213 158.492  40.513  0.00  0.00    +0.036 C 
ATOM     42  C   UNL     1      58.567 157.802  41.423  0.00  0.00    +0.008 C 
ATOM     43 CL   UNL     1      58.825 158.173  38.839  0.00  0.00    -0.087 Cl
ENDBRANCH  40  41
ENDBRANCH  34  40
ENDBRANCH  26  34
ENDBRANCH   1  26
TORSDOF 11
ENDMDL
