MODEL 1
REMARK VINA RESULT:    -9.230      0.000      0.000
REMARK INTER + INTRA:         -13.001
REMARK INTER:                 -12.468
REMARK INTRA:                  -0.534
REMARK UNBOUND:                -0.534
REMARK  Name = =
REMARK  7 active torsions:
REMARK  status: ('A' for Active; 'I' for Inactive)
REMARK    1  A    between atoms: C_1  and  O_9
REMARK    2  A    between atoms: C_3  and  O_19
REMARK    3  A    between atoms: C_4  and  O_8
REMARK    4  A    between atoms: C_5  and  O_7
REMARK    5  A    between atoms: O_9  and  C_17
REMARK    6  A    between atoms: O_19  and  C_20
REMARK    7  A    between atoms: C_20  and  C_22
REMARK                            x       y       z     vdW  Elec       q    Type
REMARK                         _______ _______ _______ _____ _____    ______ ____
ROOT
ATOM      1  C   UNL     1      52.456 155.508  28.345  0.00  0.00    +0.152 C 
ATOM      2  C   UNL     1      52.671 155.571  26.976  0.00  0.00    +0.078 C 
ATOM      3  C   UNL     1      52.525 154.472  26.160  0.00  0.00    +0.188 C 
ATOM      4  C   UNL     1      52.150 153.273  26.748  0.00  0.00    +0.203 C 
ATOM      5  C   UNL     1      51.936 153.213  28.113  0.00  0.00    +0.174 C 
ATOM      6  C   UNL     1      52.084 154.319  28.927  0.00  0.00    +0.077 C 
ENDROOT
BRANCH   5   7
ATOM      7  O   UNL     1      51.562 152.026  28.715  0.00  0.00    -0.503 OA
ATOM      8  H   UNL     1      51.778 151.208  28.312  0.00  0.00    +0.292 HD
ENDBRANCH   5   7
BRANCH   4   9
ATOM      9  O   UNL     1      52.012 152.189  25.899  0.00  0.00    -0.501 OA
ATOM     10  H   UNL     1      52.657 152.024  25.240  0.00  0.00    +0.292 HD
ENDBRANCH   4   9
BRANCH   1  11
ATOM     11  O   UNL     1      52.626 156.671  29.107  0.00  0.00    -0.453 OA
BRANCH  11  19
ATOM     12  C   UNL     1      50.331 160.868  30.599  0.00  0.00    +0.077 C 
ATOM     13  C   UNL     1      50.557 159.427  30.241  0.00  0.00    +0.019 C 
ATOM     14  C   UNL     1      49.363 158.764  30.432  0.00  0.00    +0.135 C 
ATOM     15  O   UNL     1      48.398 159.672  30.882  0.00  0.00    -0.475 OA
ATOM     16  C   UNL     1      48.828 160.970  30.541  0.00  0.00    +0.210 C 
ATOM     17  C   UNL     1      49.237 157.414  30.189  0.00  0.00    +0.040 C 
ATOM     18  C   UNL     1      50.342 156.731  29.746  0.00  0.00    +0.041 C 
ATOM     19  C   UNL     1      51.534 157.382  29.553  0.00  0.00    +0.145 C 
ATOM     20  C   UNL     1      51.650 158.722  29.796  0.00  0.00    +0.036 C 
ENDBRANCH  11  19
ENDBRANCH   1  11
BRANCH   3  21
ATOM     21  O   UNL     1      52.739 154.530  24.793  0.00  0.00    -0.415 OA
BRANCH  21  22
ATOM     22  C   UNL     1      53.967 154.319  24.196  0.00  0.00    +0.389 C 
ATOM     23  O   UNL     1      54.840 155.214  24.358  0.00  0.00    -0.241 OA
BRANCH  22  24
ATOM     24  C   UNL     1      54.282 153.131  23.411  0.00  0.00    +0.316 C 
ATOM     25  O   UNL     1      53.982 151.992  23.843  0.00  0.00    -0.276 OA
ENDBRANCH  22  24
ENDBRANCH  21  22
ENDBRANCH   3  21
TORSDOF 7
ENDMDL
