REMARK  Name = =
REMARK  1 active torsions:
REMARK  status: ('A' for Active; 'I' for Inactive)
REMARK    1  A    between atoms: C_4  and  C_7
REMARK                            x       y       z     vdW  Elec       q    Type
REMARK                         _______ _______ _______ _____ _____    ______ ____
ROOT
ATOM      1  C   UNL     1     -15.767 -42.221  25.374  0.00  0.00    +0.150 C 
ATOM      2  C   UNL     1     -15.382 -41.756  24.139  0.00  0.00    +0.038 C 
ATOM      3  C   UNL     1     -16.282 -41.145  23.260  0.00  0.00    +0.010 C 
ATOM      4  C   UNL     1     -17.591 -41.021  23.671  0.00  0.00    +0.082 C 
ATOM      5  C   UNL     1     -17.926 -41.504  24.917  0.00  0.00    +0.346 C 
ATOM      6  O   UNL     1     -19.132 -41.382  25.280  0.00  0.00    -0.244 OA
ATOM      7  O   UNL     1     -17.046 -42.061  25.689  0.00  0.00    -0.421 OA
ENDROOT
BRANCH   1  11
ATOM      8  C   UNL     1     -13.212 -44.099  28.228  0.00  0.00    +0.099 C 
ATOM      9  C   UNL     1     -12.723 -43.796  26.977  0.00  0.00    +0.021 C 
ATOM     10  C   UNL     1     -13.550 -43.180  26.030  0.00  0.00    +0.006 C 
ATOM     11  C   UNL     1     -14.853 -42.869  26.327  0.00  0.00    +0.054 C 
ATOM     12  C   UNL     1     -15.293 -43.195  27.598  0.00  0.00    +0.102 C 
ATOM     13  N   UNL     1     -14.488 -43.788  28.498  0.00  0.00    -0.242 NA
ENDBRANCH   1  11
TORSDOF 1
REMARK  Name = =
REMARK  1 active torsions:
REMARK  status: ('A' for Active; 'I' for Inactive)
REMARK    1  A    between atoms: C_4  and  C_7
REMARK                            x       y       z     vdW  Elec       q    Type
REMARK                         _______ _______ _______ _____ _____    ______ ____
ROOT
ATOM      1  I   UNL     1     -11.979 -45.036  29.683  0.00  0.00    -0.107 I 
ATOM      2  H   UNL     1     -10.418 -45.036  29.683  0.00  0.00    +0.107 HD
ENDROOT
TORSDOF 0
REMARK  Name = =
REMARK  1 active torsions:
REMARK  status: ('A' for Active; 'I' for Inactive)
REMARK    1  A    between atoms: C_4  and  C_7
REMARK                            x       y       z     vdW  Elec       q    Type
REMARK                         _______ _______ _______ _____ _____    ______ ____
ROOT
ATOM      1  C   UNL     1     -11.986 -43.702  31.300  0.00  0.00    +0.000 C 
ATOM      2  C   UNL     1     -10.815 -43.474  31.972  0.00  0.00    +0.000 C 
ATOM      3  C   UNL     1     -10.740 -42.611  33.048  0.00  0.00    +0.000 C 
ATOM      4  C   UNL     1     -11.892 -41.960  33.452  0.00  0.00    +0.000 C 
ATOM      5  C   UNL     1     -13.072 -42.197  32.764  0.00  0.00    +0.000 C 
ATOM      6  C   UNL     1     -13.131 -43.070  31.683  0.00  0.00    +0.000 C 
ENDROOT
TORSDOF 0
