MODEL 1
REMARK VINA RESULT:    -7.353      0.000      0.000
REMARK INTER + INTRA:         -13.437
REMARK INTER:                 -11.222
REMARK INTRA:                  -2.216
REMARK UNBOUND:                -2.216
REMARK  Name = =
REMARK  10 active torsions:
REMARK  status: ('A' for Active; 'I' for Inactive)
REMARK    1  A    between atoms: N_1  and  C_2
REMARK    2  A    between atoms: N_1  and  S_18
REMARK    3  A    between atoms: N_1  and  S_27
REMARK    4  A    between atoms: C_4  and  C_7
REMARK    5  A    between atoms: S_18  and  C_21
REMARK    6  A    between atoms: S_27  and  C_28
REMARK    7  A    between atoms: C_28  and  O_38
REMARK    8  A    between atoms: C_35  and  O_37
REMARK    9  A    between atoms: O_38  and  S_39
REMARK   10  A    between atoms: S_39  and  O_42
REMARK                            x       y       z     vdW  Elec       q    Type
REMARK                         _______ _______ _______ _____ _____    ______ ____
ROOT
ATOM      1  N   UNL     1      58.545 160.738  40.376  0.00  0.00    -0.107 NA
ENDROOT
BRANCH   1   2
ATOM      2  C   UNL     1      57.566 160.223  41.252  0.00  0.00    +0.091 C 
ATOM      3  C   UNL     1      56.137 160.540  40.830  0.00  0.00    +0.023 C 
ATOM      4  C   UNL     1      55.446 160.354  42.167  0.00  0.00    +0.030 C 
ATOM      5  C   UNL     1      56.269 161.246  43.034  0.00  0.00    +0.006 C 
ATOM      6  C   UNL     1      57.695 160.890  42.601  0.00  0.00    +0.019 C 
BRANCH   4   7
ATOM      7  C   UNL     1      54.020 160.616  42.124  0.00  0.00    +0.054 C 
ATOM      8  C   UNL     1      53.554 161.882  41.835  0.00  0.00    +0.178 C 
ATOM      9  O   UNL     1      52.266 162.160  41.780  0.00  0.00    -0.451 OA
ATOM     10  C   UNL     1      51.351 161.260  41.994  0.00  0.00    +0.148 C 
ATOM     11  C   UNL     1      51.717 159.972  42.291  0.00  0.00    +0.073 C 
ATOM     12  C   UNL     1      50.765 158.984  42.526  0.00  0.00    +0.006 C 
ATOM     13  C   UNL     1      49.423 159.328  42.457  0.00  0.00    +0.000 C 
ATOM     14  C   UNL     1      49.018 160.612  42.162  0.00  0.00    +0.003 C 
ATOM     15  C   UNL     1      49.992 161.560  41.935  0.00  0.00    +0.038 C 
ATOM     16  C   UNL     1      53.067 159.659  42.353  0.00  0.00    +0.198 C 
ATOM     17  O   UNL     1      53.431 158.486  42.623  0.00  0.00    -0.287 OA
ENDBRANCH   4   7
ENDBRANCH   1   2
BRANCH   1  18
ATOM     18  S   UNL     1      59.700 159.452  40.098  0.00  0.00    +0.072 S 
ATOM     19  O   UNL     1      59.534 158.999  38.672  0.00  0.00    -0.152 OA
ATOM     20  O   UNL     1      59.215 158.286  40.950  0.00  0.00    -0.152 OA
BRANCH  18  21
ATOM     21  C   UNL     1      61.317 159.910  40.472  0.00  0.00    +0.123 C 
ATOM     22  C   UNL     1      61.745 159.900  41.779  0.00  0.00    +0.020 C 
ATOM     23  C   UNL     1      63.039 160.257  42.140  0.00  0.00    +0.001 C 
ATOM     24  C   UNL     1      63.904 160.631  41.118  0.00  0.00    +0.000 C 
ATOM     25  C   UNL     1      63.481 160.641  39.811  0.00  0.00    +0.001 C 
ATOM     26  C   UNL     1      62.180 160.282  39.469  0.00  0.00    +0.020 C 
ENDBRANCH  18  21
ENDBRANCH   1  18
BRANCH   1  27
ATOM     27  S   UNL     1      59.417 162.151  40.887  0.00  0.00    -0.008 S 
BRANCH  27  28
ATOM     28  C   UNL     1      59.728 163.335  39.571  0.00  0.00    +0.235 C 
ATOM     29  C   UNL     1      61.148 163.715  39.411  0.00  0.00    +0.056 C 
ATOM     30  C   UNL     1      61.425 163.706  38.054  0.00  0.00    +0.138 C 
ATOM     31  O   UNL     1      60.260 163.337  37.348  0.00  0.00    -0.472 OA
ATOM     32  C   UNL     1      59.563 162.500  38.267  0.00  0.00    +0.251 C 
ATOM     33  C   UNL     1      62.690 164.026  37.557  0.00  0.00    +0.040 C 
ATOM     34  C   UNL     1      63.707 164.365  38.423  0.00  0.00    +0.040 C 
ATOM     35  C   UNL     1      63.450 164.378  39.781  0.00  0.00    +0.134 C 
ATOM     36  C   UNL     1      62.192 164.057  40.242  0.00  0.00    +0.039 C 
BRANCH  35  37
ATOM     37  O   UNL     1      64.481 164.720  40.672  0.00  0.00    -0.506 OA
ATOM     38  H   UNL     1      64.946 165.527  40.564  0.00  0.00    +0.292 HD
ENDBRANCH  35  37
BRANCH  28  39
ATOM     39  O   UNL     1      58.817 164.334  39.431  0.00  0.00    -0.206 OA
BRANCH  39  40
ATOM     40  S   UNL     1      58.250 165.015  40.829  0.00  0.00    +0.104 S 
ATOM     41  O   UNL     1      59.367 165.207  41.852  0.00  0.00    -0.045 OA
ATOM     42  O   UNL     1      57.789 166.409  40.503  0.00  0.00    -0.045 OA
BRANCH  40  43
ATOM     43  O   UNL     1      56.952 164.221  41.512  0.00  0.00    -0.250 OA
ATOM     44  H   UNL     1      56.127 164.560  41.130  0.00  0.00    +0.245 HD
ENDBRANCH  40  43
ENDBRANCH  39  40
ENDBRANCH  28  39
ENDBRANCH  27  28
ENDBRANCH   1  27
TORSDOF 10
ENDMDL
