MODEL 1
REMARK VINA RESULT:    -9.080      0.000      0.000
REMARK INTER + INTRA:         -12.349
REMARK INTER:                 -13.327
REMARK INTRA:                   0.978
REMARK UNBOUND:                 0.978
REMARK  Name = =
REMARK  8 active torsions:
REMARK  status: ('A' for Active; 'I' for Inactive)
REMARK    1  A    between atoms: N_1  and  C_9
REMARK    2  A    between atoms: C_2  and  C_16
REMARK    3  A    between atoms: N_3  and  S_10
REMARK    4  A    between atoms: S_10  and  N_13
REMARK    5  A    between atoms: C_16  and  C_17
REMARK    6  A    between atoms: C_17  and  C_18
REMARK    7  A    between atoms: C_18  and  S_19
REMARK    8  A    between atoms: S_19  and  C_20
REMARK                            x       y       z     vdW  Elec       q    Type
REMARK                         _______ _______ _______ _____ _____    ______ ____
ROOT
ATOM      1  N   UNL     1      50.937 159.944  31.208  0.00  0.00    -0.234 NA
ATOM      2  C   UNL     1      51.766 159.569  30.336  0.00  0.00    +0.125 C 
ATOM      3  N   UNL     1      52.931 160.388  30.197  0.00  0.00    -0.190 N 
ATOM      4  H   UNL     1      53.693 160.079  29.657  0.00  0.00    +0.176 HD
ENDROOT
BRANCH   1  10
ATOM      5  C   UNL     1      48.849 158.915  30.560  0.00  0.00    +0.019 C 
ATOM      6  C   UNL     1      47.575 159.170  30.470  0.00  0.00    +0.002 C 
ATOM      7  C   UNL     1      46.886 159.998  31.466  0.00  0.00    +0.000 C 
ATOM      8  C   UNL     1      47.586 160.487  32.472  0.00  0.00    +0.002 C 
ATOM      9  C   UNL     1      49.015 160.263  32.665  0.00  0.00    +0.019 C 
ATOM     10  C   UNL     1      49.687 159.421  31.645  0.00  0.00    +0.082 C 
ENDBRANCH   1  10
BRANCH   3  11
ATOM     11  S   UNL     1      52.992 161.946  30.996  0.00  0.00    +0.127 S 
ATOM     12  O   UNL     1      53.216 163.054  30.022  0.00  0.00    -0.135 OA
ATOM     13  O   UNL     1      51.660 162.095  31.725  0.00  0.00    -0.135 OA
BRANCH  11  14
ATOM     14  N   UNL     1      54.294 161.917  32.116  0.00  0.00    -0.165 N 
ATOM     15  C   UNL     1      55.601 161.708  31.655  0.00  0.00    +0.320 C 
ATOM     16  O   UNL     1      55.893 161.534  30.440  0.00  0.00    -0.263 OA
ATOM     17  H   UNL     1      54.123 162.047  33.077  0.00  0.00    +0.178 HD
ENDBRANCH  11  14
ENDBRANCH   3  11
BRANCH   2  18
ATOM     18  C   UNL     1      51.578 158.376  29.526  0.00  0.00    +0.063 C 
BRANCH  18  19
ATOM     19  C   UNL     1      52.846 157.727  29.053  0.00  0.00    +0.020 C 
BRANCH  19  20
ATOM     20  C   UNL     1      52.760 156.961  27.779  0.00  0.00    +0.066 C 
BRANCH  20  21
ATOM     21  S   UNL     1      52.091 155.303  28.240  0.00  0.00    -0.074 S 
BRANCH  21  22
ATOM     22  C   UNL     1      52.754 154.060  27.150  0.00  0.00    +0.207 A 
ATOM     23  N   UNL     1      53.666 153.155  27.537  0.00  0.00    -0.234 N 
ATOM     24  N   UNL     1      53.929 152.406  26.480  0.00  0.00    -0.046 NA
ATOM     25  N   UNL     1      53.220 152.811  25.468  0.00  0.00    -0.022 NA
ATOM     26  N   UNL     1      52.471 153.853  25.870  0.00  0.00    -0.102 NA
ATOM     27  H   UNL     1      54.063 153.067  28.434  0.00  0.00    +0.193 HD
ENDBRANCH  21  22
ENDBRANCH  20  21
ENDBRANCH  19  20
ENDBRANCH  18  19
ENDBRANCH   2  18
TORSDOF 8
ENDMDL
