REMARK  Name = =
REMARK  5 active torsions:
REMARK  status: ('A' for Active; 'I' for Inactive)
REMARK    1  A    between atoms: C_1  and  C_3
REMARK    2  A    between atoms: C_1  and  C_7
REMARK    3  A    between atoms: C_3  and  O_5
REMARK    4  A    between atoms: O_5  and  N_6
REMARK    5  A    between atoms: C_7  and  O_9
REMARK                            x       y       z     vdW  Elec       q    Type
REMARK                         _______ _______ _______ _____ _____    ______ ____
ROOT
ATOM      1  C   UNL     1      -2.492  -3.046  29.843  0.00  0.00    +0.347 C 
ATOM      2  O   UNL     1      -1.246  -3.157  29.846  0.00  0.00    -0.273 OA
ENDROOT
BRANCH   1   3
ATOM      3  C   UNL     1      -3.078  -1.718  29.911  0.00  0.00    +0.405 C 
ATOM      4  O   UNL     1      -4.051  -1.464  30.702  0.00  0.00    -0.239 OA
BRANCH   3   5
ATOM      5  O   UNL     1      -2.591  -0.692  29.113  0.00  0.00    -0.366 OA
BRANCH   5   6
ATOM      6  N   UNL     1      -3.137   0.563  29.216  0.00  0.00    -0.165 NA
ATOM      7  H   UNL     1      -2.668   1.193  28.565  0.00  0.00    +0.163 HD
ATOM      8  H   UNL     1      -3.018   0.908  30.168  0.00  0.00    +0.163 HD
ENDBRANCH   5   6
ENDBRANCH   3   5
ENDBRANCH   1   3
BRANCH   1   9
ATOM      9  C   UNL     1      -3.360  -4.211  29.774  0.00  0.00    +0.384 C 
ATOM     10  O   UNL     1      -4.601  -4.121  29.596  0.00  0.00    -0.241 OA
BRANCH   9  11
ATOM     11  O   UNL     1      -2.851  -5.503  29.905  0.00  0.00    -0.475 OA
ATOM     12  H   UNL     1      -1.933  -5.633  30.040  0.00  0.00    +0.296 HD
ENDBRANCH   9  11
ENDBRANCH   1   9
TORSDOF 5
