REMARK  Name = =
REMARK  3 active torsions:
REMARK  status: ('A' for Active; 'I' for Inactive)
REMARK    1  A    between atoms: O_1  and  C_2
REMARK    2  A    between atoms: O_1  and  P_9
REMARK    3  A    between atoms: P_9  and  O_11
REMARK                            x       y       z     vdW  Elec       q    Type
REMARK                         _______ _______ _______ _____ _____    ______ ____
ROOT
ATOM      1  O   UNL     1      -3.972  -4.805  33.636  0.00  0.00    -0.289 OA
ENDROOT
BRANCH   1   2
ATOM      2  C   UNL     1      -4.741  -4.041  32.780  0.00  0.00    +0.125 C 
ATOM      3  C   UNL     1      -3.915  -2.999  32.060  0.00  0.00    +0.030 C 
ATOM      4  C   UNL     1      -4.804  -2.185  31.158  0.00  0.00    +0.003 C 
ATOM      5  C   UNL     1      -5.995  -1.605  31.877  0.00  0.00    +0.000 C 
ATOM      6  C   UNL     1      -6.722  -2.633  32.709  0.00  0.00    +0.003 C 
ATOM      7  C   UNL     1      -5.748  -3.289  33.633  0.00  0.00    +0.030 C 
ENDBRANCH   1   2
BRANCH   1   9
ATOM      8  S   UNL     1      -3.266  -6.162  31.262  0.00  0.00    +0.039 S 
ATOM      9  P   UNL     1      -3.484  -6.264  32.992  0.00  0.00    +0.400 P 
ATOM     10  O   UNL     1      -4.392  -7.392  33.360  0.00  0.00    -0.245 OA
BRANCH   9  11
ATOM     11  O   UNL     1      -1.928  -6.609  33.620  0.00  0.00    -0.316 OA
ATOM     12  H   UNL     1      -1.615  -7.455  33.263  0.00  0.00    +0.221 HD
ENDBRANCH   9  11
ENDBRANCH   1   9
TORSDOF 3
