REMARK  Name = =
REMARK  4 active torsions:
REMARK  status: ('A' for Active; 'I' for Inactive)
REMARK    1  A    between atoms: C_1  and  O_13
REMARK    2  A    between atoms: C_4  and  C_7
REMARK    3  A    between atoms: O_13  and  P_15
REMARK    4  A    between atoms: P_15  and  O_17
REMARK                            x       y       z     vdW  Elec       q    Type
REMARK                         _______ _______ _______ _____ _____    ______ ____
ROOT
ATOM      1  C   UNL     1      -8.335  -6.705  22.477  0.00  0.00    +0.125 C 
ATOM      2  C   UNL     1      -8.552  -5.456  21.676  0.00  0.00    +0.030 C 
ATOM      3  C   UNL     1      -7.415  -5.071  20.804  0.00  0.00    +0.003 C 
ATOM      4  C   UNL     1      -6.114  -5.093  21.525  0.00  0.00    +0.001 C 
ATOM      5  C   UNL     1      -5.919  -6.470  22.138  0.00  0.00    +0.003 C 
ATOM      6  C   UNL     1      -7.004  -6.637  23.182  0.00  0.00    +0.030 C 
ENDROOT
BRANCH   4   7
ATOM      7  C   UNL     1      -4.929  -4.827  20.646  0.00  0.00    +0.008 C 
ATOM      8  C   UNL     1      -5.314  -4.625  19.203  0.00  0.00    +0.065 C 
ATOM      9  C   UNL     1      -4.041  -4.977  18.526  0.00  0.00    +0.151 C 
ATOM     10  O   UNL     1      -3.612  -4.511  17.455  0.00  0.00    -0.296 OA
ATOM     11  C   UNL     1      -3.436  -5.971  19.399  0.00  0.00    +0.065 C 
ATOM     12  C   UNL     1      -3.942  -5.888  20.611  0.00  0.00    +0.008 C 
ENDBRANCH   4   7
BRANCH   1  13
ATOM     13  O   UNL     1      -9.319  -6.710  23.492  0.00  0.00    -0.289 OA
BRANCH  13  15
ATOM     14  S   UNL     1     -11.001  -6.573  21.220  0.00  0.00    +0.039 S 
ATOM     15  P   UNL     1     -10.841  -7.039  22.873  0.00  0.00    +0.400 P 
ATOM     16  O   UNL     1     -11.209  -8.507  22.997  0.00  0.00    -0.245 OA
BRANCH  15  17
ATOM     17  O   UNL     1     -11.980  -6.157  23.776  0.00  0.00    -0.316 OA
ATOM     18  H   UNL     1     -12.870  -6.333  23.434  0.00  0.00    +0.221 HD
ENDBRANCH  15  17
ENDBRANCH  13  15
ENDBRANCH   1  13
TORSDOF 4
