REMARK  Name = =
REMARK  2 active torsions:
REMARK  status: ('A' for Active; 'I' for Inactive)
REMARK    1  A    between atoms: C_2  and  N_7
REMARK    2  A    between atoms: C_4  and  C_14
REMARK                            x       y       z     vdW  Elec       q    Type
REMARK                         _______ _______ _______ _____ _____    ______ ____
ROOT
ATOM      1  O   UNL     1     -14.351 -42.959  25.338  0.00  0.00    -0.332 OA
ATOM      2  C   UNL     1     -15.220 -42.437  26.300  0.00  0.00    +0.200 C 
ATOM      3  C   UNL     1     -15.288 -43.437  27.435  0.00  0.00    +0.077 C 
ATOM      4  C   UNL     1     -13.885 -43.594  27.944  0.00  0.00    -0.024 C 
ATOM      5  C   UNL     1     -12.900 -43.235  27.136  0.00  0.00    +0.001 C 
ATOM      6  C   UNL     1     -13.056 -42.697  25.785  0.00  0.00    +0.170 C 
ENDROOT
BRANCH   2   7
ATOM      7  N   UNL     1     -16.488 -42.239  25.674  0.00  0.00    -0.232 N 
ATOM      8  C   UNL     1     -17.749 -42.122  26.382  0.00  0.00    +0.183 C 
ATOM      9  C   UNL     1     -18.581 -41.314  25.452  0.00  0.00    +0.250 C 
ATOM     10  O   UNL     1     -19.550 -40.551  25.763  0.00  0.00    -0.273 OA
ATOM     11  N   UNL     1     -18.104 -41.542  24.134  0.00  0.00    -0.238 N 
ATOM     12  C   UNL     1     -16.812 -42.113  24.286  0.00  0.00    +0.312 C 
ATOM     13  O   UNL     1     -16.040 -42.467  23.366  0.00  0.00    -0.252 OA
ATOM     14  H   UNL     1     -18.572 -41.345  23.290  0.00  0.00    +0.159 HD
ENDBRANCH   2   7
BRANCH   4  15
ATOM     15  C   UNL     1     -13.626 -44.125  29.287  0.00  0.00    -0.030 C 
ATOM     16  C   UNL     1     -14.332 -43.672  30.299  0.00  0.00    -0.031 C 
ATOM     17  C   UNL     1     -14.166 -44.128  31.703  0.00  0.00    +0.026 C 
ATOM     18  C   UNL     1     -13.442 -45.439  31.770  0.00  0.00    +0.005 C 
ATOM     19  C   UNL     1     -12.277 -45.528  30.837  0.00  0.00    +0.005 C 
ATOM     20  C   UNL     1     -12.580 -45.151  29.431  0.00  0.00    +0.026 C 
ENDBRANCH   4  15
TORSDOF 2
