MODEL 1
REMARK VINA RESULT:    -9.834      0.000      0.000
REMARK INTER + INTRA:         -13.565
REMARK INTER:                 -12.708
REMARK INTRA:                  -0.857
REMARK UNBOUND:                -0.857
REMARK  Name = =
REMARK  6 active torsions:
REMARK  status: ('A' for Active; 'I' for Inactive)
REMARK    1  A    between atoms: C_7  and  O_23
REMARK    2  A    between atoms: C_15  and  O_22
REMARK    3  A    between atoms: C_18  and  O_21
REMARK    4  A    between atoms: O_23  and  N_24
REMARK    5  A    between atoms: N_24  and  C_25
REMARK    6  A    between atoms: C_28  and  C_31
REMARK                            x       y       z     vdW  Elec       q    Type
REMARK                         _______ _______ _______ _____ _____    ______ ____
ROOT
ATOM      1  C   UNL     1      51.766 158.315  43.034  0.00  0.00    +0.029 C 
ATOM      2  C   UNL     1      51.395 156.980  42.449  0.00  0.00    +0.005 C 
ATOM      3  C   UNL     1      49.932 156.792  42.244  0.00  0.00    +0.005 C 
ATOM      4  C   UNL     1      49.080 157.753  43.026  0.00  0.00    +0.026 C 
ATOM      5  C   UNL     1      49.490 159.130  42.663  0.00  0.00    -0.023 C 
ATOM      6  C   UNL     1      50.856 159.401  42.671  0.00  0.00    +0.011 C 
ATOM      7  C   UNL     1      51.353 160.652  42.349  0.00  0.00    +0.171 C 
ATOM      8  C   UNL     1      50.471 161.656  42.011  0.00  0.00    +0.079 C 
ATOM      9  C   UNL     1      49.118 161.377  42.006  0.00  0.00    +0.045 C 
ATOM     10  C   UNL     1      48.630 160.126  42.328  0.00  0.00    -0.001 C 
ATOM     11  C   UNL     1      48.171 162.430  41.649  0.00  0.00    +0.199 C 
ATOM     12  O   UNL     1      46.933 162.220  41.631  0.00  0.00    -0.286 OA
ATOM     13  C   UNL     1      48.627 163.766  41.302  0.00  0.00    +0.079 C 
ATOM     14  C   UNL     1      49.968 164.049  41.305  0.00  0.00    +0.079 C 
ATOM     15  C   UNL     1      50.418 165.319  40.974  0.00  0.00    +0.137 C 
ATOM     16  C   UNL     1      49.544 166.319  40.639  0.00  0.00    +0.040 C 
ATOM     17  C   UNL     1      48.182 166.045  40.631  0.00  0.00    +0.040 C 
ATOM     18  C   UNL     1      47.741 164.781  40.960  0.00  0.00    +0.137 C 
ATOM     19  C   UNL     1      50.928 163.006  41.660  0.00  0.00    +0.202 C 
ATOM     20  O   UNL     1      52.174 163.270  41.662  0.00  0.00    -0.286 OA
ENDROOT
BRANCH  18  21
ATOM     21  O   UNL     1      46.394 164.446  40.971  0.00  0.00    -0.505 OA
ATOM     22  H   UNL     1      45.775 164.975  40.508  0.00  0.00    +0.292 HD
ENDBRANCH  18  21
BRANCH  15  23
ATOM     23  O   UNL     1      51.769 165.558  40.992  0.00  0.00    -0.505 OA
ATOM     24  H   UNL     1      52.089 166.439  41.002  0.00  0.00    +0.292 HD
ENDBRANCH  15  23
BRANCH   7  25
ATOM     25  O   UNL     1      52.700 160.950  42.350  0.00  0.00    -0.379 OA
BRANCH  25  26
ATOM     26  N   UNL     1      53.537 160.649  41.310  0.00  0.00    -0.220 N 
ATOM     27  H   UNL     1      53.184 160.629  40.391  0.00  0.00    +0.207 HD
BRANCH  26  28
ATOM     28  C   UNL     1      54.908 160.365  41.540  0.00  0.00    +0.089 C 
ATOM     29  C   UNL     1      55.328 159.183  42.130  0.00  0.00    +0.020 C 
ATOM     30  C   UNL     1      56.647 158.891  42.361  0.00  0.00    +0.006 C 
ATOM     31  C   UNL     1      57.628 159.783  42.008  0.00  0.00    +0.053 C 
ATOM     32  C   UNL     1      57.247 160.969  41.419  0.00  0.00    +0.006 C 
ATOM     33  C   UNL     1      55.917 161.241  41.197  0.00  0.00    +0.020 C 
BRANCH  31  34
ATOM     34  C   UNL     1      59.046 159.505  42.239  0.00  0.00    +0.243 C 
ATOM     35  O   UNL     1      59.393 158.522  42.923  0.00  0.00    -0.270 OA
ATOM     36  N   UNL     1      60.009 160.367  41.676  0.00  0.00    -0.325 N 
ATOM     37  H   UNL     1      60.968 160.196  41.820  0.00  0.00    +0.145 HD
ATOM     38  H   UNL     1      59.723 161.141  41.138  0.00  0.00    +0.145 HD
ENDBRANCH  31  34
ENDBRANCH  26  28
ENDBRANCH  25  26
ENDBRANCH   7  25
TORSDOF 6
ENDMDL
