REMARK  Name = =
REMARK  6 active torsions:
REMARK  status: ('A' for Active; 'I' for Inactive)
REMARK    1  A    between atoms: C_7  and  O_23
REMARK    2  A    between atoms: C_15  and  O_22
REMARK    3  A    between atoms: C_18  and  O_21
REMARK    4  A    between atoms: O_23  and  N_24
REMARK    5  A    between atoms: N_24  and  C_25
REMARK    6  A    between atoms: C_28  and  C_31
REMARK                            x       y       z     vdW  Elec       q    Type
REMARK                         _______ _______ _______ _____ _____    ______ ____
ROOT
ATOM      1  C   UNL     1      51.321 157.399  27.172  0.00  0.00    +0.029 C 
ATOM      2  C   UNL     1      52.119 156.133  27.329  0.00  0.00    +0.005 C 
ATOM      3  C   UNL     1      53.224 156.230  28.322  0.00  0.00    +0.005 C 
ATOM      4  C   UNL     1      53.611 157.642  28.666  0.00  0.00    +0.026 C 
ATOM      5  C   UNL     1      52.401 158.344  29.153  0.00  0.00    -0.023 C 
ATOM      6  C   UNL     1      51.246 158.212  28.386  0.00  0.00    +0.011 C 
ATOM      7  C   UNL     1      50.058 158.824  28.745  0.00  0.00    +0.171 C 
ATOM      8  C   UNL     1      50.018 159.584  29.895  0.00  0.00    +0.079 C 
ATOM      9  C   UNL     1      51.168 159.709  30.649  0.00  0.00    +0.045 C 
ATOM     10  C   UNL     1      52.350 159.095  30.283  0.00  0.00    -0.001 C 
ATOM     11  C   UNL     1      51.141 160.511  31.869  0.00  0.00    +0.199 C 
ATOM     12  O   UNL     1      52.164 160.651  32.585  0.00  0.00    -0.286 OA
ATOM     13  C   UNL     1      49.926 161.181  32.303  0.00  0.00    +0.079 C 
ATOM     14  C   UNL     1      48.781 161.061  31.559  0.00  0.00    +0.079 C 
ATOM     15  C   UNL     1      47.614 161.693  31.961  0.00  0.00    +0.137 C 
ATOM     16  C   UNL     1      47.571 162.450  33.102  0.00  0.00    +0.040 C 
ATOM     17  C   UNL     1      48.724 162.579  33.865  0.00  0.00    +0.040 C 
ATOM     18  C   UNL     1      49.881 161.948  33.461  0.00  0.00    +0.137 C 
ATOM     19  C   UNL     1      48.792 160.262  30.335  0.00  0.00    +0.202 C 
ATOM     20  O   UNL     1      47.728 160.151  29.645  0.00  0.00    -0.286 OA
ENDROOT
BRANCH  18  21
ATOM     21  O   UNL     1      51.065 162.039  34.180  0.00  0.00    -0.505 OA
ATOM     22  H   UNL     1      51.833 161.597  33.876  0.00  0.00    +0.292 HD
ENDBRANCH  18  21
BRANCH  15  23
ATOM     23  O   UNL     1      46.492 161.547  31.185  0.00  0.00    -0.505 OA
ATOM     24  H   UNL     1      46.526 161.028  30.405  0.00  0.00    +0.292 HD
ENDBRANCH  15  23
BRANCH   7  25
ATOM     25  O   UNL     1      48.899 158.712  28.005  0.00  0.00    -0.379 OA
BRANCH  25  26
ATOM     26  N   UNL     1      48.567 159.571  26.993  0.00  0.00    -0.220 N 
ATOM     27  H   UNL     1      49.136 160.354  26.813  0.00  0.00    +0.207 HD
BRANCH  26  28
ATOM     28  C   UNL     1      47.412 159.347  26.201  0.00  0.00    +0.089 C 
ATOM     29  C   UNL     1      46.411 158.469  26.587  0.00  0.00    +0.020 C 
ATOM     30  C   UNL     1      45.288 158.239  25.835  0.00  0.00    +0.006 C 
ATOM     31  C   UNL     1      45.108 158.887  24.639  0.00  0.00    +0.053 C 
ATOM     32  C   UNL     1      46.083 159.767  24.224  0.00  0.00    +0.006 C 
ATOM     33  C   UNL     1      47.202 159.982  24.995  0.00  0.00    +0.020 C 
BRANCH  31  34
ATOM     34  C   UNL     1      43.922 158.666  23.811  0.00  0.00    +0.243 C 
ATOM     35  O   UNL     1      42.926 158.080  24.278  0.00  0.00    -0.270 OA
ATOM     36  N   UNL     1      43.928 159.127  22.478  0.00  0.00    -0.325 N 
ATOM     37  H   UNL     1      43.139 158.988  21.905  0.00  0.00    +0.145 HD
ATOM     38  H   UNL     1      44.721 159.588  22.120  0.00  0.00    +0.145 HD
ENDBRANCH  31  34
ENDBRANCH  26  28
ENDBRANCH  25  26
ENDBRANCH   7  25
TORSDOF 6
