REMARK  Name = =
REMARK  1 active torsions:
REMARK  status: ('A' for Active; 'I' for Inactive)
REMARK    1  A    between atoms: C_12  and  C_17
REMARK                            x       y       z     vdW  Elec       q    Type
REMARK                         _______ _______ _______ _____ _____    ______ ____
ROOT
ATOM      1  C   UNL     1     -14.625 -42.928  27.948  0.00  0.00    +0.226 C 
ATOM      2  N   UNL     1     -15.317 -42.585  26.848  0.00  0.00    -0.213 NA
ATOM      3  C   UNL     1     -16.599 -42.208  26.850  0.00  0.00    +0.086 C 
ATOM      4  C   UNL     1     -17.252 -42.169  28.067  0.00  0.00    +0.037 C 
ATOM      5  C   UNL     1     -18.581 -41.782  28.096  0.00  0.00    +0.003 C 
ATOM      6  C   UNL     1     -19.267 -41.435  26.956  0.00  0.00    +0.000 C 
ATOM      7  C   UNL     1     -18.603 -41.479  25.754  0.00  0.00    +0.002 C 
ATOM      8  C   UNL     1     -17.277 -41.863  25.697  0.00  0.00    +0.019 C 
ATOM      9  C   UNL     1     -16.551 -42.518  29.200  0.00  0.00    +0.103 C 
ATOM     10  N   UNL     1     -15.266 -42.890  29.143  0.00  0.00    -0.212 NA
ATOM     11  N   UNL     1     -13.244 -43.327  27.879  0.00  0.00    -0.228 N 
ATOM     12  C   UNL     1     -12.083 -42.579  28.287  0.00  0.00    +0.110 C 
ATOM     13  C   UNL     1     -10.980 -43.107  27.429  0.00  0.00    +0.032 C 
ATOM     14  C   UNL     1     -11.364 -44.558  27.265  0.00  0.00    +0.087 C 
ATOM     15  C   UNL     1     -12.838 -44.581  27.373  0.00  0.00    +0.232 C 
ATOM     16  O   UNL     1     -13.534 -45.581  27.052  0.00  0.00    -0.274 OA
ENDROOT
BRANCH  12  17
ATOM     17  C   UNL     1     -11.815 -42.961  29.730  0.00  0.00    +0.136 C 
ATOM     18  O   UNL     1     -12.566 -42.110  30.575  0.00  0.00    -0.352 OA
ATOM     19  C   UNL     1     -12.698 -42.792  31.774  0.00  0.00    +0.174 C 
ATOM     20  C   UNL     1     -11.385 -43.058  32.449  0.00  0.00    +0.174 C 
ATOM     21  O   UNL     1     -11.339 -42.256  33.582  0.00  0.00    -0.326 OA
ATOM     22  C   UNL     1     -10.421 -41.210  33.353  0.00  0.00    +0.264 C 
ATOM     23  O   UNL     1     -10.440 -40.347  34.440  0.00  0.00    -0.321 OA
ATOM     24  C   UNL     1     -10.395 -41.030  35.652  0.00  0.00    +0.209 C 
ATOM     25  C   UNL     1      -9.311 -42.031  35.692  0.00  0.00    +0.183 C 
ATOM     26  O   UNL     1      -8.654 -42.162  36.698  0.00  0.00    -0.293 OA
ATOM     27  C   UNL     1      -9.046 -42.857  34.498  0.00  0.00    +0.102 C 
ATOM     28  C   UNL     1      -9.059 -41.915  33.287  0.00  0.00    +0.179 C 
ATOM     29  O   UNL     1      -9.018 -42.675  32.128  0.00  0.00    -0.350 OA
ATOM     30  C   UNL     1     -10.210 -43.005  31.587  0.00  0.00    +0.147 C 
ATOM     31  C   UNL     1     -10.385 -42.771  30.139  0.00  0.00    +0.063 C 
ENDBRANCH  12  17
TORSDOF 1
