MODEL 1
REMARK VINA RESULT:    -8.375      0.000      0.000
REMARK INTER + INTRA:         -12.989
REMARK INTER:                 -12.046
REMARK INTRA:                  -0.943
REMARK UNBOUND:                -0.943
REMARK  Name = =
REMARK  8 active torsions:
REMARK  status: ('A' for Active; 'I' for Inactive)
REMARK    1  A    between atoms: C_1  and  N_22
REMARK    2  A    between atoms: C_7  and  C_33
REMARK    3  A    between atoms: C_11  and  C_18
REMARK    4  A    between atoms: N_22  and  S_25
REMARK    5  A    between atoms: S_25  and  O_28
REMARK    6  A    between atoms: O_28  and  C_29
REMARK    7  A    between atoms: C_30  and  C_31
REMARK    8  A    between atoms: C_33  and  O_35
REMARK                            x       y       z     vdW  Elec       q    Type
REMARK                         _______ _______ _______ _____ _____    ______ ____
ROOT
ATOM      1  C   UNL     1       0.069  -6.191  30.266  0.00  0.00    +0.083 C 
ATOM      2  C   UNL     1      -0.195  -4.779  30.069  0.00  0.00    +0.023 C 
ATOM      3  C   UNL     1       0.813  -3.744  30.088  0.00  0.00    +0.002 C 
ATOM      4  C   UNL     1       0.536  -2.672  29.055  0.00  0.00    +0.004 C 
ATOM      5  C   UNL     1       1.689  -1.804  28.719  0.00  0.00    +0.005 C 
ATOM      6  C   UNL     1       1.388  -0.930  27.514  0.00  0.00    +0.033 C 
ATOM      7  C   UNL     1       0.938  -1.731  26.355  0.00  0.00    +0.049 C 
ATOM      8  C   UNL     1       0.183  -2.793  26.569  0.00  0.00    -0.024 C 
ATOM      9  C   UNL     1      -0.211  -3.191  27.897  0.00  0.00    +0.022 C 
ATOM     10  C   UNL     1      -1.232  -4.033  28.047  0.00  0.00    +0.009 C 
ATOM     11  C   UNL     1      -1.513  -4.379  29.489  0.00  0.00    +0.026 C 
ATOM     12  C   UNL     1       2.196  -4.240  29.781  0.00  0.00    +0.000 C 
ATOM     13  C   UNL     1       2.479  -5.519  30.484  0.00  0.00    +0.002 C 
ATOM     14  C   UNL     1       1.522  -6.604  30.130  0.00  0.00    +0.019 C 
ATOM     15  C   UNL     1       1.741  -7.052  28.732  0.00  0.00    +0.002 C 
ATOM     16  C   UNL     1       0.414  -7.631  28.306  0.00  0.00    +0.002 C 
ATOM     17  C   UNL     1      -0.631  -6.994  29.178  0.00  0.00    +0.020 C 
ENDROOT
BRANCH  11  18
ATOM     18  C   UNL     1      -2.116  -3.147  30.053  0.00  0.00    -0.003 C 
ATOM     19  C   UNL     1      -3.442  -3.036  30.252  0.00  0.00    +0.111 C 
ATOM     20 CL   UNL     1      -4.448  -4.390  29.825  0.00  0.00    -0.070 Cl
ATOM     21 CL   UNL     1      -4.166  -1.602  30.913  0.00  0.00    -0.070 Cl
ENDBRANCH  11  18
BRANCH   1  22
ATOM     22  N   UNL     1      -0.321  -6.770  31.547  0.00  0.00    -0.155 N 
ATOM     23  C   UNL     1       0.696  -6.906  32.535  0.00  0.00    +0.323 C 
ATOM     24  O   UNL     1       0.518  -7.365  33.682  0.00  0.00    -0.263 OA
BRANCH  22  25
ATOM     25  S   UNL     1      -1.877  -7.280  32.012  0.00  0.00    +0.080 S 
ATOM     26  O   UNL     1      -2.930  -7.225  30.994  0.00  0.00    -0.051 OA
ATOM     27  O   UNL     1      -1.740  -8.737  32.444  0.00  0.00    -0.051 OA
BRANCH  25  28
ATOM     28  O   UNL     1      -2.390  -6.351  33.348  0.00  0.00    -0.149 OA
BRANCH  28  29
ATOM     29  C   UNL     1      -3.492  -5.573  33.303  0.00  0.00    +0.090 C 
ATOM     30  C   UNL     1      -4.465  -4.861  33.258  0.00  0.00    -0.032 C 
BRANCH  30  31
ATOM     31  C   UNL     1      -5.591  -4.005  33.204  0.00  0.00    +0.052 C 
ATOM     32  C   UNL     1      -5.577  -2.854  33.841  0.00  0.00    +0.010 C 
ENDBRANCH  30  31
ENDBRANCH  28  29
ENDBRANCH  25  28
ENDBRANCH  22  25
ENDBRANCH   1  22
BRANCH   7  33
ATOM     33  C   UNL     1       1.310  -1.387  24.981  0.00  0.00    +0.334 C 
ATOM     34  O   UNL     1       1.371  -2.256  24.087  0.00  0.00    -0.245 OA
BRANCH  33  35
ATOM     35  O   UNL     1       1.596  -0.075  24.667  0.00  0.00    -0.477 OA
ATOM     36  H   UNL     1       2.011   0.478  25.299  0.00  0.00    +0.295 HD
ENDBRANCH  33  35
ENDBRANCH   7  33
TORSDOF 8
ENDMDL
