REMARK  Name = =
REMARK  6 active torsions:
REMARK  status: ('A' for Active; 'I' for Inactive)
REMARK    1  A    between atoms: C_2  and  C_8
REMARK    2  A    between atoms: C_2  and  C_20
REMARK    3  A    between atoms: C_9  and  N_16
REMARK    4  A    between atoms: C_20  and  P_22
REMARK    5  A    between atoms: P_22  and  O_24
REMARK    6  A    between atoms: P_22  and  O_25
REMARK                            x       y       z     vdW  Elec       q    Type
REMARK                         _______ _______ _______ _____ _____    ______ ____
ROOT
ATOM      1  O   UNL     1     -14.267 -42.400  27.874  0.00  0.00    -0.447 OA
ATOM      2  C   UNL     1     -15.114 -42.713  26.646  0.00  0.00    +0.174 C 
ATOM      3  C   UNL     1     -14.910 -44.166  26.514  0.00  0.00    +0.071 C 
ATOM      4  C   UNL     1     -13.522 -44.663  26.529  0.00  0.00    -0.016 C 
ATOM      5  C   UNL     1     -12.596 -44.027  27.200  0.00  0.00    +0.077 C 
ATOM      6  C   UNL     1     -12.985 -42.824  27.917  0.00  0.00    +0.341 C 
ATOM      7  O   UNL     1     -12.138 -42.162  28.587  0.00  0.00    -0.245 OA
ENDROOT
BRANCH   2   8
ATOM      8  C   UNL     1     -16.441 -42.305  27.183  0.00  0.00    +0.128 C 
ATOM      9  C   UNL     1     -17.369 -41.724  26.513  0.00  0.00    +0.146 C 
ATOM     10  C   UNL     1     -18.662 -41.374  27.303  0.00  0.00    +0.191 C 
ATOM     11  O   UNL     1     -19.580 -40.789  26.659  0.00  0.00    -0.290 OA
ATOM     12  C   UNL     1     -18.821 -41.681  28.669  0.00  0.00    +0.042 C 
ATOM     13  C   UNL     1     -17.876 -42.279  29.330  0.00  0.00    +0.041 C 
ATOM     14  C   UNL     1     -16.662 -42.614  28.636  0.00  0.00    +0.179 C 
ATOM     15  O   UNL     1     -15.722 -43.189  29.232  0.00  0.00    -0.291 OA
BRANCH   9  16
ATOM     16  N   UNL     1     -17.587 -41.674  25.155  0.00  0.00    -0.283 N 
ATOM     17  C   UNL     1     -17.409 -42.477  24.061  0.00  0.00    +0.298 C 
ATOM     18  O   UNL     1     -16.991 -43.620  24.081  0.00  0.00    -0.253 OA
ATOM     19  N   UNL     1     -17.730 -41.989  22.702  0.00  0.00    -0.313 N 
ATOM     20  H   UNL     1     -17.986 -40.812  24.896  0.00  0.00    +0.151 HD
ATOM     21  H   UNL     1     -17.597 -42.577  21.924  0.00  0.00    +0.146 HD
ATOM     22  H   UNL     1     -18.076 -41.076  22.576  0.00  0.00    +0.146 HD
ENDBRANCH   9  16
ENDBRANCH   2   8
BRANCH   2  23
ATOM     23  C   UNL     1     -14.482 -41.773  25.727  0.00  0.00    +0.094 C 
ATOM     24  C   UNL     1     -14.276 -40.528  26.207  0.00  0.00    +0.007 C 
BRANCH  23  25
ATOM     25  P   UNL     1     -13.850 -42.086  24.095  0.00  0.00    +0.359 P 
ATOM     26  O   UNL     1     -14.260 -43.385  23.506  0.00  0.00    -0.254 OA
BRANCH  25  27
ATOM     27  O   UNL     1     -14.358 -40.781  23.107  0.00  0.00    -0.321 OA
ATOM     28  H   UNL     1     -14.080 -39.943  23.510  0.00  0.00    +0.220 HD
ENDBRANCH  25  27
BRANCH  25  29
ATOM     29  O   UNL     1     -12.166 -41.995  24.123  0.00  0.00    -0.321 OA
ATOM     30  H   UNL     1     -11.812 -42.713  24.671  0.00  0.00    +0.220 HD
ENDBRANCH  25  29
ENDBRANCH  23  25
ENDBRANCH   2  23
TORSDOF 6
