MODEL 1
REMARK VINA RESULT:   -11.322      0.000      0.000
REMARK INTER + INTRA:         -13.213
REMARK INTER:                 -12.646
REMARK INTRA:                  -0.568
REMARK UNBOUND:                -0.568
REMARK  Name = =
REMARK  2 active torsions:
REMARK  status: ('A' for Active; 'I' for Inactive)
REMARK    1  A    between atoms: C_7  and  C_36
REMARK    2  A    between atoms: C_12  and  C_16
REMARK                            x       y       z     vdW  Elec       q    Type
REMARK                         _______ _______ _______ _____ _____    ______ ____
ROOT
ATOM      1 CL   UNL     1       2.488 -13.519  26.536  0.00  0.00    -0.083 Cl
ATOM      2  C   UNL     1       3.088 -11.856  26.572  0.00  0.00    +0.055 C 
ATOM      3  C   UNL     1       2.234 -10.796  26.643  0.00  0.00    +0.026 C 
ATOM      4  C   UNL     1       2.711  -9.480  26.671  0.00  0.00    +0.055 C 
ATOM      5  C   UNL     1       4.070  -9.343  26.622  0.00  0.00    +0.043 C 
ATOM      6  C   UNL     1       4.940 -10.398  26.550  0.00  0.00    +0.005 C 
ATOM      7  C   UNL     1       4.440 -11.679  26.525  0.00  0.00    -0.001 C 
ATOM      8  S   UNL     1       4.797  -7.694  26.651  0.00  0.00    -0.084 S 
ATOM      9  C   UNL     1       3.439  -6.563  26.745  0.00  0.00    +0.043 C 
ATOM     10  C   UNL     1       2.157  -7.025  26.779  0.00  0.00    +0.054 C 
ATOM     11  C   UNL     1       1.160  -6.058  26.852  0.00  0.00    +0.011 C 
ATOM     12  C   UNL     1       1.385  -4.704  26.891  0.00  0.00    -0.017 C 
ATOM     13  C   UNL     1       2.701  -4.275  26.853  0.00  0.00    -0.003 C 
ATOM     14  C   UNL     1       3.721  -5.233  26.780  0.00  0.00    +0.007 C 
ATOM     15  N   UNL     1       1.825  -8.401  26.744  0.00  0.00    -0.312 N 
ATOM     16  H   UNL     1       0.866  -8.622  26.774  0.00  0.00    +0.152 HD
ENDROOT
BRANCH  12  17
ATOM     17  C   UNL     1       0.286  -3.747  26.968  0.00  0.00    +0.044 C 
ATOM     18  C   UNL     1       0.718  -2.318  27.215  0.00  0.00    +0.009 C 
ATOM     19  C   UNL     1      -0.451  -1.410  27.003  0.00  0.00    +0.005 C 
ATOM     20  C   UNL     1      -1.790  -2.027  27.224  0.00  0.00    +0.026 C 
ATOM     21  C   UNL     1      -1.763  -3.198  28.157  0.00  0.00    -0.026 C 
ATOM     22  C   UNL     1      -0.707  -4.070  28.023  0.00  0.00    -0.022 C 
ATOM     23  C   UNL     1      -0.619  -5.168  28.845  0.00  0.00    -0.001 C 
ATOM     24  C   UNL     1      -1.561  -5.439  29.820  0.00  0.00    +0.042 C 
ATOM     25  C   UNL     1      -2.608  -4.537  29.921  0.00  0.00    +0.042 C 
ATOM     26  C   UNL     1      -2.711  -3.428  29.102  0.00  0.00    -0.001 C 
ATOM     27  C   UNL     1      -3.612  -4.813  30.950  0.00  0.00    +0.196 C 
ATOM     28  O   UNL     1      -4.562  -3.993  31.043  0.00  0.00    -0.287 OA
ATOM     29  C   UNL     1      -3.536  -5.970  31.833  0.00  0.00    +0.042 C 
ATOM     30  C   UNL     1      -2.487  -6.859  31.717  0.00  0.00    +0.042 C 
ATOM     31  C   UNL     1      -2.411  -7.963  32.556  0.00  0.00    +0.003 C 
ATOM     32  C   UNL     1      -3.370  -8.216  33.529  0.00  0.00    +0.000 C 
ATOM     33  C   UNL     1      -4.420  -7.323  33.643  0.00  0.00    +0.000 C 
ATOM     34  C   UNL     1      -4.486  -6.220  32.798  0.00  0.00    +0.003 C 
ATOM     35  C   UNL     1      -1.463  -6.606  30.692  0.00  0.00    +0.196 C 
ATOM     36  O   UNL     1      -0.510  -7.405  30.579  0.00  0.00    -0.287 OA
ENDBRANCH  12  17
BRANCH   7  37
ATOM     37  C   UNL     1       5.362 -12.851  26.445  0.00  0.00    +0.118 C 
ATOM     38  C   UNL     1       6.786 -12.385  26.664  0.00  0.00    +0.088 C 
ATOM     39  N   UNL     1       7.051 -13.099  25.392  0.00  0.00    -0.280 N 
ATOM     40  C   UNL     1       8.446 -13.336  25.432  0.00  0.00    +0.093 C 
ATOM     41  C   UNL     1       8.831 -13.453  26.715  0.00  0.00    +0.023 C 
ATOM     42  C   UNL     1       7.622 -13.287  27.582  0.00  0.00    +0.022 C 
ATOM     43  C   UNL     1       5.695 -13.067  24.983  0.00  0.00    +0.231 C 
ATOM     44  O   UNL     1       5.008 -13.160  23.955  0.00  0.00    -0.274 OA
ENDBRANCH   7  37
TORSDOF 2
ENDMDL
