MODEL 1
REMARK VINA RESULT:   -10.147      0.000      0.000
REMARK INTER + INTRA:         -14.019
REMARK INTER:                 -12.816
REMARK INTRA:                  -1.203
REMARK UNBOUND:                -1.203
REMARK  Name = =
REMARK  5 active torsions:
REMARK  status: ('A' for Active; 'I' for Inactive)
REMARK    1  A    between atoms: C_1  and  C_15
REMARK    2  A    between atoms: C_11  and  N_30
REMARK    3  A    between atoms: C_13  and  N_39
REMARK    4  A    between atoms: N_39  and  C_40
REMARK    5  A    between atoms: C_40  and  O_42
REMARK                            x       y       z     vdW  Elec       q    Type
REMARK                         _______ _______ _______ _____ _____    ______ ____
ROOT
ATOM      1  C   UNL     1       0.295  -2.196  27.335  0.00  0.00    +0.024 C 
ATOM      2  C   UNL     1      -0.609  -1.428  28.020  0.00  0.00    +0.002 C 
ATOM      3  C   UNL     1      -1.505  -1.909  28.971  0.00  0.00    +0.003 C 
ATOM      4  C   UNL     1      -1.467  -3.236  29.227  0.00  0.00    +0.037 C 
ATOM      5  C   UNL     1      -0.579  -4.099  28.578  0.00  0.00    +0.139 C 
ATOM      6  C   UNL     1       0.287  -3.579  27.645  0.00  0.00    +0.035 C 
ATOM      7  C   UNL     1       1.208  -4.441  26.942  0.00  0.00    +0.003 C 
ATOM      8  C   UNL     1       1.143  -5.865  27.341  0.00  0.00    +0.024 C 
ATOM      9  C   UNL     1       0.266  -6.322  28.273  0.00  0.00    +0.224 C 
ATOM     10  O   UNL     1      -0.604  -5.455  28.903  0.00  0.00    -0.469 OA
ATOM     11  C   UNL     1       0.207  -7.676  28.632  0.00  0.00    +0.078 C 
ATOM     12  C   UNL     1       1.056  -8.563  28.029  0.00  0.00    +0.029 C 
ATOM     13  C   UNL     1       1.974  -8.095  27.059  0.00  0.00    +0.052 C 
ATOM     14  C   UNL     1       2.011  -6.778  26.726  0.00  0.00    +0.014 C 
ENDROOT
BRANCH   1  15
ATOM     15  C   UNL     1       1.255  -1.695  26.360  0.00  0.00    +0.121 C 
ATOM     16  N   UNL     1       2.563  -1.556  26.594  0.00  0.00    -0.146 NA
ATOM     17  N   UNL     1       3.427  -1.124  25.722  0.00  0.00    -0.146 NA
ATOM     18  C   UNL     1       3.087  -0.770  24.479  0.00  0.00    +0.125 C 
ATOM     19  C   UNL     1       1.775  -0.876  24.138  0.00  0.00    +0.059 C 
ATOM     20  C   UNL     1       0.851  -1.344  25.094  0.00  0.00    +0.107 C 
ATOM     21  N   UNL     1      -0.398  -1.411  24.642  0.00  0.00    -0.209 NA
ATOM     22  C   UNL     1      -0.791  -1.077  23.413  0.00  0.00    +0.262 C 
ATOM     23  N   UNL     1      -2.159  -1.196  23.061  0.00  0.00    -0.053 N 
ATOM     24  N   UNL     1      -3.010  -0.192  23.032  0.00  0.00    -0.047 NA
ATOM     25  N   UNL     1      -4.163  -0.708  22.661  0.00  0.00    -0.106 NA
ATOM     26  C   UNL     1      -4.019  -2.032  22.461  0.00  0.00    +0.243 C 
ATOM     27  N   UNL     1      -2.743  -2.327  22.719  0.00  0.00    -0.128 NA
ATOM     28  N   UNL     1       0.094  -0.624  22.486  0.00  0.00    -0.209 NA
ATOM     29  C   UNL     1       1.374  -0.530  22.869  0.00  0.00    +0.105 C 
ENDBRANCH   1  15
BRANCH  11  30
ATOM     30  N   UNL     1      -0.743  -8.049  29.612  0.00  0.00    -0.264 N 
ATOM     31  C   UNL     1      -0.711  -7.902  30.945  0.00  0.00    +0.055 C 
ATOM     32  C   UNL     1      -1.871  -8.422  31.485  0.00  0.00    +0.015 C 
ATOM     33  C   UNL     1      -2.636  -8.904  30.453  0.00  0.00    +0.018 C 
ATOM     34  C   UNL     1      -1.909  -8.657  29.305  0.00  0.00    +0.069 C 
ATOM     35  C   UNL     1      -2.063  -8.384  32.851  0.00  0.00    +0.001 C 
ATOM     36  C   UNL     1      -1.101  -7.825  33.666  0.00  0.00    +0.000 C 
ATOM     37  C   UNL     1       0.047  -7.312  33.102  0.00  0.00    +0.001 C 
ATOM     38  C   UNL     1       0.257  -7.343  31.750  0.00  0.00    +0.015 C 
ENDBRANCH  11  30
BRANCH  13  39
ATOM     39  N   UNL     1       2.795  -9.100  26.473  0.00  0.00    -0.278 N 
ATOM     40  H   UNL     1       2.529  -9.441  25.588  0.00  0.00    +0.156 HD
BRANCH  39  41
ATOM     41  C   UNL     1       3.950  -9.645  27.050  0.00  0.00    +0.230 C 
ATOM     42  S   UNL     1       4.720 -10.969  26.521  0.00  0.00    +0.006 S 
BRANCH  41  43
ATOM     43  O   UNL     1       4.470  -8.963  28.187  0.00  0.00    -0.490 OA
ATOM     44  H   UNL     1       5.056  -9.404  28.770  0.00  0.00    +0.294 HD
ENDBRANCH  41  43
ENDBRANCH  39  41
ENDBRANCH  13  39
TORSDOF 5
ENDMDL
