REMARK  Name = =
REMARK  5 active torsions:
REMARK  status: ('A' for Active; 'I' for Inactive)
REMARK    1  A    between atoms: C_1  and  C_15
REMARK    2  A    between atoms: C_11  and  N_30
REMARK    3  A    between atoms: C_13  and  N_39
REMARK    4  A    between atoms: N_39  and  C_40
REMARK    5  A    between atoms: C_40  and  O_42
REMARK                            x       y       z     vdW  Elec       q    Type
REMARK                         _______ _______ _______ _____ _____    ______ ____
ROOT
ATOM      1  C   UNL     1       0.165  -1.955  18.514  0.00  0.00    +0.024 C 
ATOM      2  C   UNL     1       1.105  -2.023  17.519  0.00  0.00    +0.002 C 
ATOM      3  C   UNL     1       1.234  -3.074  16.615  0.00  0.00    +0.003 C 
ATOM      4  C   UNL     1       0.358  -4.096  16.741  0.00  0.00    +0.037 C 
ATOM      5  C   UNL     1      -0.635  -4.115  17.725  0.00  0.00    +0.139 C 
ATOM      6  C   UNL     1      -0.724  -3.056  18.597  0.00  0.00    +0.035 C 
ATOM      7  C   UNL     1      -1.725  -3.047  19.637  0.00  0.00    +0.003 C 
ATOM      8  C   UNL     1      -2.620  -4.226  19.637  0.00  0.00    +0.024 C 
ATOM      9  C   UNL     1      -2.486  -5.244  18.747  0.00  0.00    +0.224 C 
ATOM     10  O   UNL     1      -1.499  -5.208  17.783  0.00  0.00    -0.469 OA
ATOM     11  C   UNL     1      -3.334  -6.361  18.768  0.00  0.00    +0.078 C 
ATOM     12  C   UNL     1      -4.324  -6.429  19.709  0.00  0.00    +0.029 C 
ATOM     13  C   UNL     1      -4.472  -5.372  20.639  0.00  0.00    +0.052 C 
ATOM     14  C   UNL     1      -3.637  -4.300  20.600  0.00  0.00    +0.014 C 
ENDROOT
BRANCH   1  15
ATOM     15  C   UNL     1       0.006  -0.846  19.445  0.00  0.00    +0.121 C 
ATOM     16  N   UNL     1      -0.755   0.227  19.215  0.00  0.00    -0.146 NA
ATOM     17  N   UNL     1      -0.913   1.213  20.049  0.00  0.00    -0.146 NA
ATOM     18  C   UNL     1      -0.319   1.252  21.246  0.00  0.00    +0.125 C 
ATOM     19  C   UNL     1       0.479   0.203  21.579  0.00  0.00    +0.059 C 
ATOM     20  C   UNL     1       0.641  -0.856  20.664  0.00  0.00    +0.107 C 
ATOM     21  N   UNL     1       1.437  -1.826  21.105  0.00  0.00    -0.209 NA
ATOM     22  C   UNL     1       2.049  -1.842  22.289  0.00  0.00    +0.262 C 
ATOM     23  N   UNL     1       2.874  -2.941  22.635  0.00  0.00    -0.053 N 
ATOM     24  N   UNL     1       4.188  -2.940  22.552  0.00  0.00    -0.047 NA
ATOM     25  N   UNL     1       4.575  -4.131  22.959  0.00  0.00    -0.106 NA
ATOM     26  C   UNL     1       3.496  -4.864  23.293  0.00  0.00    +0.243 C 
ATOM     27  N   UNL     1       2.425  -4.096  23.082  0.00  0.00    -0.128 NA
ATOM     28  N   UNL     1       1.898  -0.823  23.177  0.00  0.00    -0.209 NA
ATOM     29  C   UNL     1       1.108   0.192  22.802  0.00  0.00    +0.105 C 
ENDBRANCH   1  15
BRANCH  11  30
ATOM     30  N   UNL     1      -3.109  -7.367  17.799  0.00  0.00    -0.264 N 
ATOM     31  C   UNL     1      -2.427  -8.519  17.894  0.00  0.00    +0.055 C 
ATOM     32  C   UNL     1      -2.483  -9.178  16.681  0.00  0.00    +0.015 C 
ATOM     33  C   UNL     1      -3.220  -8.407  15.817  0.00  0.00    +0.018 C 
ATOM     34  C   UNL     1      -3.593  -7.292  16.541  0.00  0.00    +0.069 C 
ATOM     35  C   UNL     1      -1.848 -10.394  16.537  0.00  0.00    +0.001 C 
ATOM     36  C   UNL     1      -1.165 -10.945  17.602  0.00  0.00    +0.000 C 
ATOM     37  C   UNL     1      -1.125 -10.267  18.801  0.00  0.00    +0.001 C 
ATOM     38  C   UNL     1      -1.747  -9.059  18.963  0.00  0.00    +0.015 C 
ENDBRANCH  11  30
BRANCH  13  39
ATOM     39  N   UNL     1      -5.515  -5.550  21.592  0.00  0.00    -0.278 N 
ATOM     40  H   UNL     1      -5.324  -6.126  22.367  0.00  0.00    +0.156 HD
BRANCH  39  41
ATOM     41  C   UNL     1      -6.790  -4.974  21.519  0.00  0.00    +0.230 C 
ATOM     42  S   UNL     1      -7.496  -4.443  20.161  0.00  0.00    +0.006 S 
BRANCH  41  43
ATOM     43  O   UNL     1      -7.503  -4.860  22.747  0.00  0.00    -0.490 OA
ATOM     44  H   UNL     1      -7.114  -5.161  23.544  0.00  0.00    +0.294 HD
ENDBRANCH  41  43
ENDBRANCH  39  41
ENDBRANCH  13  39
TORSDOF 5
