REMARK  Name = =
REMARK  2 active torsions:
REMARK  status: ('A' for Active; 'I' for Inactive)
REMARK    1  A    between atoms: C_7  and  C_36
REMARK    2  A    between atoms: C_12  and  C_16
REMARK                            x       y       z     vdW  Elec       q    Type
REMARK                         _______ _______ _______ _____ _____    ______ ____
ROOT
ATOM      1 CL   UNL     1      -8.969  -1.624  33.104  0.00  0.00    -0.083 Cl
ATOM      2  C   UNL     1      -9.946  -1.627  31.630  0.00  0.00    +0.055 C 
ATOM      3  C   UNL     1      -9.399  -1.327  30.418  0.00  0.00    +0.026 C 
ATOM      4  C   UNL     1     -10.174  -1.330  29.252  0.00  0.00    +0.055 C 
ATOM      5  C   UNL     1     -11.492  -1.650  29.419  0.00  0.00    +0.043 C 
ATOM      6  C   UNL     1     -12.055  -1.953  30.630  0.00  0.00    +0.005 C 
ATOM      7  C   UNL     1     -11.267  -1.942  31.757  0.00  0.00    -0.001 C 
ATOM      8  S   UNL     1     -12.585  -1.684  27.986  0.00  0.00    -0.084 S 
ATOM      9  C   UNL     1     -11.580  -1.255  26.594  0.00  0.00    +0.043 C 
ATOM     10  C   UNL     1     -10.255  -0.982  26.758  0.00  0.00    +0.054 C 
ATOM     11  C   UNL     1      -9.550  -0.654  25.604  0.00  0.00    +0.011 C 
ATOM     12  C   UNL     1     -10.096  -0.592  24.346  0.00  0.00    -0.017 C 
ATOM     13  C   UNL     1     -11.446  -0.875  24.222  0.00  0.00    -0.003 C 
ATOM     14  C   UNL     1     -12.174  -1.208  25.372  0.00  0.00    +0.007 C 
ATOM     15  N   UNL     1      -9.602  -1.020  28.014  0.00  0.00    -0.312 N 
ATOM     16  H   UNL     1      -8.641  -0.805  28.016  0.00  0.00    +0.152 HD
ENDROOT
BRANCH  12  17
ATOM     17  C   UNL     1      -9.293  -0.240  23.179  0.00  0.00    +0.044 C 
ATOM     18  C   UNL     1      -9.992   0.667  22.190  0.00  0.00    +0.009 C 
ATOM     19  C   UNL     1      -8.994   1.169  21.197  0.00  0.00    +0.005 C 
ATOM     20  C   UNL     1      -7.812   0.287  20.974  0.00  0.00    +0.026 C 
ATOM     21  C   UNL     1      -8.074  -1.154  21.284  0.00  0.00    -0.026 C 
ATOM     22  C   UNL     1      -8.826  -1.418  22.406  0.00  0.00    -0.022 C 
ATOM     23  C   UNL     1      -9.104  -2.719  22.752  0.00  0.00    -0.001 C 
ATOM     24  C   UNL     1      -8.655  -3.794  22.008  0.00  0.00    +0.042 C 
ATOM     25  C   UNL     1      -7.901  -3.485  20.887  0.00  0.00    +0.042 C 
ATOM     26  C   UNL     1      -7.613  -2.182  20.526  0.00  0.00    -0.001 C 
ATOM     27  C   UNL     1      -7.420  -4.615  20.090  0.00  0.00    +0.196 C 
ATOM     28  O   UNL     1      -6.737  -4.334  19.072  0.00  0.00    -0.287 OA
ATOM     29  C   UNL     1      -7.706  -6.001  20.439  0.00  0.00    +0.042 C 
ATOM     30  C   UNL     1      -8.457  -6.290  21.560  0.00  0.00    +0.042 C 
ATOM     31  C   UNL     1      -8.731  -7.610  21.896  0.00  0.00    +0.003 C 
ATOM     32  C   UNL     1      -8.269  -8.675  21.133  0.00  0.00    +0.000 C 
ATOM     33  C   UNL     1      -7.516  -8.382  20.010  0.00  0.00    +0.000 C 
ATOM     34  C   UNL     1      -7.248  -7.057  19.682  0.00  0.00    +0.003 C 
ATOM     35  C   UNL     1      -8.954  -5.174  22.378  0.00  0.00    +0.196 C 
ATOM     36  O   UNL     1      -9.635  -5.426  23.395  0.00  0.00    -0.287 OA
ENDBRANCH  12  17
BRANCH   7  37
ATOM     37  C   UNL     1     -11.850  -2.267  33.092  0.00  0.00    +0.118 C 
ATOM     38  C   UNL     1     -11.736  -3.757  33.341  0.00  0.00    +0.088 C 
ATOM     39  N   UNL     1     -13.191  -3.666  33.613  0.00  0.00    -0.280 N 
ATOM     40  C   UNL     1     -13.454  -4.823  34.384  0.00  0.00    +0.093 C 
ATOM     41  C   UNL     1     -12.349  -5.142  35.081  0.00  0.00    +0.023 C 
ATOM     42  C   UNL     1     -11.287  -4.138  34.758  0.00  0.00    +0.022 C 
ATOM     43  C   UNL     1     -13.342  -2.449  32.903  0.00  0.00    +0.231 C 
ATOM     44  O   UNL     1     -14.223  -1.771  32.352  0.00  0.00    -0.274 OA
ENDBRANCH   7  37
TORSDOF 2
