REMARK  Name = =
REMARK  0 active torsions:
REMARK  status: ('A' for Active; 'I' for Inactive)
REMARK                            x       y       z     vdW  Elec       q    Type
REMARK                         _______ _______ _______ _____ _____    ______ ____
ROOT
ATOM      1  C   UNL     1      50.967 157.667  29.546  0.00  0.00    +0.000 C 
ATOM      2  C   UNL     1      51.391 156.533  28.884  0.00  0.00    +0.000 C 
ATOM      3  C   UNL     1      50.538 155.451  28.729  0.00  0.00    +0.000 C 
ATOM      4  C   UNL     1      49.271 155.537  29.247  0.00  0.00    +0.000 C 
ATOM      5  C   UNL     1      48.841 156.673  29.914  0.00  0.00    +0.000 C 
ATOM      6  C   UNL     1      49.673 157.749  30.075  0.00  0.00    +0.000 C 
ATOM      7  C   UNL     1      49.269 158.885  30.732  0.00  0.00    +0.000 C 
ATOM      8  C   UNL     1      50.156 159.962  30.871  0.00  0.00    +0.000 C 
ATOM      9  C   UNL     1      49.758 161.110  31.530  0.00  0.00    +0.000 C 
ATOM     10  C   UNL     1      48.490 161.215  32.059  0.00  0.00    +0.000 C 
ATOM     11  C   UNL     1      47.637 160.145  31.909  0.00  0.00    +0.000 C 
ATOM     12  C   UNL     1      48.001 158.987  31.257  0.00  0.00    +0.000 C 
ATOM     13  C   UNL     1      51.425 159.871  30.350  0.00  0.00    +0.000 C 
ATOM     14  C   UNL     1      51.835 158.725  29.686  0.00  0.00    +0.000 C 
ATOM     15  C   UNL     1      53.129 158.684  29.178  0.00  0.00    +0.000 C 
ATOM     16  C   UNL     1      53.502 157.522  28.521  0.00  0.00    +0.000 C 
ATOM     17  C   UNL     1      52.668 156.436  28.357  0.00  0.00    +0.000 C 
ATOM     18  C   UNL     1      53.059 155.284  27.697  0.00  0.00    +0.000 C 
ATOM     19  C   UNL     1      52.206 154.212  27.546  0.00  0.00    +0.000 C 
ATOM     20  C   UNL     1      50.949 154.304  28.065  0.00  0.00    +0.000 C 
ENDROOT
TORSDOF 0
