REMARK  Name = =
REMARK  3 active torsions:
REMARK  status: ('A' for Active; 'I' for Inactive)
REMARK    1  A    between atoms: C_20  and  N_21
REMARK    2  A    between atoms: N_21  and  C_22
REMARK    3  A    between atoms: C_22  and  S_24
REMARK                            x       y       z     vdW  Elec       q    Type
REMARK                         _______ _______ _______ _____ _____    ______ ____
ROOT
ATOM      1  C   UNL     1      51.153 158.014  29.721  0.00  0.00    +0.000 C 
ATOM      2  C   UNL     1      51.859 156.955  29.145  0.00  0.00    +0.001 C 
ATOM      3  C   UNL     1      51.234 155.716  28.936  0.00  0.00    +0.013 C 
ATOM      4  C   UNL     1      49.947 155.581  29.303  0.00  0.00    +0.001 C 
ATOM      5  C   UNL     1      49.207 156.621  29.884  0.00  0.00    +0.000 C 
ATOM      6  C   UNL     1      49.821 157.818  30.084  0.00  0.00    +0.000 C 
ATOM      7  C   UNL     1      49.103 158.855  30.657  0.00  0.00    +0.000 C 
ATOM      8  C   UNL     1      49.755 160.081  30.855  0.00  0.00    +0.000 C 
ATOM      9  C   UNL     1      49.031 161.095  31.423  0.00  0.00    +0.000 C 
ATOM     10  C   UNL     1      47.727 160.948  31.791  0.00  0.00    +0.000 C 
ATOM     11  C   UNL     1      47.057 159.748  31.608  0.00  0.00    +0.000 C 
ATOM     12  C   UNL     1      47.791 158.710  31.029  0.00  0.00    +0.000 C 
ATOM     13  C   UNL     1      51.071 160.242  30.487  0.00  0.00    +0.000 C 
ATOM     14  C   UNL     1      51.780 159.216  29.920  0.00  0.00    +0.000 C 
ATOM     15  C   UNL     1      53.102 159.378  29.551  0.00  0.00    +0.000 C 
ATOM     16  C   UNL     1      53.813 158.350  28.984  0.00  0.00    +0.000 C 
ATOM     17  C   UNL     1      53.165 157.124  28.784  0.00  0.00    +0.000 C 
ATOM     18  C   UNL     1      53.862 156.083  28.218  0.00  0.00    +0.001 C 
ATOM     19  C   UNL     1      53.231 154.869  28.019  0.00  0.00    +0.015 C 
ATOM     20  C   UNL     1      51.913 154.634  28.361  0.00  0.00    +0.049 C 
ENDROOT
BRANCH  20  21
ATOM     21  N   UNL     1      51.284 153.393  28.133  0.00  0.00    -0.303 N 
ATOM     22  H   UNL     1      50.383 153.322  28.523  0.00  0.00    +0.153 HD
BRANCH  21  23
ATOM     23  C   UNL     1      51.697 152.263  27.466  0.00  0.00    +0.108 C 
ATOM     24  S   UNL     1      51.295 150.766  28.085  0.00  0.00    -0.028 S 
BRANCH  23  25
ATOM     25  S   UNL     1      52.636 152.234  25.976  0.00  0.00    -0.120 S 
ATOM     26  H   UNL     1      52.860 150.945  25.607  0.00  0.00    +0.109 HD
ENDBRANCH  23  25
ENDBRANCH  21  23
ENDBRANCH  20  21
TORSDOF 3
