MODEL 1
REMARK VINA RESULT:   -12.780      0.000      0.000
REMARK INTER + INTRA:         -16.040
REMARK INTER:                 -18.010
REMARK INTRA:                   1.970
REMARK UNBOUND:                 1.970
REMARK  Name = =
REMARK  8 active torsions:
REMARK  status: ('A' for Active; 'I' for Inactive)
REMARK    1  A    between atoms: O_1  and  C_2
REMARK    2  A    between atoms: O_1  and  C_21
REMARK    3  A    between atoms: C_6  and  C_17
REMARK    4  A    between atoms: C_11  and  O_20
REMARK    5  A    between atoms: C_17  and  O_19
REMARK    6  A    between atoms: C_21  and  N_27
REMARK    7  A    between atoms: N_27  and  S_30
REMARK    8  A    between atoms: S_30  and  C_33
REMARK                            x       y       z     vdW  Elec       q    Type
REMARK                         _______ _______ _______ _____ _____    ______ ____
ROOT
ATOM      1  O   UNL     1     -14.750 -43.872  30.717  0.00  0.00    -0.451 OA
ENDROOT
BRANCH   1   2
ATOM      2  C   UNL     1     -14.021 -43.857  29.543  0.00  0.00    +0.145 C 
ATOM      3  C   UNL     1     -14.625 -43.428  28.379  0.00  0.00    +0.069 C 
ATOM      4  C   UNL     1     -13.922 -43.423  27.194  0.00  0.00    -0.012 C 
ATOM      5  C   UNL     1     -12.585 -43.860  27.209  0.00  0.00    +0.003 C 
ATOM      6  C   UNL     1     -11.986 -44.283  28.372  0.00  0.00    +0.078 C 
ATOM      7  C   UNL     1     -12.688 -44.287  29.547  0.00  0.00    +0.044 C 
ATOM      8  C   UNL     1     -14.456 -42.989  25.900  0.00  0.00    +0.053 C 
ATOM      9  C   UNL     1     -15.806 -42.432  25.922  0.00  0.00    -0.012 C 
ATOM     10  C   UNL     1     -16.544 -42.402  27.067  0.00  0.00    +0.069 C 
ATOM     11  C   UNL     1     -17.837 -41.871  27.011  0.00  0.00    +0.136 C 
ATOM     12  C   UNL     1     -18.370 -41.385  25.835  0.00  0.00    +0.037 C 
ATOM     13  C   UNL     1     -17.631 -41.412  24.677  0.00  0.00    +0.003 C 
ATOM     14  C   UNL     1     -16.364 -41.929  24.717  0.00  0.00    -0.004 C 
ATOM     15  C   UNL     1     -15.988 -42.893  28.321  0.00  0.00    +0.201 C 
ATOM     16  O   UNL     1     -16.681 -42.851  29.351  0.00  0.00    -0.286 OA
BRANCH   6  17
ATOM     17  C   UNL     1     -10.583 -44.736  28.377  0.00  0.00    +0.338 C 
ATOM     18  O   UNL     1      -9.687 -43.862  28.394  0.00  0.00    -0.245 OA
BRANCH  17  19
ATOM     19  O   UNL     1     -10.227 -46.061  28.362  0.00  0.00    -0.477 OA
ATOM     20  H   UNL     1      -9.663 -46.387  27.688  0.00  0.00    +0.295 HD
ENDBRANCH  17  19
ENDBRANCH   6  17
BRANCH  11  21
ATOM     21  O   UNL     1     -18.552 -41.860  28.202  0.00  0.00    -0.505 OA
ATOM     22  H   UNL     1     -18.391 -42.517  28.851  0.00  0.00    +0.292 HD
ENDBRANCH  11  21
ENDBRANCH   1   2
BRANCH   1  23
ATOM     23  C   UNL     1     -14.300 -43.296  31.947  0.00  0.00    +0.268 C 
ATOM     24  N   UNL     1     -15.077 -44.035  32.962  0.00  0.00    -0.237 NA
ATOM     25  C   UNL     1     -14.572 -43.750  34.289  0.00  0.00    +0.146 C 
ATOM     26  N   UNL     1     -14.332 -42.351  34.490  0.00  0.00    -0.283 NA
ATOM     27  C   UNL     1     -14.928 -41.507  33.511  0.00  0.00    +0.077 C 
ATOM     28  C   UNL     1     -14.701 -41.889  32.087  0.00  0.00    +0.096 C 
ATOM     29  H   UNL     1     -15.001 -45.036  32.780  0.00  0.00    +0.129 HD
ATOM     30  H   UNL     1     -13.324 -42.194  34.476  0.00  0.00    +0.125 HD
BRANCH  23  31
ATOM     31  N   UNL     1     -12.911 -43.608  32.133  0.00  0.00    -0.107 N 
ATOM     32  C   UNL     1     -12.571 -45.009  32.238  0.00  0.00    +0.327 C 
ATOM     33  O   UNL     1     -13.446 -45.915  32.171  0.00  0.00    -0.263 OA
BRANCH  31  34
ATOM     34  S   UNL     1     -11.619 -42.507  32.242  0.00  0.00    +0.083 S 
ATOM     35  O   UNL     1     -11.605 -41.434  31.218  0.00  0.00    -0.150 OA
ATOM     36  O   UNL     1     -11.709 -41.802  33.593  0.00  0.00    -0.150 OA
BRANCH  34  37
ATOM     37  C   UNL     1     -10.056 -43.323  32.198  0.00  0.00    +0.126 C 
ATOM     38  C   UNL     1      -9.916 -44.624  31.763  0.00  0.00    +0.020 C 
ATOM     39  C   UNL     1      -8.665 -45.241  31.740  0.00  0.00    +0.001 C 
ATOM     40  C   UNL     1      -7.530 -44.576  32.147  0.00  0.00    +0.000 C 
ATOM     41  C   UNL     1      -7.669 -43.275  32.581  0.00  0.00    +0.001 C 
ATOM     42  C   UNL     1      -8.911 -42.666  32.602  0.00  0.00    +0.020 C 
ENDBRANCH  34  37
ENDBRANCH  31  34
ENDBRANCH  23  31
ENDBRANCH   1  23
TORSDOF 8
ENDMDL
