REMARK  Name = =
REMARK  8 active torsions:
REMARK  status: ('A' for Active; 'I' for Inactive)
REMARK    1  A    between atoms: O_1  and  C_2
REMARK    2  A    between atoms: O_1  and  C_21
REMARK    3  A    between atoms: C_6  and  C_17
REMARK    4  A    between atoms: C_11  and  O_20
REMARK    5  A    between atoms: C_17  and  O_19
REMARK    6  A    between atoms: C_21  and  N_27
REMARK    7  A    between atoms: N_27  and  S_30
REMARK    8  A    between atoms: S_30  and  C_33
REMARK                            x       y       z     vdW  Elec       q    Type
REMARK                         _______ _______ _______ _____ _____    ______ ____
ROOT
ATOM      1  O   UNL     1     -12.741 -41.879  31.882  0.00  0.00    -0.451 OA
ENDROOT
BRANCH   1   2
ATOM      2  C   UNL     1     -11.406 -41.966  32.229  0.00  0.00    +0.145 C 
ATOM      3  C   UNL     1     -10.458 -42.099  31.235  0.00  0.00    +0.069 C 
ATOM      4  C   UNL     1      -9.123 -42.207  31.560  0.00  0.00    -0.012 C 
ATOM      5  C   UNL     1      -8.762 -42.173  32.919  0.00  0.00    +0.003 C 
ATOM      6  C   UNL     1      -9.710 -42.036  33.906  0.00  0.00    +0.078 C 
ATOM      7  C   UNL     1     -11.035 -41.930  33.579  0.00  0.00    +0.044 C 
ATOM      8  C   UNL     1      -8.030 -42.350  30.594  0.00  0.00    +0.053 C 
ATOM      9  C   UNL     1      -8.410 -42.269  29.186  0.00  0.00    -0.012 C 
ATOM     10  C   UNL     1      -9.713 -42.152  28.807  0.00  0.00    +0.069 C 
ATOM     11  C   UNL     1     -10.005 -42.098  27.439  0.00  0.00    +0.136 C 
ATOM     12  C   UNL     1      -9.012 -42.161  26.484  0.00  0.00    +0.037 C 
ATOM     13  C   UNL     1      -7.696 -42.278  26.860  0.00  0.00    +0.003 C 
ATOM     14  C   UNL     1      -7.395 -42.332  28.194  0.00  0.00    -0.004 C 
ATOM     15  C   UNL     1     -10.771 -42.065  29.804  0.00  0.00    +0.201 C 
ATOM     16  O   UNL     1     -11.951 -41.955  29.431  0.00  0.00    -0.286 OA
BRANCH   6  17
ATOM     17  C   UNL     1      -9.320 -41.999  35.327  0.00  0.00    +0.338 C 
ATOM     18  O   UNL     1     -10.229 -41.876  36.179  0.00  0.00    -0.245 OA
BRANCH  17  19
ATOM     19  O   UNL     1      -8.017 -42.092  35.746  0.00  0.00    -0.477 OA
ATOM     20  H   UNL     1      -7.328 -42.184  35.117  0.00  0.00    +0.295 HD
ENDBRANCH  17  19
ENDBRANCH   6  17
BRANCH  11  21
ATOM     21  O   UNL     1     -11.347 -41.979  27.099  0.00  0.00    -0.505 OA
ATOM     22  H   UNL     1     -11.999 -41.939  27.771  0.00  0.00    +0.292 HD
ENDBRANCH  11  21
ENDBRANCH   1   2
BRANCH   1  23
ATOM     23  C   UNL     1     -13.728 -42.850  32.243  0.00  0.00    +0.268 C 
ATOM     24  N   UNL     1     -14.040 -42.500  33.642  0.00  0.00    -0.237 NA
ATOM     25  C   UNL     1     -15.204 -43.232  34.097  0.00  0.00    +0.146 C 
ATOM     26  N   UNL     1     -15.153 -44.617  33.729  0.00  0.00    -0.283 NA
ATOM     27  C   UNL     1     -13.870 -45.063  33.302  0.00  0.00    +0.077 C 
ATOM     28  C   UNL     1     -13.183 -44.214  32.287  0.00  0.00    +0.096 C 
ATOM     29  H   UNL     1     -14.226 -41.499  33.705  0.00  0.00    +0.129 HD
ATOM     30  H   UNL     1     -15.814 -44.770  32.967  0.00  0.00    +0.125 HD
BRANCH  23  31
ATOM     31  N   UNL     1     -14.909 -42.637  31.454  0.00  0.00    -0.107 N 
ATOM     32  C   UNL     1     -15.650 -41.423  31.715  0.00  0.00    +0.327 C 
ATOM     33  O   UNL     1     -15.283 -40.592  32.589  0.00  0.00    -0.263 OA
BRANCH  31  34
ATOM     34  S   UNL     1     -15.531 -43.657  30.244  0.00  0.00    +0.083 S 
ATOM     35  O   UNL     1     -15.081 -45.069  30.304  0.00  0.00    -0.150 OA
ATOM     36  O   UNL     1     -17.050 -43.690  30.386  0.00  0.00    -0.150 OA
BRANCH  34  37
ATOM     37  C   UNL     1     -15.185 -43.043  28.627  0.00  0.00    +0.126 C 
ATOM     38  C   UNL     1     -14.003 -43.315  27.973  0.00  0.00    +0.020 C 
ATOM     39  C   UNL     1     -13.760 -42.814  26.693  0.00  0.00    +0.001 C 
ATOM     40  C   UNL     1     -14.689 -42.035  26.040  0.00  0.00    +0.000 C 
ATOM     41  C   UNL     1     -15.872 -41.763  26.694  0.00  0.00    +0.001 C 
ATOM     42  C   UNL     1     -16.109 -42.262  27.962  0.00  0.00    +0.020 C 
ENDBRANCH  34  37
ENDBRANCH  31  34
ENDBRANCH  23  31
ENDBRANCH   1  23
TORSDOF 8
