REMARK  Name = =
REMARK  0 active torsions:
REMARK  status: ('A' for Active; 'I' for Inactive)
REMARK                            x       y       z     vdW  Elec       q    Type
REMARK                         _______ _______ _______ _____ _____    ______ ____
ROOT
ATOM      1  C   UNL     1      49.506 158.811  30.144  0.00  0.00    -0.049 C 
ATOM      2  C   UNL     1      49.403 159.848  30.939  0.00  0.00    -0.033 C 
ATOM      3  C   UNL     1      50.473 160.813  31.157  0.00  0.00    -0.024 C 
ATOM      4  C   UNL     1      50.366 161.900  31.899  0.00  0.00    +0.033 C 
ATOM      5  C   UNL     1      49.108 162.179  32.553  0.00  0.00    +0.173 C 
ATOM      6  O   UNL     1      49.096 162.935  33.559  0.00  0.00    -0.291 OA
ATOM      7  C   UNL     1      47.891 161.543  31.983  0.00  0.00    +0.074 C 
ATOM      8  C   UNL     1      48.128 160.081  31.676  0.00  0.00    +0.034 C 
ATOM      9  C   UNL     1      51.809 160.582  30.504  0.00  0.00    +0.026 C 
ATOM     10  C   UNL     1      51.664 159.720  29.283  0.00  0.00    +0.009 C 
ATOM     11  C   UNL     1      50.752 158.564  29.409  0.00  0.00    +0.018 C 
ATOM     12  C   UNL     1      51.347 157.288  29.887  0.00  0.00    +0.004 C 
ATOM     13  C   UNL     1      50.272 156.350  30.384  0.00  0.00    +0.001 C 
ATOM     14  C   UNL     1      48.975 156.475  29.610  0.00  0.00    +0.004 C 
ATOM     15  C   UNL     1      48.388 157.854  29.961  0.00  0.00    +0.022 C 
ATOM     16  C   UNL     1      50.867 154.964  30.247  0.00  0.00    +0.000 C 
ATOM     17  C   UNL     1      52.113 155.118  29.433  0.00  0.00    +0.000 C 
ATOM     18  C   UNL     1      52.086 156.513  28.826  0.00  0.00    +0.000 C 
ENDROOT
TORSDOF 0
