REMARK  Name = =
REMARK  1 active torsions:
REMARK  status: ('A' for Active; 'I' for Inactive)
REMARK    1  A    between atoms: C_1  and  O_11
REMARK                            x       y       z     vdW  Elec       q    Type
REMARK                         _______ _______ _______ _____ _____    ______ ____
ROOT
ATOM      1  C   UNL     1      59.747 162.169  41.658  0.00  0.00    +0.134 C 
ATOM      2  C   UNL     1      58.843 161.229  41.153  0.00  0.00    +0.037 C 
ATOM      3  C   UNL     1      58.775 160.966  39.795  0.00  0.00    +0.003 C 
ATOM      4  C   UNL     1      59.609 161.642  38.937  0.00  0.00    +0.000 C 
ATOM      5  C   UNL     1      60.493 162.564  39.452  0.00  0.00    +0.003 C 
ATOM      6  C   UNL     1      60.586 162.848  40.787  0.00  0.00    +0.037 C 
ATOM      7  C   UNL     1      59.553 161.387  37.563  0.00  0.00    +0.000 C 
ATOM      8  C   UNL     1      58.663 160.465  37.093  0.00  0.00    +0.000 C 
ATOM      9  C   UNL     1      57.843 159.805  37.969  0.00  0.00    +0.000 C 
ATOM     10  C   UNL     1      57.861 160.022  39.337  0.00  0.00    +0.000 C 
ENDROOT
BRANCH   1  11
ATOM     11  O   UNL     1      59.800 162.419  43.026  0.00  0.00    -0.506 OA
ATOM     12  H   UNL     1      59.230 161.957  43.609  0.00  0.00    +0.292 HD
ENDBRANCH   1  11
TORSDOF 1
