REMARK  Name = =
REMARK  2 active torsions:
REMARK  status: ('A' for Active; 'I' for Inactive)
REMARK    1  A    between atoms: C_1  and  O_20
REMARK    2  A    between atoms: C_6  and  C_11
REMARK                            x       y       z     vdW  Elec       q    Type
REMARK                         _______ _______ _______ _____ _____    ______ ____
ROOT
ATOM      1  C   UNL     1      60.576 162.802  40.987  0.00  0.00    +0.130 C 
ATOM      2  C   UNL     1      60.072 161.545  41.362  0.00  0.00    +0.036 C 
ATOM      3  C   UNL     1      59.672 160.608  40.446  0.00  0.00    +0.003 C 
ATOM      4  C   UNL     1      59.747 160.855  39.095  0.00  0.00    -0.000 C 
ATOM      5  C   UNL     1      60.236 162.080  38.715  0.00  0.00    -0.001 C 
ATOM      6  C   UNL     1      60.649 163.056  39.644  0.00  0.00    +0.022 C 
ATOM      7  C   UNL     1      59.341 159.898  38.188  0.00  0.00    -0.000 C 
ATOM      8  C   UNL     1      58.850 158.671  38.572  0.00  0.00    -0.000 C 
ATOM      9  C   UNL     1      58.771 158.411  39.923  0.00  0.00    +0.000 C 
ATOM     10  C   UNL     1      59.174 159.362  40.836  0.00  0.00    +0.000 C 
ENDROOT
BRANCH   6  11
ATOM     11  C   UNL     1      61.072 164.377  39.148  0.00  0.00    +0.121 C 
ATOM     12  C   UNL     1      60.599 164.502  37.681  0.00  0.00    +0.093 C 
ATOM     13  N   UNL     1      60.256 165.861  37.955  0.00  0.00    -0.258 N 
ATOM     14  C   UNL     1      60.300 166.823  36.922  0.00  0.00    +0.063 C 
ATOM     15  C   UNL     1      61.254 166.734  36.021  0.00  0.00    -0.010 C 
ATOM     16  C   UNL     1      62.231 165.647  36.120  0.00  0.00    +0.029 C 
ATOM     17  C   UNL     1      61.694 164.385  36.688  0.00  0.00    +0.026 C 
ATOM     18  C   UNL     1      60.020 165.441  39.324  0.00  0.00    +0.235 C 
ATOM     19  O   UNL     1      59.213 165.923  40.133  0.00  0.00    -0.274 OA
ENDBRANCH   6  11
BRANCH   1  20
ATOM     20  O   UNL     1      60.968 163.680  41.986  0.00  0.00    -0.506 OA
ATOM     21  H   UNL     1      60.887 163.432  42.886  0.00  0.00    +0.292 HD
ENDBRANCH   1  20
TORSDOF 2
