REMARK  Name = =
REMARK  3 active torsions:
REMARK  status: ('A' for Active; 'I' for Inactive)
REMARK    1  A    between atoms: C_9  and  N_19
REMARK    2  A    between atoms: N_19  and  C_20
REMARK    3  A    between atoms: C_20  and  N_22
REMARK                            x       y       z     vdW  Elec       q    Type
REMARK                         _______ _______ _______ _____ _____    ______ ____
ROOT
ATOM      1  C   UNL     1      50.074 158.433  30.965  0.00  0.00    -0.030 C 
ATOM      2  C   UNL     1      49.589 159.578  31.374  0.00  0.00    -0.028 C 
ATOM      3  C   UNL     1      50.398 160.779  31.364  0.00  0.00    -0.006 C 
ATOM      4  C   UNL     1      49.861 161.968  31.566  0.00  0.00    +0.092 C 
ATOM      5  C   UNL     1      48.432 162.122  31.809  0.00  0.00    +0.155 C 
ATOM      6  O   UNL     1      47.944 163.250  32.176  0.00  0.00    -0.296 OA
ATOM      7  C   UNL     1      47.547 160.977  31.629  0.00  0.00    +0.070 C 
ATOM      8  C   UNL     1      48.159 159.630  31.845  0.00  0.00    +0.034 C 
ATOM      9  C   UNL     1      51.845 160.696  31.144  0.00  0.00    +0.045 C 
ATOM     10  C   UNL     1      52.356 159.432  30.575  0.00  0.00    +0.010 C 
ATOM     11  C   UNL     1      51.446 158.281  30.470  0.00  0.00    -0.026 C 
ATOM     12  C   UNL     1      51.394 157.759  29.062  0.00  0.00    +0.022 C 
ATOM     13  C   UNL     1      50.396 156.764  28.721  0.00  0.00    +0.004 C 
ATOM     14  C   UNL     1      49.165 156.667  29.539  0.00  0.00    +0.005 C 
ATOM     15  C   UNL     1      49.316 157.141  30.956  0.00  0.00    +0.026 C 
ATOM     16  C   UNL     1      51.063 155.436  28.463  0.00  0.00    +0.000 C 
ATOM     17  C   UNL     1      52.399 155.622  29.153  0.00  0.00    +0.000 C 
ATOM     18  C   UNL     1      52.724 157.055  28.801  0.00  0.00    +0.004 C 
ENDROOT
BRANCH   9  19
ATOM     19  N   UNL     1      52.265 161.819  30.288  0.00  0.00    -0.296 N 
ATOM     20  H   UNL     1      51.647 162.166  29.604  0.00  0.00    +0.154 HD
BRANCH  19  21
ATOM     21  C   UNL     1      53.534 162.401  30.434  0.00  0.00    +0.132 C 
ATOM     22  S   UNL     1      54.410 162.166  31.789  0.00  0.00    -0.019 S 
BRANCH  21  23
ATOM     23  N   UNL     1      54.112 163.228  29.408  0.00  0.00    -0.340 N 
ATOM     24  H   UNL     1      53.617 163.396  28.574  0.00  0.00    +0.144 HD
ATOM     25  H   UNL     1      55.003 163.626  29.540  0.00  0.00    +0.144 HD
ENDBRANCH  21  23
ENDBRANCH  19  21
ENDBRANCH   9  19
TORSDOF 3
