REMARK  Name = =
REMARK  4 active torsions:
REMARK  status: ('A' for Active; 'I' for Inactive)
REMARK    1  A    between atoms: C_9  and  N_19
REMARK    2  A    between atoms: N_19  and  S_20
REMARK    3  A    between atoms: N_19  and  C_23
REMARK    4  A    between atoms: C_23  and  N_25
REMARK                            x       y       z     vdW  Elec       q    Type
REMARK                         _______ _______ _______ _____ _____    ______ ____
ROOT
ATOM      1  C   UNL     1      49.879 158.319  30.548  0.00  0.00    -0.049 C 
ATOM      2  C   UNL     1      49.448 159.438  31.150  0.00  0.00    -0.032 C 
ATOM      3  C   UNL     1      50.398 160.395  31.694  0.00  0.00    -0.004 C 
ATOM      4  C   UNL     1      49.931 161.361  32.467  0.00  0.00    +0.035 C 
ATOM      5  C   UNL     1      48.481 161.444  32.755  0.00  0.00    +0.173 C 
ATOM      6  O   UNL     1      47.948 162.489  33.161  0.00  0.00    -0.291 OA
ATOM      7  C   UNL     1      47.631 160.234  32.553  0.00  0.00    +0.074 C 
ATOM      8  C   UNL     1      47.980 159.681  31.216  0.00  0.00    +0.034 C 
ATOM      9  C   UNL     1      51.861 160.305  31.433  0.00  0.00    +0.119 C 
ATOM     10  C   UNL     1      52.282 158.936  31.033  0.00  0.00    +0.030 C 
ATOM     11  C   UNL     1      51.286 158.059  30.434  0.00  0.00    +0.020 C 
ATOM     12  C   UNL     1      51.731 157.250  29.274  0.00  0.00    +0.004 C 
ATOM     13  C   UNL     1      50.586 156.694  28.498  0.00  0.00    +0.001 C 
ATOM     14  C   UNL     1      49.469 156.207  29.414  0.00  0.00    +0.004 C 
ATOM     15  C   UNL     1      48.804 157.411  30.040  0.00  0.00    +0.022 C 
ATOM     16  C   UNL     1      51.160 155.495  27.801  0.00  0.00    +0.000 C 
ATOM     17  C   UNL     1      52.463 155.157  28.447  0.00  0.00    +0.000 C 
ATOM     18  C   UNL     1      52.687 156.158  29.567  0.00  0.00    +0.000 C 
ENDROOT
BRANCH   9  19
ATOM     19  N   UNL     1      52.355 161.358  30.570  0.00  0.00    -0.176 N 
BRANCH  19  20
ATOM     20  S   UNL     1      53.981 161.972  30.775  0.00  0.00    +0.037 S 
ATOM     21  O   UNL     1      53.990 163.469  30.638  0.00  0.00    -0.158 OA
ATOM     22  O   UNL     1      54.488 161.648  32.156  0.00  0.00    -0.158 OA
ATOM     23  H   UNL     1      54.767 161.396  29.826  0.00  0.00    +0.233 HD
ENDBRANCH  19  20
BRANCH  19  24
ATOM     24  C   UNL     1      51.592 161.941  29.540  0.00  0.00    +0.150 C 
ATOM     25  S   UNL     1      52.076 163.334  28.858  0.00  0.00    -0.017 S 
BRANCH  24  26
ATOM     26  N   UNL     1      50.388 161.378  29.041  0.00  0.00    -0.339 N 
ATOM     27  H   UNL     1      50.046 160.535  29.417  0.00  0.00    +0.144 HD
ATOM     28  H   UNL     1      49.895 161.831  28.319  0.00  0.00    +0.144 HD
ENDBRANCH  24  26
ENDBRANCH  19  24
ENDBRANCH   9  19
TORSDOF 4
