REMARK  Name = =
REMARK  2 active torsions:
REMARK  status: ('A' for Active; 'I' for Inactive)
REMARK    1  A    between atoms: C_1  and  O_21
REMARK    2  A    between atoms: C_6  and  C_11
REMARK                            x       y       z     vdW  Elec       q    Type
REMARK                         _______ _______ _______ _____ _____    ______ ____
ROOT
ATOM      1  C   UNL     1      60.389 162.408  39.856  0.00  0.00    +0.165 C 
ATOM      2  C   UNL     1      59.744 161.936  40.978  0.00  0.00    +0.039 C 
ATOM      3  C   UNL     1      58.370 161.818  40.949  0.00  0.00    +0.003 C 
ATOM      4  C   UNL     1      57.650 162.162  39.825  0.00  0.00    -0.000 C 
ATOM      5  C   UNL     1      58.334 162.639  38.699  0.00  0.00    -0.001 C 
ATOM      6  C   UNL     1      59.700 162.762  38.715  0.00  0.00    +0.024 C 
ATOM      7  C   UNL     1      56.270 162.060  39.750  0.00  0.00    -0.000 C 
ATOM      8  C   UNL     1      55.596 161.589  40.861  0.00  0.00    -0.000 C 
ATOM      9  C   UNL     1      56.296 161.236  42.005  0.00  0.00    +0.000 C 
ATOM     10  C   UNL     1      57.663 161.347  42.051  0.00  0.00    +0.000 C 
ENDROOT
BRANCH   6  11
ATOM     11  C   UNL     1      60.433 163.263  37.536  0.00  0.00    +0.121 C 
ATOM     12  C   UNL     1      61.467 164.276  37.965  0.00  0.00    +0.093 C 
ATOM     13  N   UNL     1      62.495 163.457  37.350  0.00  0.00    -0.258 N 
ATOM     14  C   UNL     1      63.763 164.064  37.166  0.00  0.00    +0.063 C 
ATOM     15  C   UNL     1      63.918 165.397  37.244  0.00  0.00    -0.010 C 
ATOM     16  C   UNL     1      62.766 166.291  37.527  0.00  0.00    +0.029 C 
ATOM     17  C   UNL     1      61.456 165.588  37.244  0.00  0.00    +0.026 C 
ATOM     18  C   UNL     1      61.596 162.366  37.246  0.00  0.00    +0.235 C 
ATOM     19  O   UNL     1      61.714 161.127  37.006  0.00  0.00    -0.274 OA
ENDBRANCH   6  11
BRANCH   1  21
ATOM     20  N   UNL     1      62.497 162.203  40.955  0.00  0.00    +0.111 NA
ATOM     21  O   UNL     1      61.769 162.544  39.838  0.00  0.00    -0.366 OA
ENDBRANCH   1  21
TORSDOF 2
