REMARK  Name = =
REMARK  8 active torsions:
REMARK  status: ('A' for Active; 'I' for Inactive)
REMARK    1  A    between atoms: N_19  and  S_20
REMARK    2  A    between atoms: S_20  and  N_23
REMARK    3  A    between atoms: N_23  and  C_24
REMARK    4  A    between atoms: N_23  and  C_27
REMARK    5  A    between atoms: C_24  and  C_25
REMARK    6  A    between atoms: C_25  and  O_26
REMARK    7  A    between atoms: C_27  and  N_28
REMARK    8  A    between atoms: C_29  and  N_31
REMARK                            x       y       z     vdW  Elec       q    Type
REMARK                         _______ _______ _______ _____ _____    ______ ____
ROOT
ATOM      1  C   UNL     1      49.604 158.177  30.009  0.00  0.00    -0.052 C 
ATOM      2  C   UNL     1      49.188 159.300  30.571  0.00  0.00    -0.049 C 
ATOM      3  C   UNL     1      50.099 160.450  30.490  0.00  0.00    +0.051 C 
ATOM      4  C   UNL     1      49.607 161.666  30.785  0.00  0.00    +0.112 C 
ATOM      5  C   UNL     1      48.193 161.819  31.173  0.00  0.00    +0.161 C 
ATOM      6  O   UNL     1      47.747 162.797  31.805  0.00  0.00    -0.295 OA
ATOM      7  C   UNL     1      47.239 160.724  30.780  0.00  0.00    +0.070 C 
ATOM      8  C   UNL     1      47.933 159.455  31.270  0.00  0.00    +0.029 C 
ATOM      9  C   UNL     1      51.479 160.355  30.077  0.00  0.00    +0.088 C 
ATOM     10  C   UNL     1      51.933 158.999  29.651  0.00  0.00    +0.022 C 
ATOM     11  C   UNL     1      50.877 157.990  29.332  0.00  0.00    +0.019 C 
ATOM     12  C   UNL     1      51.416 156.597  29.617  0.00  0.00    +0.004 C 
ATOM     13  C   UNL     1      50.407 155.575  29.321  0.00  0.00    +0.001 C 
ATOM     14  C   UNL     1      49.083 156.125  28.912  0.00  0.00    +0.004 C 
ATOM     15  C   UNL     1      48.648 157.043  30.075  0.00  0.00    +0.021 C 
ATOM     16  C   UNL     1      50.996 154.624  28.340  0.00  0.00    +0.000 C 
ATOM     17  C   UNL     1      52.028 155.441  27.606  0.00  0.00    +0.000 C 
ATOM     18  C   UNL     1      52.584 156.355  28.705  0.00  0.00    +0.000 C 
ATOM     19  N   UNL     1      52.377 160.857  31.087  0.00  0.00    -0.124 NA
ATOM     20  C   UNL     1      51.972 161.015  32.430  0.00  0.00    +0.183 C 
ATOM     21  S   UNL     1      50.473 161.583  32.754  0.00  0.00    -0.100 S 
ENDROOT
BRANCH  19  22
ATOM     22  S   UNL     1      54.004 161.265  30.663  0.00  0.00    +0.105 S 
ATOM     23  O   UNL     1      54.516 160.303  29.599  0.00  0.00    -0.141 OA
ATOM     24  O   UNL     1      54.914 161.037  31.868  0.00  0.00    -0.141 OA
BRANCH  22  25
ATOM     25  N   UNL     1      54.223 162.860  30.129  0.00  0.00    -0.127 NA
BRANCH  25  26
ATOM     26  C   UNL     1      53.276 163.766  30.630  0.00  0.00    +0.130 C 
BRANCH  26  27
ATOM     27  C   UNL     1      53.280 164.031  32.100  0.00  0.00    +0.156 C 
BRANCH  27  28
ATOM     28  O   UNL     1      54.335 164.765  32.569  0.00  0.00    -0.380 OA
ATOM     29  H   UNL     1      54.247 164.882  33.528  0.00  0.00    +0.211 HD
ENDBRANCH  27  28
ENDBRANCH  26  27
ENDBRANCH  25  26
BRANCH  25  30
ATOM     30  C   UNL     1      55.593 163.226  30.145  0.00  0.00    +0.165 C 
BRANCH  30  31
ATOM     31  N   UNL     1      56.316 162.663  28.995  0.00  0.00    -0.306 NA
ATOM     32  H   UNL     1      57.295 162.945  29.038  0.00  0.00    +0.120 HD
ATOM     33  H   UNL     1      55.900 163.008  28.130  0.00  0.00    +0.120 HD
ENDBRANCH  30  31
ENDBRANCH  25  30
ENDBRANCH  22  25
ENDBRANCH  19  22
BRANCH  20  34
ATOM     34  N   UNL     1      52.851 160.690  33.505  0.00  0.00    -0.300 NA
ATOM     35  H   UNL     1      53.737 160.353  33.129  0.00  0.00    +0.121 HD
ATOM     36  H   UNL     1      52.428 159.963  34.082  0.00  0.00    +0.121 HD
ENDBRANCH  20  34
TORSDOF 8
