REMARK  Name = =
REMARK  13 active torsions:
REMARK  status: ('A' for Active; 'I' for Inactive)
REMARK    1  A    between atoms: N_1  and  C_10
REMARK    2  A    between atoms: N_1  and  S_20
REMARK    3  A    between atoms: N_1  and  C_33
REMARK    4  A    between atoms: S_20  and  N_23
REMARK    5  A    between atoms: N_23  and  C_24
REMARK    6  A    between atoms: N_23  and  C_27
REMARK    7  A    between atoms: C_24  and  C_25
REMARK    8  A    between atoms: C_25  and  O_26
REMARK    9  A    between atoms: C_27  and  N_28
REMARK   10  A    between atoms: N_28  and  S_29
REMARK   11  A    between atoms: S_29  and  S_31
REMARK   12  A    between atoms: S_29  and  S_32
REMARK   13  A    between atoms: C_33  and  N_35
REMARK                            x       y       z     vdW  Elec       q    Type
REMARK                         _______ _______ _______ _____ _____    ______ ____
ROOT
ATOM      1  N   UNL     1      51.916 161.009  30.998  0.00  0.00    -0.160 N 
ENDROOT
BRANCH   1  10
ATOM      2  C   UNL     1      50.559 157.299  29.870  0.00  0.00    -0.049 C 
ATOM      3  C   UNL     1      49.704 158.307  29.901  0.00  0.00    -0.032 C 
ATOM      4  C   UNL     1      50.277 159.631  30.003  0.00  0.00    -0.004 C 
ATOM      5  C   UNL     1      49.481 160.685  30.080  0.00  0.00    +0.035 C 
ATOM      6  C   UNL     1      48.043 160.435  30.058  0.00  0.00    +0.173 C 
ATOM      7  O   UNL     1      47.277 161.288  30.622  0.00  0.00    -0.291 OA
ATOM      8  C   UNL     1      47.461 159.237  29.408  0.00  0.00    +0.074 C 
ATOM      9  C   UNL     1      48.268 158.025  29.818  0.00  0.00    +0.034 C 
ATOM     10  C   UNL     1      51.740 159.902  30.042  0.00  0.00    +0.121 C 
ATOM     11  C   UNL     1      52.598 158.732  30.296  0.00  0.00    +0.030 C 
ATOM     12  C   UNL     1      52.013 157.447  29.928  0.00  0.00    +0.020 C 
ATOM     13  C   UNL     1      52.634 156.690  28.799  0.00  0.00    +0.004 C 
ATOM     14  C   UNL     1      51.541 156.233  27.857  0.00  0.00    +0.001 C 
ATOM     15  C   UNL     1      50.672 155.212  28.548  0.00  0.00    +0.004 C 
ATOM     16  C   UNL     1      50.068 155.875  29.778  0.00  0.00    +0.022 C 
ATOM     17  C   UNL     1      52.322 155.711  26.701  0.00  0.00    +0.000 C 
ATOM     18  C   UNL     1      53.466 156.721  26.569  0.00  0.00    +0.000 C 
ATOM     19  C   UNL     1      53.451 157.543  27.849  0.00  0.00    +0.000 C 
ENDBRANCH   1  10
BRANCH   1  20
ATOM     20  S   UNL     1      53.163 162.172  30.806  0.00  0.00    +0.119 S 
ATOM     21  O   UNL     1      52.824 163.455  31.533  0.00  0.00    -0.138 OA
ATOM     22  O   UNL     1      53.121 162.570  29.327  0.00  0.00    -0.138 OA
BRANCH  20  23
ATOM     23  N   UNL     1      54.665 161.567  31.141  0.00  0.00    -0.123 NA
BRANCH  23  24
ATOM     24  C   UNL     1      55.561 161.185  30.140  0.00  0.00    +0.130 C 
BRANCH  24  25
ATOM     25  C   UNL     1      55.559 159.682  29.975  0.00  0.00    +0.156 C 
BRANCH  25  26
ATOM     26  O   UNL     1      56.370 159.279  28.897  0.00  0.00    -0.380 OA
ATOM     27  H   UNL     1      56.347 158.312  28.819  0.00  0.00    +0.211 HD
ENDBRANCH  25  26
ENDBRANCH  24  25
ENDBRANCH  23  24
BRANCH  23  28
ATOM     28  C   UNL     1      55.199 161.772  32.446  0.00  0.00    +0.179 C 
BRANCH  28  29
ATOM     29  N   UNL     1      55.846 163.054  32.616  0.00  0.00    -0.229 NA
ATOM     30  H   UNL     1      55.125 163.718  32.896  0.00  0.00    +0.138 HD
BRANCH  29  31
ATOM     31  S   UNL     1      57.009 163.181  33.645  0.00  0.00    -0.029 S 
BRANCH  31  32
ATOM     32  S   UNL     1      57.719 164.296  33.937  0.00  0.00    -0.096 S 
ATOM     33  H   UNL     1      56.971 165.396  33.656  0.00  0.00    +0.115 HD
ENDBRANCH  31  32
BRANCH  31  34
ATOM     34  S   UNL     1      58.006 161.760  34.020  0.00  0.00    -0.096 S 
ATOM     35  H   UNL     1      57.309 160.628  33.733  0.00  0.00    +0.115 HD
ENDBRANCH  31  34
ENDBRANCH  29  31
ENDBRANCH  28  29
ENDBRANCH  23  28
ENDBRANCH  20  23
ENDBRANCH   1  20
BRANCH   1  36
ATOM     36  C   UNL     1      50.990 161.086  32.079  0.00  0.00    +0.152 C 
ATOM     37  S   UNL     1      50.069 159.830  32.524  0.00  0.00    -0.017 S 
BRANCH  36  38
ATOM     38  N   UNL     1      50.887 162.327  32.761  0.00  0.00    -0.339 N 
ATOM     39  H   UNL     1      51.449 163.087  32.487  0.00  0.00    +0.144 HD
ATOM     40  H   UNL     1      50.254 162.427  33.508  0.00  0.00    +0.144 HD
ENDBRANCH  36  38
ENDBRANCH   1  36
TORSDOF 13
REMARK  Name = =
REMARK  13 active torsions:
REMARK  status: ('A' for Active; 'I' for Inactive)
REMARK    1  A    between atoms: N_1  and  C_10
REMARK    2  A    between atoms: N_1  and  S_20
REMARK    3  A    between atoms: N_1  and  C_33
REMARK    4  A    between atoms: S_20  and  N_23
REMARK    5  A    between atoms: N_23  and  C_24
REMARK    6  A    between atoms: N_23  and  C_27
REMARK    7  A    between atoms: C_24  and  C_25
REMARK    8  A    between atoms: C_25  and  O_26
REMARK    9  A    between atoms: C_27  and  N_28
REMARK   10  A    between atoms: N_28  and  S_29
REMARK   11  A    between atoms: S_29  and  S_31
REMARK   12  A    between atoms: S_29  and  S_32
REMARK   13  A    between atoms: C_33  and  N_35
REMARK                            x       y       z     vdW  Elec       q    Type
REMARK                         _______ _______ _______ _____ _____    ______ ____
ROOT
ATOM      1  H   UNK     1      58.127 162.716  31.759  0.00  0.00    +0.000 HD
ENDROOT
TORSDOF 0
