REMARK  Name = =
REMARK  1 active torsions:
REMARK  status: ('A' for Active; 'I' for Inactive)
REMARK    1  A    between atoms: C_1  and  S_4
REMARK                            x       y       z     vdW  Elec       q    Type
REMARK                         _______ _______ _______ _____ _____    ______ ____
ROOT
ATOM      1  C   UNL     1      -4.362  -3.408  33.089  0.00  0.00    +0.266 C 
ATOM      2  O   UNL     1      -3.757  -2.797  32.170  0.00  0.00    -0.263 OA
ATOM      3  N   UNL     1      -5.241  -2.754  34.005  0.00  0.00    -0.321 N 
ATOM      4  H   UNL     1      -5.693  -3.273  34.709  0.00  0.00    +0.146 HD
ATOM      5  H   UNL     1      -5.395  -1.784  33.933  0.00  0.00    +0.146 HD
ENDROOT
BRANCH   1   6
ATOM      6  S   UNL     1      -4.066  -5.171  33.205  0.00  0.00    -0.085 S 
ATOM      7  H   UNL     1      -4.785  -5.684  34.239  0.00  0.00    +0.111 HD
ENDBRANCH   1   6
TORSDOF 1
