REMARK  Name = =
REMARK  2 active torsions:
REMARK  status: ('A' for Active; 'I' for Inactive)
REMARK    1  A    between atoms: C_1  and  S_15
REMARK    2  A    between atoms: S_15  and  C_16
REMARK                            x       y       z     vdW  Elec       q    Type
REMARK                         _______ _______ _______ _____ _____    ______ ____
ROOT
ATOM      1  C   UNL     1      -3.190  -4.683  31.302  0.00  0.00    +0.035 C 
ATOM      2  C   UNL     1      -2.785  -5.952  30.890  0.00  0.00    +0.022 C 
ATOM      3  C   UNL     1      -1.873  -6.105  29.872  0.00  0.00    +0.055 C 
ATOM      4  C   UNL     1      -1.356  -5.013  29.259  0.00  0.00    +0.043 C 
ATOM      5  C   UNL     1      -1.744  -3.765  29.653  0.00  0.00    +0.008 C 
ATOM      6  C   UNL     1      -2.669  -3.593  30.684  0.00  0.00    +0.007 C 
ATOM      7  S   UNL     1      -0.170  -5.108  27.933  0.00  0.00    -0.084 S 
ATOM      8  C   UNL     1       0.105  -6.870  27.680  0.00  0.00    +0.043 C 
ATOM      9  C   UNL     1      -0.577  -7.738  28.472  0.00  0.00    +0.054 C 
ATOM     10  C   UNL     1      -0.340  -9.105  28.250  0.00  0.00    +0.015 C 
ATOM     11  C   UNL     1       0.526  -9.580  27.297  0.00  0.00    +0.001 C 
ATOM     12  C   UNL     1       1.211  -8.665  26.499  0.00  0.00    +0.001 C 
ATOM     13  C   UNL     1       0.961  -7.323  26.736  0.00  0.00    +0.008 C 
ATOM     14  N   UNL     1      -1.484  -7.411  29.477  0.00  0.00    -0.312 N 
ATOM     15  H   UNL     1      -1.897  -8.162  29.962  0.00  0.00    +0.152 HD
ENDROOT
BRANCH   1  16
ATOM     16  S   UNL     1      -4.362  -4.581  32.612  0.00  0.00    -0.031 S 
BRANCH  16  17
ATOM     17  C   UNL     1      -5.031  -3.001  32.856  0.00  0.00    +0.274 C 
ATOM     18  O   UNL     1      -5.733  -2.811  33.920  0.00  0.00    -0.263 OA
ATOM     19  N   UNL     1      -4.901  -1.890  32.027  0.00  0.00    -0.320 N 
ATOM     20  H   UNL     1      -4.379  -1.955  31.195  0.00  0.00    +0.146 HD
ATOM     21  H   UNL     1      -5.331  -1.039  32.273  0.00  0.00    +0.146 HD
ENDBRANCH  16  17
ENDBRANCH   1  16
TORSDOF 2
