REMARK  Name = =
REMARK  3 active torsions:
REMARK  status: ('A' for Active; 'I' for Inactive)
REMARK    1  A    between atoms: C_1  and  S_20
REMARK    2  A    between atoms: C_6  and  C_15
REMARK    3  A    between atoms: S_20  and  C_21
REMARK                            x       y       z     vdW  Elec       q    Type
REMARK                         _______ _______ _______ _____ _____    ______ ____
ROOT
ATOM      1  C   UNL     1      -1.969  -5.087  29.710  0.00  0.00    +0.033 C 
ATOM      2  C   UNL     1      -1.701  -6.406  29.487  0.00  0.00    +0.021 C 
ATOM      3  C   UNL     1      -0.705  -6.870  28.611  0.00  0.00    +0.055 C 
ATOM      4  C   UNL     1       0.030  -5.914  27.953  0.00  0.00    +0.043 C 
ATOM      5  C   UNL     1      -0.201  -4.577  28.144  0.00  0.00    +0.006 C 
ATOM      6  C   UNL     1      -1.182  -4.173  29.007  0.00  0.00    +0.012 C 
ATOM      7  S   UNL     1       1.308  -6.454  26.830  0.00  0.00    -0.084 S 
ATOM      8  C   UNL     1       1.303  -8.232  26.851  0.00  0.00    +0.043 C 
ATOM      9  C   UNL     1       0.406  -8.901  27.650  0.00  0.00    +0.054 C 
ATOM     10  C   UNL     1       0.473 -10.296  27.604  0.00  0.00    +0.015 C 
ATOM     11  C   UNL     1       1.376 -10.973  26.815  0.00  0.00    +0.001 C 
ATOM     12  C   UNL     1       2.263 -10.259  26.023  0.00  0.00    +0.001 C 
ATOM     13  C   UNL     1       2.199  -8.889  26.068  0.00  0.00    +0.008 C 
ATOM     14  N   UNL     1      -0.545  -8.267  28.484  0.00  0.00    -0.312 N 
ATOM     15  H   UNL     1      -1.140  -8.843  29.016  0.00  0.00    +0.152 HD
ENDROOT
BRANCH   6  16
ATOM     16  C   UNL     1      -1.429  -2.728  29.210  0.00  0.00    +0.169 C 
ATOM     17  N   UNL     1      -0.199  -1.978  29.104  0.00  0.00    -0.241 NA
ATOM     18  C   UNL     1      -0.241  -1.175  28.094  0.00  0.00    +0.195 C 
ATOM     19  N   UNL     1      -1.506  -1.317  27.436  0.00  0.00    -0.225 NA
ATOM     20  C   UNL     1      -2.219  -2.214  28.064  0.00  0.00    +0.103 C 
ENDBRANCH   6  16
BRANCH   1  21
ATOM     21  S   UNL     1      -3.211  -4.446  30.800  0.00  0.00    -0.031 S 
BRANCH  21  22
ATOM     22  C   UNL     1      -3.471  -5.351  32.269  0.00  0.00    +0.274 C 
ATOM     23  O   UNL     1      -2.852  -6.400  32.532  0.00  0.00    -0.263 OA
ATOM     24  N   UNL     1      -4.423  -4.883  33.211  0.00  0.00    -0.320 N 
ATOM     25  H   UNL     1      -4.928  -4.057  33.032  0.00  0.00    +0.146 HD
ATOM     26  H   UNL     1      -4.579  -5.384  34.044  0.00  0.00    +0.146 HD
ENDBRANCH  21  22
ENDBRANCH   1  21
TORSDOF 3
