REMARK  Name = =
REMARK  1 active torsions:
REMARK  status: ('A' for Active; 'I' for Inactive)
REMARK    1  A    between atoms: C_1  and  C_7
REMARK                            x       y       z     vdW  Elec       q    Type
REMARK                         _______ _______ _______ _____ _____    ______ ____
ROOT
ATOM      1  C   UNL     1      52.406 154.505  26.576  0.00  0.00    +0.084 C 
ATOM      2  C   UNL     1      52.650 154.416  28.044  0.00  0.00    +0.074 C 
ATOM      3  C   UNL     1      52.386 155.817  28.440  0.00  0.00    +0.151 C 
ATOM      4  O   UNL     1      51.916 156.239  29.500  0.00  0.00    -0.296 OA
ATOM      5  C   UNL     1      52.801 156.607  27.296  0.00  0.00    +0.065 C 
ATOM      6  C   UNL     1      52.820 155.862  26.207  0.00  0.00    +0.017 C 
ENDROOT
BRANCH   1   7
ATOM      7  C   UNL     1      53.071 153.450  25.785  0.00  0.00    +0.196 C 
ATOM      8  N   UNL     1      53.303 152.265  26.242  0.00  0.00    -0.238 NA
ATOM      9  C   UNL     1      53.956 151.435  25.284  0.00  0.00    +0.176 C 
ATOM     10  C   UNL     1      53.940 152.263  24.019  0.00  0.00    +0.233 C 
ATOM     11  O   UNL     1      53.537 153.529  24.503  0.00  0.00    -0.461 OA
ENDBRANCH   1   7
TORSDOF 1
