REMARK  Name = =
REMARK  4 active torsions:
REMARK  status: ('A' for Active; 'I' for Inactive)
REMARK    1  A    between atoms: C_1  and  C_7
REMARK    2  A    between atoms: C_1  and  O_12
REMARK    3  A    between atoms: O_12  and  P_14
REMARK    4  A    between atoms: P_14  and  O_16
REMARK                            x       y       z     vdW  Elec       q    Type
REMARK                         _______ _______ _______ _____ _____    ______ ____
ROOT
ATOM      1  C   UNL     1      52.804 153.876  27.070  0.00  0.00    +0.176 C 
ATOM      2  C   UNL     1      51.556 154.684  26.810  0.00  0.00    +0.101 C 
ATOM      3  C   UNL     1      51.232 155.093  28.202  0.00  0.00    +0.154 C 
ATOM      4  O   UNL     1      50.123 155.153  28.723  0.00  0.00    -0.296 OA
ATOM      5  C   UNL     1      52.543 155.391  28.763  0.00  0.00    +0.068 C 
ATOM      6  C   UNL     1      53.472 154.709  28.132  0.00  0.00    +0.045 C 
ENDROOT
BRANCH   1   7
ATOM      7  C   UNL     1      53.672 153.810  25.862  0.00  0.00    +0.222 C 
ATOM      8  N   UNL     1      54.890 153.334  25.908  0.00  0.00    -0.236 NA
ATOM      9  C   UNL     1      55.516 153.381  24.608  0.00  0.00    +0.176 C 
ATOM     10  C   UNL     1      54.619 154.282  23.821  0.00  0.00    +0.233 C 
ATOM     11  O   UNL     1      53.412 154.193  24.568  0.00  0.00    -0.460 OA
ENDBRANCH   1   7
BRANCH   1  12
ATOM     12  O   UNL     1      52.560 152.675  27.674  0.00  0.00    -0.282 OA
BRANCH  12  14
ATOM     13  S   UNL     1      51.178 151.549  25.489  0.00  0.00    +0.039 S 
ATOM     14  P   UNL     1      52.385 151.330  26.739  0.00  0.00    +0.400 P 
ATOM     15  O   UNL     1      51.782 150.240  27.648  0.00  0.00    -0.245 OA
BRANCH  14  16
ATOM     16  O   UNL     1      53.778 150.679  26.100  0.00  0.00    -0.316 OA
ATOM     17  H   UNL     1      53.556 149.897  25.571  0.00  0.00    +0.221 HD
ENDBRANCH  14  16
ENDBRANCH  12  14
ENDBRANCH   1  12
TORSDOF 4
