REMARK  Name = =
REMARK  6 active torsions:
REMARK  status: ('A' for Active; 'I' for Inactive)
REMARK    1  A    between atoms: S_1  and  P_2
REMARK    2  A    between atoms: S_1  and  C_10
REMARK    3  A    between atoms: P_2  and  O_14
REMARK    4  A    between atoms: P_2  and  O_15
REMARK    5  A    between atoms: O_15  and  C_16
REMARK    6  A    between atoms: C_16  and  C_22
REMARK                            x       y       z     vdW  Elec       q    Type
REMARK                         _______ _______ _______ _____ _____    ______ ____
ROOT
ATOM      1  P   UNL     1      53.080 155.345  27.045  0.00  0.00    +0.382 P 
ATOM      2  O   UNL     1      53.905 155.778  28.236  0.00  0.00    -0.247 OA
ENDROOT
BRANCH   1   3
ATOM      3  S   UNL     1      51.525 156.482  27.183  0.00  0.00    -0.081 S 
ATOM      4  H   UNL     1      51.852 157.757  26.840  0.00  0.00    +0.108 HD
BRANCH   3  11
ATOM      5  C   UNL     1      50.307 159.998  30.833  0.00  0.00    +0.119 C 
ATOM      6  N   UNL     1      50.106 158.816  31.451  0.00  0.00    -0.241 NA
ATOM      7  C   UNL     1      50.321 157.653  30.812  0.00  0.00    +0.099 C 
ATOM      8  C   UNL     1      50.751 157.648  29.509  0.00  0.00    +0.104 C 
ATOM      9  N   UNL     1      50.945 158.832  28.912  0.00  0.00    -0.240 NA
ATOM     10  C   UNL     1      50.738 160.013  29.529  0.00  0.00    +0.119 C 
ATOM     11  C   UNL     1      50.967 156.433  28.870  0.00  0.00    +0.042 C 
ATOM     12  C   UNL     1      50.761 155.229  29.499  0.00  0.00    +0.007 C 
ATOM     13  C   UNL     1      50.330 155.254  30.805  0.00  0.00    +0.002 C 
ATOM     14  C   UNL     1      50.107 156.461  31.467  0.00  0.00    +0.021 C 
ENDBRANCH   3  11
ENDBRANCH   1   3
BRANCH   1  15
ATOM     15  O   UNL     1      53.902 155.829  25.651  0.00  0.00    -0.317 OA
ATOM     16  H   UNL     1      53.395 155.564  24.868  0.00  0.00    +0.221 HD
ENDBRANCH   1  15
BRANCH   1  17
ATOM     17  O   UNL     1      52.675 153.741  27.060  0.00  0.00    -0.279 OA
BRANCH  17  18
ATOM     18  C   UNL     1      53.333 152.993  26.083  0.00  0.00    +0.194 C 
ATOM     19  C   UNL     1      53.156 153.530  24.702  0.00  0.00    +0.110 C 
ATOM     20  C   UNL     1      54.548 153.617  24.175  0.00  0.00    +0.176 C 
ATOM     21  O   UNL     1      54.948 153.826  23.013  0.00  0.00    -0.291 OA
ATOM     22  C   UNL     1      55.467 153.406  25.305  0.00  0.00    +0.036 C 
ATOM     23  C   UNL     1      54.776 153.056  26.375  0.00  0.00    +0.013 C 
BRANCH  18  24
ATOM     24  C   UNL     1      52.858 151.575  26.091  0.00  0.00    +0.226 C 
ATOM     25  N   UNL     1      52.152 151.011  26.957  0.00  0.00    -0.235 NA
ATOM     26  C   UNL     1      51.900 149.643  26.619  0.00  0.00    +0.176 C 
ATOM     27  C   UNL     1      52.901 149.376  25.514  0.00  0.00    +0.233 C 
ATOM     28  O   UNL     1      53.164 150.687  25.085  0.00  0.00    -0.459 OA
ENDBRANCH  18  24
ENDBRANCH  17  18
ENDBRANCH   1  17
TORSDOF 6
