MODEL 1
REMARK VINA RESULT:    -7.223      0.000      0.000
REMARK INTER + INTRA:          -8.890
REMARK INTER:                  -8.912
REMARK INTRA:                   0.022
REMARK UNBOUND:                 0.022
REMARK  Name = =
REMARK  4 active torsions:
REMARK  status: ('A' for Active; 'I' for Inactive)
REMARK    1  A    between atoms: N_1  and  C_20
REMARK    2  A    between atoms: C_9  and  C_10
REMARK    3  A    between atoms: C_20  and  O_21
REMARK    4  A    between atoms: O_21  and  C_22
REMARK                            x       y       z     vdW  Elec       q    Type
REMARK                         _______ _______ _______ _____ _____    ______ ____
ROOT
ATOM      1  N   UNL     1      53.516 160.645  42.942  0.00  0.00    -0.252 N 
ATOM      2  C   UNL     1      52.199 160.647  42.415  0.00  0.00    +0.307 C 
ATOM      3  O   UNL     1      51.804 161.743  41.921  0.00  0.00    -0.252 OA
ATOM      4  N   UNL     1      51.387 159.487  42.445  0.00  0.00    -0.255 N 
ATOM      5  C   UNL     1      51.932 158.276  43.032  0.00  0.00    +0.127 C 
ATOM      6  C   UNL     1      51.136 157.119  42.466  0.00  0.00    +0.164 C 
ATOM      7  O   UNL     1      49.799 157.177  42.816  0.00  0.00    -0.350 OA
ATOM      8  C   UNL     1      49.288 158.448  42.856  0.00  0.00    +0.168 C 
ATOM      9  C   UNL     1      50.061 159.404  41.939  0.00  0.00    +0.148 C 
ATOM     10  H   UNL     1      53.875 159.819  43.338  0.00  0.00    +0.154 HD
ENDROOT
BRANCH   9  11
ATOM     11  C   UNL     1      49.326 160.660  41.869  0.00  0.00    +0.099 C 
ATOM     12  N   UNL     1      48.878 161.217  40.739  0.00  0.00    -0.245 NA
ATOM     13  C   UNL     1      48.194 162.390  40.711  0.00  0.00    +0.099 C 
ATOM     14  C   UNL     1      47.940 163.057  41.886  0.00  0.00    +0.099 C 
ATOM     15  N   UNL     1      48.380 162.518  43.034  0.00  0.00    -0.241 NA
ATOM     16  C   UNL     1      49.057 161.350  43.032  0.00  0.00    +0.115 C 
ATOM     17  C   UNL     1      47.240 164.263  41.885  0.00  0.00    +0.021 C 
ATOM     18  C   UNL     1      46.827 164.740  40.664  0.00  0.00    +0.002 C 
ATOM     19  C   UNL     1      47.071 164.090  39.472  0.00  0.00    +0.002 C 
ATOM     20  C   UNL     1      47.760 162.901  39.479  0.00  0.00    +0.021 C 
ENDBRANCH   9  11
BRANCH   1  21
ATOM     21  C   UNL     1      54.353 161.845  42.910  0.00  0.00    +0.308 C 
BRANCH  21  22
ATOM     22  O   UNL     1      55.278 161.761  41.841  0.00  0.00    -0.419 OA
BRANCH  22  23
ATOM     23  C   UNL     1      56.154 162.804  41.594  0.00  0.00    +0.420 C 
ATOM     24  O   UNL     1      57.411 162.618  41.665  0.00  0.00    -0.237 OA
ENDBRANCH  22  23
ENDBRANCH  21  22
ENDBRANCH   1  21
TORSDOF 4
ENDMDL
