REMARK  Name = =
REMARK  4 active torsions:
REMARK  status: ('A' for Active; 'I' for Inactive)
REMARK    1  A    between atoms: N_1  and  C_20
REMARK    2  A    between atoms: C_9  and  C_10
REMARK    3  A    between atoms: C_20  and  O_21
REMARK    4  A    between atoms: O_21  and  C_22
REMARK                            x       y       z     vdW  Elec       q    Type
REMARK                         _______ _______ _______ _____ _____    ______ ____
ROOT
ATOM      1  N   UNL     1      53.025 152.886  27.832  0.00  0.00    -0.252 N 
ATOM      2  C   UNL     1      53.050 154.304  27.872  0.00  0.00    +0.307 C 
ATOM      3  O   UNL     1      52.949 154.825  29.020  0.00  0.00    -0.252 OA
ATOM      4  N   UNL     1      53.181 155.076  26.692  0.00  0.00    -0.255 N 
ATOM      5  C   UNL     1      53.293 154.385  25.421  0.00  0.00    +0.127 C 
ATOM      6  C   UNL     1      53.947 155.349  24.454  0.00  0.00    +0.164 C 
ATOM      7  O   UNL     1      53.182 156.480  24.237  0.00  0.00    -0.350 OA
ATOM      8  C   UNL     1      52.514 156.922  25.349  0.00  0.00    +0.168 C 
ATOM      9  C   UNL     1      53.216 156.497  26.645  0.00  0.00    +0.148 C 
ATOM     10  H   UNL     1      53.101 152.428  26.964  0.00  0.00    +0.154 HD
ENDROOT
BRANCH   9  11
ATOM     11  C   UNL     1      52.575 157.187  27.756  0.00  0.00    +0.099 C 
ATOM     12  N   UNL     1      51.298 157.021  28.120  0.00  0.00    -0.245 NA
ATOM     13  C   UNL     1      50.733 157.681  29.163  0.00  0.00    +0.099 C 
ATOM     14  C   UNL     1      51.486 158.569  29.895  0.00  0.00    +0.099 C 
ATOM     15  N   UNL     1      52.770 158.753  29.549  0.00  0.00    -0.241 NA
ATOM     16  C   UNL     1      53.306 158.083  28.507  0.00  0.00    +0.115 C 
ATOM     17  C   UNL     1      50.929 159.259  30.970  0.00  0.00    +0.021 C 
ATOM     18  C   UNL     1      49.608 159.008  31.253  0.00  0.00    +0.002 C 
ATOM     19  C   UNL     1      48.832 158.123  30.534  0.00  0.00    +0.002 C 
ATOM     20  C   UNL     1      49.386 157.444  29.475  0.00  0.00    +0.021 C 
ENDBRANCH   9  11
BRANCH   1  21
ATOM     21  C   UNL     1      52.889 152.090  29.052  0.00  0.00    +0.308 C 
BRANCH  21  22
ATOM     22  O   UNL     1      53.961 152.369  29.934  0.00  0.00    -0.419 OA
BRANCH  22  23
ATOM     23  C   UNL     1      55.257 152.439  29.455  0.00  0.00    +0.420 C 
ATOM     24  O   UNL     1      55.480 152.448  28.202  0.00  0.00    -0.237 OA
ENDBRANCH  22  23
ENDBRANCH  21  22
ENDBRANCH   1  21
TORSDOF 4
