MODEL 1
REMARK VINA RESULT:    -6.229      0.000      0.000
REMARK INTER + INTRA:         -12.237
REMARK INTER:                  -9.506
REMARK INTRA:                  -2.731
REMARK UNBOUND:                -2.731
REMARK  Name = =
REMARK  11 active torsions:
REMARK  status: ('A' for Active; 'I' for Inactive)
REMARK    1  A    between atoms: C_1  and  O_22
REMARK    2  A    between atoms: C_2  and  C_11
REMARK    3  A    between atoms: O_22  and  P_23
REMARK    4  A    between atoms: P_23  and  O_25
REMARK    5  A    between atoms: P_23  and  O_30
REMARK    6  A    between atoms: O_25  and  P_26
REMARK    7  A    between atoms: P_26  and  O_28
REMARK    8  A    between atoms: P_26  and  O_29
REMARK    9  A    between atoms: O_30  and  P_31
REMARK   10  A    between atoms: P_31  and  O_33
REMARK   11  A    between atoms: P_31  and  O_34
REMARK                            x       y       z     vdW  Elec       q    Type
REMARK                         _______ _______ _______ _____ _____    ______ ____
ROOT
ATOM      1  C   UNL     1      59.786 161.512  37.450  0.00  0.00    +0.134 C 
ATOM      2  C   UNL     1      60.767 162.458  37.574  0.00  0.00    +0.105 C 
ATOM      3  C   UNL     1      60.802 163.522  36.695  0.00  0.00    +0.023 C 
ATOM      4  C   UNL     1      59.877 163.677  35.678  0.00  0.00    +0.142 C 
ATOM      5  C   UNL     1      58.888 162.736  35.537  0.00  0.00    +0.040 C 
ATOM      6  C   UNL     1      58.856 161.697  36.399  0.00  0.00    +0.037 C 
ATOM      7  O   UNL     1      59.918 164.734  34.812  0.00  0.00    -0.451 OA
ATOM      8  C   UNL     1      60.884 165.725  34.861  0.00  0.00    +0.179 C 
ATOM      9  C   UNL     1      61.855 165.559  35.935  0.00  0.00    +0.040 C 
ATOM     10  C   UNL     1      61.822 164.551  36.777  0.00  0.00    +0.003 C 
ENDROOT
BRANCH   2  11
ATOM     11  C   UNL     1      61.835 162.426  38.572  0.00  0.00    -0.011 C 
ATOM     12  C   UNL     1      62.931 161.569  38.414  0.00  0.00    -0.007 C 
ATOM     13  C   UNL     1      63.946 161.570  39.376  0.00  0.00    -0.009 C 
ATOM     14  C   UNL     1      63.898 162.389  40.470  0.00  0.00    +0.046 C 
ATOM     15  C   UNL     1      62.812 163.246  40.639  0.00  0.00    +0.014 C 
ATOM     16  C   UNL     1      61.820 163.235  39.685  0.00  0.00    -0.002 C 
ATOM     17  N   UNL     1      64.941 162.375  41.435  0.00  0.00    -0.284 N 
ATOM     18  C   UNL     1      66.032 161.496  41.235  0.00  0.00    +0.226 C 
ATOM     19  O   UNL     1      66.683 161.070  42.198  0.00  0.00    -0.275 OA
ATOM     20  C   UNL     1      66.333 161.128  39.812  0.00  0.00    +0.090 C 
ATOM     21  C   UNL     1      65.083 160.615  39.126  0.00  0.00    +0.037 C 
ATOM     22  H   UNL     1      64.905 162.963  42.224  0.00  0.00    +0.155 HD
ENDBRANCH   2  11
BRANCH   1  23
ATOM     23  O   UNL     1      59.641 160.444  38.235  0.00  0.00    -0.406 OA
BRANCH  23  24
ATOM     24  P   UNL     1      59.094 159.940  39.683  0.00  0.00    +0.550 P 
ATOM     25  O   UNL     1      59.235 158.441  39.957  0.00  0.00    -0.214 OA
BRANCH  24  26
ATOM     26  O   UNL     1      59.831 160.795  40.973  0.00  0.00    -0.176 OA
BRANCH  26  27
ATOM     27  P   UNL     1      60.886 159.818  41.830  0.00  0.00    +0.482 P 
ATOM     28  O   UNL     1      61.752 160.673  42.726  0.00  0.00    -0.227 OA
BRANCH  27  29
ATOM     29  O   UNL     1      61.922 158.962  40.802  0.00  0.00    -0.302 OA
ATOM     30  H   UNL     1      61.913 159.370  39.922  0.00  0.00    +0.222 HD
ENDBRANCH  27  29
BRANCH  27  31
ATOM     31  O   UNL     1      59.998 158.717  42.727  0.00  0.00    -0.302 OA
ATOM     32  H   UNL     1      60.123 158.895  43.672  0.00  0.00    +0.222 HD
ENDBRANCH  27  31
ENDBRANCH  26  27
ENDBRANCH  24  26
BRANCH  24  33
ATOM     33  O   UNL     1      57.394 160.201  39.775  0.00  0.00    -0.176 OA
BRANCH  33  34
ATOM     34  P   UNL     1      56.904 160.556  41.331  0.00  0.00    +0.482 P 
ATOM     35  O   UNL     1      57.176 159.430  42.302  0.00  0.00    -0.227 OA
BRANCH  34  36
ATOM     36  O   UNL     1      57.592 161.980  41.928  0.00  0.00    -0.302 OA
ATOM     37  H   UNL     1      57.045 162.324  42.650  0.00  0.00    +0.222 HD
ENDBRANCH  34  36
BRANCH  34  38
ATOM     38  O   UNL     1      55.212 160.792  41.294  0.00  0.00    -0.302 OA
ATOM     39  H   UNL     1      54.965 161.466  41.947  0.00  0.00    +0.222 HD
ENDBRANCH  34  38
ENDBRANCH  33  34
ENDBRANCH  24  33
ENDBRANCH  23  24
ENDBRANCH   1  23
TORSDOF 11
ENDMDL
