MODEL 1
REMARK VINA RESULT:    -5.705      0.000      0.000
REMARK INTER + INTRA:          -7.979
REMARK INTER:                  -7.206
REMARK INTRA:                  -0.772
REMARK UNBOUND:                -0.772
REMARK  Name = =
REMARK  5 active torsions:
REMARK  status: ('A' for Active; 'I' for Inactive)
REMARK    1  A    between atoms: S_1  and  N_17
REMARK    2  A    between atoms: C_2  and  C_7
REMARK    3  A    between atoms: N_17  and  C_18
REMARK    4  A    between atoms: N_17  and  C_26
REMARK    5  A    between atoms: C_26  and  O_28
REMARK                            x       y       z     vdW  Elec       q    Type
REMARK                         _______ _______ _______ _____ _____    ______ ____
ROOT
ATOM      1  S   UNL     1      62.540 162.625  38.756  0.00  0.00    -0.152 S 
ATOM      2  C   UNL     1      62.136 161.325  39.824  0.00  0.00    +0.099 C 
ATOM      3  C   UNL     1      63.288 160.294  39.568  0.00  0.00    +0.085 C 
ATOM      4  N   UNL     1      64.003 160.590  38.364  0.00  0.00    -0.296 NA
ATOM      5  C   UNL     1      65.057 161.535  38.824  0.00  0.00    +0.080 C 
ATOM      6  C   UNL     1      64.359 162.766  39.337  0.00  0.00    +0.071 C 
ATOM      7  H   UNL     1      62.009 162.255  37.561  0.00  0.00    +0.102 HD
ATOM      8  H   UNL     1      64.414 159.746  37.966  0.00  0.00    +0.123 HD
ENDROOT
BRANCH   2   9
ATOM      9  C   UNL     1      60.946 160.547  39.482  0.00  0.00    +0.070 C 
ATOM     10  C   UNL     1      60.291 159.910  40.566  0.00  0.00    +0.017 C 
ATOM     11  C   UNL     1      59.123 159.208  40.406  0.00  0.00    +0.022 C 
ATOM     12  C   UNL     1      58.562 159.128  39.122  0.00  0.00    +0.022 C 
ATOM     13  C   UNL     1      59.210 159.755  38.075  0.00  0.00    +0.099 C 
ATOM     14  N   UNL     1      60.352 160.423  38.302  0.00  0.00    -0.247 NA
ATOM     15  C   UNL     1      58.514 158.515  41.448  0.00  0.00    +0.099 C 
ATOM     16  N   UNL     1      59.101 158.539  42.652  0.00  0.00    -0.242 NA
ATOM     17  C   UNL     1      60.245 159.214  42.847  0.00  0.00    +0.099 C 
ATOM     18  C   UNL     1      60.871 159.915  41.812  0.00  0.00    +0.022 C 
ENDBRANCH   2   9
BRANCH   1  19
ATOM     19  N   UNL     1      61.917 164.148  38.505  0.00  0.00    -0.216 N 
BRANCH  19  20
ATOM     20  C   UNL     1      60.520 164.457  38.346  0.00  0.00    +0.228 C 
ATOM     21  I   UNL     1      59.497 164.241  40.221  0.00  0.00    -0.017 I 
ATOM     22  O   UNL     1      59.865 163.551  37.472  0.00  0.00    -0.321 OA
ATOM     23  C   UNL     1      60.469 163.473  36.220  0.00  0.00    +0.213 C 
ATOM     24  C   UNL     1      60.648 164.845  35.627  0.00  0.00    +0.203 C 
ATOM     25  O   UNL     1      61.092 164.941  34.468  0.00  0.00    -0.289 OA
ATOM     26  C   UNL     1      60.284 165.996  36.477  0.00  0.00    +0.040 C 
ATOM     27  C   UNL     1      60.230 165.789  37.778  0.00  0.00    +0.034 C 
ENDBRANCH  19  20
BRANCH  19  28
ATOM     28  C   UNL     1      62.888 165.214  38.525  0.00  0.00    +0.240 C 
ATOM     29  S   UNL     1      63.117 166.107  39.837  0.00  0.00    +0.007 S 
BRANCH  28  30
ATOM     30  O   UNL     1      63.678 165.518  37.414  0.00  0.00    -0.489 OA
ATOM     31  H   UNL     1      63.535 166.315  36.941  0.00  0.00    +0.294 HD
ENDBRANCH  28  30
ENDBRANCH  19  28
ENDBRANCH   1  19
TORSDOF 5
ENDMDL
