MODEL 1
REMARK VINA RESULT:    -6.652      0.000      0.000
REMARK INTER + INTRA:          -8.238
REMARK INTER:                  -8.402
REMARK INTRA:                   0.164
REMARK UNBOUND:                 0.164
REMARK  Name = =
REMARK  5 active torsions:
REMARK  status: ('A' for Active; 'I' for Inactive)
REMARK    1  A    between atoms: C_1  and  N_20
REMARK    2  A    between atoms: C_18  and  C_22
REMARK    3  A    between atoms: N_21  and  O_24
REMARK    4  A    between atoms: O_24  and  P_26
REMARK    5  A    between atoms: P_26  and  O_28
REMARK                            x       y       z     vdW  Elec       q    Type
REMARK                         _______ _______ _______ _____ _____    ______ ____
ROOT
ATOM      1  C   UNL     1      61.298 163.076  38.891  0.00  0.00    +0.057 C 
ATOM      2  C   UNL     1      60.423 161.895  38.886  0.00  0.00    +0.017 C 
ATOM      3  C   UNL     1      59.307 161.867  39.808  0.00  0.00    +0.007 C 
ATOM      4  C   UNL     1      58.355 160.778  39.792  0.00  0.00    +0.036 C 
ATOM      5  C   UNL     1      58.665 159.601  38.933  0.00  0.00    +0.058 C 
ATOM      6  C   UNL     1      59.525 159.941  37.776  0.00  0.00    +0.016 C 
ATOM      7  C   UNL     1      60.806 160.694  38.160  0.00  0.00    +0.003 C 
ATOM      8  N   UNL     1      58.994 158.412  39.646  0.00  0.00    -0.295 NA
ATOM      9  C   UNL     1      59.172 158.578  41.060  0.00  0.00    +0.095 C 
ATOM     10  C   UNL     1      58.050 159.329  41.681  0.00  0.00    -0.014 C 
ATOM     11  C   UNL     1      57.657 160.437  41.023  0.00  0.00    -0.028 C 
ATOM     12  C   UNL     1      59.758 162.384  41.147  0.00  0.00    +0.000 C 
ATOM     13  C   UNL     1      59.974 163.885  40.878  0.00  0.00    +0.002 C 
ATOM     14  C   UNL     1      61.137 164.082  39.939  0.00  0.00    +0.016 C 
ATOM     15  C   UNL     1      62.365 164.116  40.824  0.00  0.00    +0.002 C 
ATOM     16  C   UNL     1      63.193 162.944  40.433  0.00  0.00    +0.002 C 
ATOM     17  C   UNL     1      62.730 162.538  39.089  0.00  0.00    +0.018 C 
ATOM     18  H   UNL     1      59.863 158.043  39.260  0.00  0.00    +0.124 HD
ENDROOT
BRANCH   1  21
ATOM     19  C   UNL     1      60.220 164.374  36.999  0.00  0.00    +0.301 C 
ATOM     20  O   UNL     1      59.275 164.536  37.834  0.00  0.00    -0.265 OA
ATOM     21  N   UNL     1      61.304 163.605  37.512  0.00  0.00    -0.300 N 
ATOM     22  H   UNL     1      62.078 163.422  36.932  0.00  0.00    +0.150 HD
BRANCH  19  24
ATOM     23  N   UNL     1      61.084 165.927  35.232  0.00  0.00    -0.176 N 
ATOM     24  C   UNL     1      60.166 164.938  35.660  0.00  0.00    +0.322 C 
ATOM     25  O   UNL     1      59.294 164.544  34.869  0.00  0.00    -0.263 OA
ATOM     26  H   UNL     1      61.769 166.234  35.868  0.00  0.00    +0.183 HD
BRANCH  23  27
ATOM     27  O   UNL     1      61.070 166.478  33.981  0.00  0.00    -0.172 OA
BRANCH  27  29
ATOM     28  F   UNL     1      58.766 168.028  34.029  0.00  0.00    -0.132 F 
ATOM     29  P   UNL     1      60.441 168.056  34.208  0.00  0.00    +0.532 P 
ATOM     30  O   UNL     1      60.777 168.586  35.578  0.00  0.00    -0.221 OA
BRANCH  29  31
ATOM     31  O   UNL     1      61.115 169.012  32.982  0.00  0.00    -0.298 OA
ATOM     32  H   UNL     1      60.533 169.767  32.804  0.00  0.00    +0.222 HD
ENDBRANCH  29  31
ENDBRANCH  27  29
ENDBRANCH  23  27
ENDBRANCH  19  24
ENDBRANCH   1  21
TORSDOF 5
ENDMDL
