MODEL 1
REMARK VINA RESULT:    -9.831      0.000      0.000
REMARK INTER + INTRA:         -13.145
REMARK INTER:                 -12.129
REMARK INTRA:                  -1.015
REMARK UNBOUND:                -1.015
REMARK  Name = =
REMARK  5 active torsions:
REMARK  status: ('A' for Active; 'I' for Inactive)
REMARK    1  A    between atoms: N_1  and  C_17
REMARK    2  A    between atoms: N_4  and  C_5
REMARK    3  A    between atoms: C_14  and  C_30
REMARK    4  A    between atoms: C_15  and  O_38
REMARK    5  A    between atoms: C_18  and  O_29
REMARK                            x       y       z     vdW  Elec       q    Type
REMARK                         _______ _______ _______ _____ _____    ______ ____
ROOT
ATOM      1  N   UNL     1       0.626  -4.140  29.149  0.00  0.00    -0.152 N 
ATOM      2  C   UNL     1      -0.729  -3.983  29.511  0.00  0.00    +0.318 C 
ATOM      3  O   UNL     1      -1.637  -3.610  28.677  0.00  0.00    -0.252 OA
ATOM      4  N   UNL     1      -1.288  -4.204  30.814  0.00  0.00    -0.266 N 
ATOM      5  C   UNL     1       1.568  -4.463  30.156  0.00  0.00    +0.413 C 
ATOM      6  O   UNL     1       1.274  -4.878  31.306  0.00  0.00    -0.226 OA
ATOM      7  H   UNL     1      -0.716  -4.548  31.537  0.00  0.00    +0.153 HD
ENDROOT
BRANCH   1   8
ATOM      8  C   UNL     1       1.095  -3.814  27.857  0.00  0.00    +0.141 C 
ATOM      9  C   UNL     1       1.380  -4.681  26.922  0.00  0.00    +0.190 C 
ATOM     10  C   UNL     1       1.882  -4.231  25.608  0.00  0.00    +0.230 C 
ATOM     11  O   UNL     1       2.128  -5.121  24.757  0.00  0.00    -0.283 OA
ATOM     12  C   UNL     1       2.099  -2.851  25.263  0.00  0.00    +0.045 C 
ATOM     13  C   UNL     1       1.813  -1.926  26.236  0.00  0.00    +0.044 C 
ATOM     14  C   UNL     1       2.001  -0.573  25.971  0.00  0.00    +0.003 C 
ATOM     15  C   UNL     1       2.472  -0.212  24.732  0.00  0.00    +0.000 C 
ATOM     16  C   UNL     1       2.765  -1.111  23.741  0.00  0.00    +0.000 C 
ATOM     17  C   UNL     1       2.572  -2.447  24.022  0.00  0.00    +0.003 C 
ATOM     18  C   UNL     1       1.312  -2.393  27.541  0.00  0.00    +0.213 C 
ATOM     19  O   UNL     1       1.095  -1.482  28.353  0.00  0.00    -0.285 OA
BRANCH   9  20
ATOM     20  O   UNL     1       1.237  -6.074  27.058  0.00  0.00    -0.502 OA
ATOM     21  H   UNL     1       1.964  -6.594  27.338  0.00  0.00    +0.292 HD
ENDBRANCH   9  20
ENDBRANCH   1   8
BRANCH   4  22
ATOM     22  C   UNL     1      -2.683  -3.926  31.073  0.00  0.00    +0.219 C 
ATOM     23  N   UNL     1      -3.134  -2.645  30.903  0.00  0.00    -0.245 NA
ATOM     24  C   UNL     1      -4.365  -2.262  31.279  0.00  0.00    +0.116 C 
ATOM     25  C   UNL     1      -5.225  -3.168  31.861  0.00  0.00    +0.179 C 
ATOM     26  N   UNL     1      -6.452  -2.750  32.229  0.00  0.00    -0.204 NA
ATOM     27  C   UNL     1      -6.898  -1.494  32.065  0.00  0.00    +0.196 C 
ATOM     28  N   UNL     1      -6.061  -0.607  31.498  0.00  0.00    -0.243 NA
ATOM     29  C   UNL     1      -4.824  -0.965  31.110  0.00  0.00    +0.175 C 
ATOM     30  N   UNL     1      -4.793  -4.415  32.027  0.00  0.00    -0.226 NA
ATOM     31  C   UNL     1      -3.522  -4.823  31.637  0.00  0.00    +0.105 C 
BRANCH  31  32
ATOM     32  C   UNL     1      -3.225  -6.236  31.691  0.00  0.00    +0.059 C 
ATOM     33  C   UNL     1      -3.192  -7.100  30.710  0.00  0.00    +0.047 C 
ATOM     34  C   UNL     1      -2.855  -8.529  30.947  0.00  0.00    +0.196 C 
ATOM     35  O   UNL     1      -2.840  -9.308  29.960  0.00  0.00    -0.287 OA
ATOM     36  C   UNL     1      -2.552  -9.018  32.276  0.00  0.00    +0.045 C 
ATOM     37  C   UNL     1      -2.582  -8.157  33.276  0.00  0.00    +0.045 C 
ATOM     38  C   UNL     1      -2.911  -6.767  33.039  0.00  0.00    +0.197 C 
ATOM     39  O   UNL     1      -2.927  -5.986  34.016  0.00  0.00    -0.287 OA
ENDBRANCH  31  32
ENDBRANCH   4  22
BRANCH   5  40
ATOM     40  O   UNL     1       2.971  -4.346  29.999  0.00  0.00    -0.466 OA
ATOM     41  H   UNL     1       3.388  -3.516  30.122  0.00  0.00    +0.297 HD
ENDBRANCH   5  40
TORSDOF 5
ENDMDL
