MODEL 1
REMARK VINA RESULT:   -10.459      0.000      0.000
REMARK INTER + INTRA:         -12.146
REMARK INTER:                 -11.681
REMARK INTRA:                  -0.464
REMARK UNBOUND:                -0.464
REMARK  Name = =
REMARK  2 active torsions:
REMARK  status: ('A' for Active; 'I' for Inactive)
REMARK    1  A    between atoms: N_1  and  C_25
REMARK    2  A    between atoms: C_25  and  C_39
REMARK                            x       y       z     vdW  Elec       q    Type
REMARK                         _______ _______ _______ _____ _____    ______ ____
ROOT
ATOM      1  N   UNL     1       2.122  -4.211  26.754  0.00  0.00    -0.269 N 
ATOM      2  C   UNL     1       2.108  -5.384  25.909  0.00  0.00    +0.179 C 
ATOM      3  C   UNL     1       2.196  -5.067  24.449  0.00  0.00    +0.246 C 
ATOM      4  O   UNL     1       1.940  -3.890  24.097  0.00  0.00    -0.273 OA
ATOM      5  N   UNL     1       2.544  -6.007  23.458  0.00  0.00    -0.272 N 
ATOM      6  C   UNL     1       3.503  -7.024  23.716  0.00  0.00    +0.152 C 
ATOM      7  C   UNL     1       2.926  -8.296  23.063  0.00  0.00    +0.031 C 
ATOM      8  C   UNL     1       1.893  -7.768  22.098  0.00  0.00    +0.024 C 
ATOM      9  C   UNL     1       2.109  -6.251  22.075  0.00  0.00    +0.094 C 
ATOM     10  C   UNL     1       4.854  -6.816  23.161  0.00  0.00    +0.241 C 
ATOM     11  O   UNL     1       5.753  -7.565  23.698  0.00  0.00    -0.273 OA
ATOM     12  N   UNL     1       5.272  -5.942  22.163  0.00  0.00    -0.295 N 
ATOM     13  C   UNL     1       5.163  -4.499  22.125  0.00  0.00    +0.176 C 
ATOM     14  C   UNL     1       6.510  -3.946  21.905  0.00  0.00    +0.243 C 
ATOM     15  O   UNL     1       7.111  -4.366  20.857  0.00  0.00    -0.273 OA
ATOM     16  N   UNL     1       7.194  -3.028  22.704  0.00  0.00    -0.294 N 
ATOM     17  C   UNL     1       7.204  -2.984  24.149  0.00  0.00    +0.201 C 
ATOM     18  C   UNL     1       6.937  -4.296  24.758  0.00  0.00    +0.337 C 
ATOM     19  O   UNL     1       7.868  -5.166  24.616  0.00  0.00    -0.248 OA
ATOM     20  O   UNL     1       5.820  -4.670  25.441  0.00  0.00    -0.447 OA
ATOM     21  C   UNL     1       5.129  -3.957  26.429  0.00  0.00    +0.218 C 
ATOM     22  C   UNL     1       4.198  -2.901  25.911  0.00  0.00    +0.133 C 
ATOM     23  C   UNL     1       2.814  -3.010  26.436  0.00  0.00    +0.230 C 
ATOM     24  O   UNL     1       2.161  -1.912  26.626  0.00  0.00    -0.275 OA
ATOM     25  H   UNL     1       5.698  -6.361  21.381  0.00  0.00    +0.150 HD
ATOM     26  H   UNL     1       7.722  -2.341  22.236  0.00  0.00    +0.150 HD
ENDROOT
BRANCH   1  27
ATOM     27  C   UNL     1       1.332  -4.287  27.997  0.00  0.00    +0.104 C 
ATOM     28  C   UNL     1       0.665  -5.636  27.989  0.00  0.00    +0.050 C 
ATOM     29  C   UNL     1       0.375  -6.155  29.340  0.00  0.00    -0.024 C 
ATOM     30  C   UNL     1       1.207  -5.900  30.414  0.00  0.00    -0.026 C 
ATOM     31  C   UNL     1       0.868  -6.415  31.626  0.00  0.00    -0.005 C 
ATOM     32  C   UNL     1      -0.272  -7.174  31.803  0.00  0.00    -0.000 C 
ATOM     33  C   UNL     1      -1.106  -7.430  30.725  0.00  0.00    -0.000 C 
ATOM     34  C   UNL     1      -0.766  -6.912  29.510  0.00  0.00    -0.005 C 
ATOM     35  C   UNL     1      -2.248  -8.181  30.883  0.00  0.00    -0.000 C 
ATOM     36  C   UNL     1      -2.571  -8.692  32.144  0.00  0.00    -0.000 C 
ATOM     37  C   UNL     1      -1.750  -8.449  33.229  0.00  0.00    -0.000 C 
ATOM     38  C   UNL     1      -0.612  -7.694  33.045  0.00  0.00    -0.000 C 
ATOM     39  C   UNL     1       2.414  -5.082  30.131  0.00  0.00    +0.028 C 
ATOM     40  C   UNL     1       2.101  -3.950  29.204  0.00  0.00    +0.029 C 
BRANCH  27  41
ATOM     41  C   UNL     1       0.202  -3.289  27.914  0.00  0.00    +0.116 C 
ATOM     42  N   UNL     1      -0.655  -3.261  26.890  0.00  0.00    -0.148 NA
ATOM     43  N   UNL     1      -1.652  -2.396  26.794  0.00  0.00    -0.125 NA
ATOM     44  C   UNL     1      -1.838  -1.479  27.774  0.00  0.00    +0.222 C 
ATOM     45  N   UNL     1      -1.008  -1.462  28.827  0.00  0.00    -0.220 NA
ATOM     46  C   UNL     1       0.017  -2.359  28.913  0.00  0.00    +0.119 C 
ENDBRANCH  27  41
ENDBRANCH   1  27
TORSDOF 2
ENDMDL
