REMARK  Name = =
REMARK  3 active torsions:
REMARK  status: ('A' for Active; 'I' for Inactive)
REMARK    1  A    between atoms: C_1  and  C_17
REMARK    2  A    between atoms: C_5  and  C_7
REMARK    3  A    between atoms: C_17  and  O_19
REMARK                            x       y       z     vdW  Elec       q    Type
REMARK                         _______ _______ _______ _____ _____    ______ ____
ROOT
ATOM      1  C   UNL     1     -10.750   0.577  27.327  0.00  0.00    +0.076 C 
ATOM      2  C   UNL     1     -10.683  -0.708  26.855  0.00  0.00    +0.006 C 
ATOM      3  C   UNL     1      -9.890  -1.686  27.399  0.00  0.00    +0.000 C 
ATOM      4  C   UNL     1      -9.097  -1.360  28.507  0.00  0.00    +0.002 C 
ATOM      5  C   UNL     1      -9.153  -0.077  28.994  0.00  0.00    +0.020 C 
ATOM      6  C   UNL     1      -9.968   0.886  28.416  0.00  0.00    +0.008 C 
ENDROOT
BRANCH   5   7
ATOM      7  C   UNL     1      -8.368   0.315  30.155  0.00  0.00    +0.103 C 
ATOM      8  N   UNL     1      -7.576  -0.605  30.788  0.00  0.00    -0.148 NA
ATOM      9  N   UNL     1      -6.844  -0.309  31.829  0.00  0.00    -0.146 NA
ATOM     10  C   UNL     1      -6.814   0.923  32.358  0.00  0.00    +0.122 C 
ATOM     11  C   UNL     1      -7.584   1.901  31.774  0.00  0.00    +0.022 C 
ATOM     12  C   UNL     1      -8.367   1.585  30.661  0.00  0.00    +0.021 C 
ATOM     13  C   UNL     1      -9.113   2.570  30.081  0.00  0.00    +0.002 C 
ATOM     14  C   UNL     1      -9.078   3.853  30.610  0.00  0.00    +0.000 C 
ATOM     15  C   UNL     1      -8.308   4.159  31.708  0.00  0.00    +0.000 C 
ATOM     16  C   UNL     1      -7.560   3.185  32.291  0.00  0.00    +0.002 C 
ENDBRANCH   5   7
BRANCH   1  17
ATOM     17  C   UNL     1     -11.619   1.556  26.689  0.00  0.00    +0.338 C 
ATOM     18  O   UNL     1     -11.304   2.767  26.765  0.00  0.00    -0.245 OA
BRANCH  17  19
ATOM     19  O   UNL     1     -12.771   1.223  26.007  0.00  0.00    -0.477 OA
ATOM     20  H   UNL     1     -13.030   0.325  25.935  0.00  0.00    +0.295 HD
ENDBRANCH  17  19
ENDBRANCH   1  17
TORSDOF 3
