REMARK  Name = =
REMARK  4 active torsions:
REMARK  status: ('A' for Active; 'I' for Inactive)
REMARK    1  A    between atoms: C_1  and  C_23
REMARK    2  A    between atoms: C_2  and  N_17
REMARK    3  A    between atoms: C_5  and  C_7
REMARK    4  A    between atoms: C_23  and  O_25
REMARK                            x       y       z     vdW  Elec       q    Type
REMARK                         _______ _______ _______ _____ _____    ______ ____
ROOT
ATOM      1  C   UNL     1     -13.389  -6.107  24.181  0.00  0.00    +0.089 C 
ATOM      2  C   UNL     1     -13.126  -4.765  24.182  0.00  0.00    +0.055 C 
ATOM      3  C   UNL     1     -11.806  -4.326  23.983  0.00  0.00    +0.015 C 
ATOM      4  C   UNL     1     -10.794  -5.240  23.787  0.00  0.00    +0.003 C 
ATOM      5  C   UNL     1     -11.021  -6.600  23.777  0.00  0.00    +0.020 C 
ATOM      6  C   UNL     1     -12.328  -6.988  23.977  0.00  0.00    +0.009 C 
ENDROOT
BRANCH   5   7
ATOM      7  C   UNL     1      -9.953  -7.591  23.591  0.00  0.00    +0.103 C 
ATOM      8  N   UNL     1      -9.101  -7.814  24.642  0.00  0.00    -0.148 NA
ATOM      9  N   UNL     1      -8.115  -8.686  24.543  0.00  0.00    -0.146 NA
ATOM     10  C   UNL     1      -7.937  -9.366  23.411  0.00  0.00    +0.122 C 
ATOM     11  C   UNL     1      -8.769  -9.174  22.331  0.00  0.00    +0.022 C 
ATOM     12  C   UNL     1      -9.808  -8.257  22.425  0.00  0.00    +0.021 C 
ATOM     13  C   UNL     1     -10.612  -8.063  21.346  0.00  0.00    +0.002 C 
ATOM     14  C   UNL     1     -10.394  -8.782  20.158  0.00  0.00    +0.000 C 
ATOM     15  C   UNL     1      -9.363  -9.695  20.062  0.00  0.00    +0.000 C 
ATOM     16  C   UNL     1      -8.549  -9.889  21.155  0.00  0.00    +0.002 C 
ENDBRANCH   5   7
BRANCH   2  17
ATOM     17  N   UNL     1     -14.116  -3.751  24.322  0.00  0.00    -0.294 N 
ATOM     18  C   UNL     1     -14.462  -3.222  25.639  0.00  0.00    +0.165 C 
ATOM     19  N   UNL     1     -15.016  -1.916  25.559  0.00  0.00    -0.280 NA
ATOM     20  C   UNL     1     -16.135  -1.757  24.690  0.00  0.00    +0.072 C 
ATOM     21  C   UNL     1     -16.245  -2.876  23.671  0.00  0.00    +0.039 C 
ATOM     22  C   UNL     1     -14.824  -3.196  23.194  0.00  0.00    +0.093 C 
ATOM     23  H   UNL     1     -14.281  -1.286  25.238  0.00  0.00    +0.125 HD
ENDBRANCH   2  17
BRANCH   1  24
ATOM     24  C   UNL     1     -14.732  -6.603  24.436  0.00  0.00    +0.339 C 
ATOM     25  O   UNL     1     -15.440  -7.047  23.513  0.00  0.00    -0.245 OA
BRANCH  24  26
ATOM     26  O   UNL     1     -15.225  -6.587  25.712  0.00  0.00    -0.477 OA
ATOM     27  H   UNL     1     -14.700  -6.255  26.413  0.00  0.00    +0.295 HD
ENDBRANCH  24  26
ENDBRANCH   1  24
TORSDOF 4
