REMARK  Name = =
REMARK  5 active torsions:
REMARK  status: ('A' for Active; 'I' for Inactive)
REMARK    1  A    between atoms: C_1  and  C_23
REMARK    2  A    between atoms: C_2  and  N_17
REMARK    3  A    between atoms: C_5  and  C_7
REMARK    4  A    between atoms: C_23  and  O_25
REMARK    5  A    between atoms: O_25  and  C_26
REMARK                            x       y       z     vdW  Elec       q    Type
REMARK                         _______ _______ _______ _____ _____    ______ ____
ROOT
ATOM      1  C   UNL     1     -12.107  -5.123  24.736  0.00  0.00    +0.089 C 
ATOM      2  C   UNL     1     -13.391  -5.523  24.421  0.00  0.00    +0.055 C 
ATOM      3  C   UNL     1     -13.534  -6.778  23.808  0.00  0.00    +0.015 C 
ATOM      4  C   UNL     1     -12.474  -7.596  23.519  0.00  0.00    +0.003 C 
ATOM      5  C   UNL     1     -11.192  -7.195  23.831  0.00  0.00    +0.020 C 
ATOM      6  C   UNL     1     -11.042  -5.952  24.440  0.00  0.00    +0.009 C 
ENDROOT
BRANCH   5   7
ATOM      7  C   UNL     1     -10.003  -7.984  23.540  0.00  0.00    +0.103 C 
ATOM      8  N   UNL     1      -9.029  -8.131  24.488  0.00  0.00    -0.148 NA
ATOM      9  N   UNL     1      -7.933  -8.831  24.260  0.00  0.00    -0.146 NA
ATOM     10  C   UNL     1      -7.731  -9.433  23.075  0.00  0.00    +0.122 C 
ATOM     11  C   UNL     1      -8.669  -9.336  22.048  0.00  0.00    +0.022 C 
ATOM     12  C   UNL     1      -9.813  -8.589  22.323  0.00  0.00    +0.021 C 
ATOM     13  C   UNL     1     -10.713  -8.497  21.278  0.00  0.00    +0.002 C 
ATOM     14  C   UNL     1     -10.527  -9.090  20.045  0.00  0.00    +0.000 C 
ATOM     15  C   UNL     1      -9.382  -9.816  19.831  0.00  0.00    +0.000 C 
ATOM     16  C   UNL     1      -8.450  -9.940  20.834  0.00  0.00    +0.002 C 
ENDBRANCH   5   7
BRANCH   2  17
ATOM     17  N   UNL     1     -14.531  -4.710  24.645  0.00  0.00    -0.294 N 
ATOM     18  C   UNL     1     -14.887  -3.666  23.708  0.00  0.00    +0.165 C 
ATOM     19  N   UNL     1     -15.806  -2.764  24.389  0.00  0.00    -0.280 NA
ATOM     20  C   UNL     1     -17.089  -3.445  24.601  0.00  0.00    +0.072 C 
ATOM     21  C   UNL     1     -16.820  -4.717  25.332  0.00  0.00    +0.039 C 
ATOM     22  C   UNL     1     -15.390  -4.873  25.800  0.00  0.00    +0.093 C 
ATOM     23  H   UNL     1     -15.953  -1.932  23.817  0.00  0.00    +0.125 HD
ENDBRANCH   2  17
BRANCH   1  24
ATOM     24  C   UNL     1     -11.846  -3.869  25.418  0.00  0.00    +0.348 C 
ATOM     25  O   UNL     1     -10.699  -3.375  25.392  0.00  0.00    -0.244 OA
BRANCH  24  26
ATOM     26  O   UNL     1     -12.823  -3.195  26.104  0.00  0.00    -0.403 OA
BRANCH  26  27
ATOM     27  C   UNL     1     -12.584  -2.069  26.880  0.00  0.00    +0.250 C 
ATOM     28  C   UNL     1     -12.327  -2.191  28.219  0.00  0.00    +0.213 C 
ATOM     29  N   UNL     1     -12.090  -1.124  29.006  0.00  0.00    -0.241 NA
ATOM     30  C   UNL     1     -12.112   0.094  28.439  0.00  0.00    +0.203 C 
ATOM     31  N   UNL     1     -12.363   0.219  27.128  0.00  0.00    -0.092 NA
ATOM     32  N   UNL     1     -12.596  -0.829  26.355  0.00  0.00    -0.122 NA
ENDBRANCH  26  27
ENDBRANCH  24  26
ENDBRANCH   1  24
TORSDOF 5
