REMARK  Name = =
REMARK  3 active torsions:
REMARK  status: ('A' for Active; 'I' for Inactive)
REMARK    1  A    between atoms: C_1  and  C_21
REMARK    2  A    between atoms: C_1  and  N_29
REMARK    3  A    between atoms: O_34  and  O_36
REMARK                            x       y       z     vdW  Elec       q    Type
REMARK                         _______ _______ _______ _____ _____    ______ ____
ROOT
ATOM      1  C   UNL     1     -22.894 -40.862  23.266  0.00  0.00    +0.134 C 
ATOM      2  C   UNL     1     -21.602 -40.057  22.977  0.00  0.00    +0.028 C 
ATOM      3  C   UNL     1     -20.828 -40.437  21.796  0.00  0.00    +0.007 C 
ATOM      4  C   UNL     1     -21.470 -41.123  20.665  0.00  0.00    +0.026 C 
ATOM      5  C   UNL     1     -22.348 -42.179  21.158  0.00  0.00    -0.024 C 
ATOM      6  C   UNL     1     -22.990 -42.027  22.373  0.00  0.00    -0.005 C 
ATOM      7  C   UNL     1     -23.789 -43.086  22.747  0.00  0.00    +0.000 C 
ATOM      8  C   UNL     1     -23.952 -44.236  21.968  0.00  0.00    +0.042 C 
ATOM      9  C   UNL     1     -23.293 -44.340  20.770  0.00  0.00    +0.042 C 
ATOM     10  C   UNL     1     -22.483 -43.301  20.358  0.00  0.00    -0.001 C 
ATOM     11  C   UNL     1     -23.457 -45.538  19.948  0.00  0.00    +0.196 C 
ATOM     12  O   UNL     1     -22.849 -45.616  18.855  0.00  0.00    -0.287 OA
ATOM     13  C   UNL     1     -24.316 -46.613  20.405  0.00  0.00    +0.042 C 
ATOM     14  C   UNL     1     -24.990 -46.538  21.605  0.00  0.00    +0.042 C 
ATOM     15  C   UNL     1     -25.817 -47.560  22.058  0.00  0.00    +0.003 C 
ATOM     16  C   UNL     1     -25.985 -48.700  21.296  0.00  0.00    +0.000 C 
ATOM     17  C   UNL     1     -25.323 -48.799  20.094  0.00  0.00    +0.000 C 
ATOM     18  C   UNL     1     -24.508 -47.773  19.666  0.00  0.00    +0.003 C 
ATOM     19  C   UNL     1     -24.807 -45.333  22.399  0.00  0.00    +0.196 C 
ATOM     20  O   UNL     1     -25.436 -45.274  23.509  0.00  0.00    -0.287 OA
ENDROOT
BRANCH   1  21
ATOM     21  C   UNL     1     -22.677 -41.234  24.682  0.00  0.00    +0.242 C 
ATOM     22  O   UNL     1     -23.368 -40.596  25.488  0.00  0.00    -0.273 OA
ATOM     23  N   UNL     1     -21.800 -42.198  25.202  0.00  0.00    -0.273 N 
ATOM     24  C   UNL     1     -20.889 -43.058  24.478  0.00  0.00    +0.126 C 
ATOM     25  C   UNL     1     -19.645 -43.181  25.374  0.00  0.00    +0.164 C 
ATOM     26  O   UNL     1     -19.507 -41.992  26.061  0.00  0.00    -0.350 OA
ATOM     27  C   UNL     1     -20.377 -41.907  27.149  0.00  0.00    +0.164 C 
ATOM     28  C   UNL     1     -21.701 -42.456  26.659  0.00  0.00    +0.126 C 
ENDBRANCH   1  21
BRANCH   1  29
ATOM     29  N   UNL     1     -24.062 -40.034  23.093  0.00  0.00    -0.265 NA
ATOM     30  C   UNL     1     -23.659 -38.669  22.927  0.00  0.00    +0.074 C 
ATOM     31  C   UNL     1     -24.808 -38.470  21.920  0.00  0.00    +0.035 C 
ATOM     32  C   UNL     1     -24.526 -39.898  21.688  0.00  0.00    +0.074 C 
ENDBRANCH   1  29
TORSDOF 2
REMARK  Name = =
REMARK  3 active torsions:
REMARK  status: ('A' for Active; 'I' for Inactive)
REMARK    1  A    between atoms: C_1  and  C_21
REMARK    2  A    between atoms: C_1  and  N_29
REMARK    3  A    between atoms: O_34  and  O_36
REMARK                            x       y       z     vdW  Elec       q    Type
REMARK                         _______ _______ _______ _____ _____    ______ ____
ROOT
ATOM      1  P   UNL     1     -25.499 -40.207  23.979  0.00  0.00    +0.000 P 
ENDROOT
TORSDOF 0
REMARK  Name = =
REMARK  3 active torsions:
REMARK  status: ('A' for Active; 'I' for Inactive)
REMARK    1  A    between atoms: C_1  and  C_21
REMARK    2  A    between atoms: C_1  and  N_29
REMARK    3  A    between atoms: O_34  and  O_36
REMARK                            x       y       z     vdW  Elec       q    Type
REMARK                         _______ _______ _______ _____ _____    ______ ____
ROOT
ATOM      1  O   UNL     1     -26.273 -41.470  23.656  0.00  0.00    -0.253 OA
ATOM      2  H   UNL     1     -26.667 -42.344  23.507  0.00  0.00    +0.253 HD
ENDROOT
BRANCH   1   3
ATOM      3  O   UNL     1     -26.121 -41.243  25.087  0.00  0.00    -0.253 OA
ATOM      4  H   UNL     1     -25.727 -40.369  25.236  0.00  0.00    +0.253 HD
ENDBRANCH   1   3
TORSDOF 1
REMARK  Name = =
REMARK  3 active torsions:
REMARK  status: ('A' for Active; 'I' for Inactive)
REMARK    1  A    between atoms: C_1  and  C_21
REMARK    2  A    between atoms: C_1  and  N_29
REMARK    3  A    between atoms: O_34  and  O_36
REMARK                            x       y       z     vdW  Elec       q    Type
REMARK                         _______ _______ _______ _____ _____    ______ ____
ROOT
ATOM      1  O   HOH     1     -25.451 -38.784  24.952  0.00  0.00    -0.253 OA
ATOM      2  H   HOH     0     -24.481 -38.784  24.952  0.00  0.00    +0.253 HD
ENDROOT
TORSDOF 0
REMARK  Name = =
REMARK  3 active torsions:
REMARK  status: ('A' for Active; 'I' for Inactive)
REMARK    1  A    between atoms: C_1  and  C_21
REMARK    2  A    between atoms: C_1  and  N_29
REMARK    3  A    between atoms: O_34  and  O_36
REMARK                            x       y       z     vdW  Elec       q    Type
REMARK                         _______ _______ _______ _____ _____    ______ ____
ROOT
ATOM      1  C   UNL     1     -26.996 -39.783  23.074  0.00  0.00    +0.000 C 
ATOM      2  C   UNL     1     -27.747 -38.779  23.488  0.00  0.00    +0.000 C 
ENDROOT
TORSDOF 0
