REMARK  Name = =
REMARK  1 active torsions:
REMARK  status: ('A' for Active; 'I' for Inactive)
REMARK    1  A    between atoms: C_5  and  C_7
REMARK                            x       y       z     vdW  Elec       q    Type
REMARK                         _______ _______ _______ _____ _____    ______ ____
ROOT
ATOM      1  N   UNL     1      -4.021  -4.487  33.299  0.00  0.00    -0.213 NA
ATOM      2  C   UNL     1      -3.762  -5.893  33.506  0.00  0.00    +0.094 C 
ATOM      3  C   UNL     1      -3.711  -6.703  32.248  0.00  0.00    +0.044 C 
ATOM      4  C   UNL     1      -3.303  -5.896  31.066  0.00  0.00    -0.027 C 
ATOM      5  C   UNL     1      -3.779  -4.665  30.953  0.00  0.00    +0.025 C 
ATOM      6  C   UNL     1      -4.693  -4.215  32.047  0.00  0.00    +0.115 C 
ENDROOT
BRANCH   5   7
ATOM      7  C   UNL     1      -3.455  -3.750  29.828  0.00  0.00    +0.257 C 
ATOM      8  O   UNL     1      -2.971  -2.545  30.290  0.00  0.00    -0.325 OA
ATOM      9  C   UNL     1      -2.179  -2.079  29.230  0.00  0.00    +0.177 C 
ATOM     10  C   UNL     1      -1.510  -3.366  28.794  0.00  0.00    +0.177 C 
ATOM     11  O   UNL     1      -2.527  -4.294  28.979  0.00  0.00    -0.325 OA
ENDBRANCH   5   7
TORSDOF 1
