REMARK  Name = =
REMARK  6 active torsions:
REMARK  status: ('A' for Active; 'I' for Inactive)
REMARK    1  A    between atoms: C_1  and  N_21
REMARK    2  A    between atoms: C_7  and  O_41
REMARK    3  A    between atoms: C_15  and  O_40
REMARK    4  A    between atoms: C_18  and  O_39
REMARK    5  A    between atoms: C_25  and  C_34
REMARK    6  A    between atoms: C_26  and  N_27
REMARK                            x       y       z     vdW  Elec       q    Type
REMARK                         _______ _______ _______ _____ _____    ______ ____
ROOT
ATOM      1  C   UNL     1       2.351  -7.895  25.789  0.00  0.00    +0.084 C 
ATOM      2  C   UNL     1       1.484  -8.293  24.600  0.00  0.00    +0.021 C 
ATOM      3  C   UNL     1       1.898  -7.489  23.413  0.00  0.00    +0.006 C 
ATOM      4  C   UNL     1       3.361  -7.401  23.197  0.00  0.00    +0.026 C 
ATOM      5  C   UNL     1       4.161  -8.113  24.239  0.00  0.00    -0.022 C 
ATOM      6  C   UNL     1       3.703  -8.366  25.517  0.00  0.00    +0.022 C 
ATOM      7  C   UNL     1       4.541  -9.024  26.402  0.00  0.00    +0.134 C 
ATOM      8  C   UNL     1       5.819  -9.435  26.047  0.00  0.00    +0.075 C 
ATOM      9  C   UNL     1       6.242  -9.166  24.764  0.00  0.00    +0.045 C 
ATOM     10  C   UNL     1       5.420  -8.503  23.846  0.00  0.00    -0.001 C 
ATOM     11  C   UNL     1       7.576  -9.587  24.366  0.00  0.00    +0.199 C 
ATOM     12  O   UNL     1       7.998  -9.362  23.211  0.00  0.00    -0.286 OA
ATOM     13  C   UNL     1       8.441 -10.283  25.328  0.00  0.00    +0.079 C 
ATOM     14  C   UNL     1       8.019 -10.549  26.605  0.00  0.00    +0.079 C 
ATOM     15  C   UNL     1       8.826 -11.201  27.509  0.00  0.00    +0.137 C 
ATOM     16  C   UNL     1      10.088 -11.594  27.121  0.00  0.00    +0.040 C 
ATOM     17  C   UNL     1      10.530 -11.335  25.842  0.00  0.00    +0.040 C 
ATOM     18  C   UNL     1       9.714 -10.687  24.959  0.00  0.00    +0.137 C 
ATOM     19  C   UNL     1       6.682 -10.132  27.012  0.00  0.00    +0.202 C 
ATOM     20  O   UNL     1       6.340 -10.393  28.172  0.00  0.00    -0.286 OA
ENDROOT
BRANCH   1  21
ATOM     21  N   UNL     1       1.751  -8.047  27.032  0.00  0.00    -0.255 NA
ATOM     22  C   UNL     1       0.986  -9.178  27.354  0.00  0.00    +0.074 C 
ATOM     23  C   UNL     1      -0.504  -8.867  27.563  0.00  0.00    +0.018 C 
ATOM     24  C   UNL     1      -0.519  -7.990  28.774  0.00  0.00    +0.010 C 
ATOM     25  C   UNL     1       0.332  -6.973  28.739  0.00  0.00    +0.091 C 
ATOM     26  C   UNL     1       1.151  -6.834  27.516  0.00  0.00    +0.146 C 
BRANCH  26  27
ATOM     27  N   UNL     1       2.115  -5.752  27.625  0.00  0.00    -0.242 N 
ATOM     28  C   UNL     1       3.367  -5.933  28.103  0.00  0.00    +0.069 C 
ATOM     29  C   UNL     1       4.256  -4.867  28.191  0.00  0.00    +0.016 C 
ATOM     30  C   UNL     1       3.898  -3.601  27.798  0.00  0.00    +0.006 C 
ATOM     31  C   UNL     1       2.621  -3.425  27.311  0.00  0.00    +0.058 C 
ATOM     32  C   UNL     1       1.792  -4.503  27.247  0.00  0.00    +0.254 C 
ATOM     33  O   UNL     1       0.611  -4.321  26.794  0.00  0.00    -0.270 OA
ENDBRANCH  26  27
BRANCH  25  34
ATOM     34  C   UNL     1       0.430  -6.014  29.877  0.00  0.00    +0.238 C 
ATOM     35  O   UNL     1       1.278  -6.471  30.869  0.00  0.00    -0.328 OA
ATOM     36  C   UNL     1       0.479  -7.071  31.838  0.00  0.00    +0.177 C 
ATOM     37  C   UNL     1      -0.919  -6.577  31.563  0.00  0.00    +0.177 C 
ATOM     38  O   UNL     1      -0.803  -5.805  30.431  0.00  0.00    -0.328 OA
ENDBRANCH  25  34
ENDBRANCH   1  21
BRANCH  18  39
ATOM     39  O   UNL     1      10.102 -10.390  23.636  0.00  0.00    -0.505 OA
ATOM     40  H   UNL     1       9.510  -9.943  23.063  0.00  0.00    +0.292 HD
ENDBRANCH  18  39
BRANCH  15  41
ATOM     41  O   UNL     1       8.361 -11.460  28.813  0.00  0.00    -0.505 OA
ATOM     42  H   UNL     1       7.501 -11.188  29.066  0.00  0.00    +0.292 HD
ENDBRANCH  15  41
BRANCH   7  43
ATOM     43  O   UNL     1       4.064  -9.250  27.631  0.00  0.00    -0.506 OA
ATOM     44  H   UNL     1       3.200  -8.967  27.857  0.00  0.00    +0.292 HD
ENDBRANCH   7  43
TORSDOF 6
