REMARK  Name = =
REMARK  7 active torsions:
REMARK  status: ('A' for Active; 'I' for Inactive)
REMARK    1  A    between atoms: C_1  and  C_10
REMARK    2  A    between atoms: C_2  and  N_22
REMARK    3  A    between atoms: C_10  and  C_16
REMARK    4  A    between atoms: C_16  and  P_18
REMARK    5  A    between atoms: P_18  and  O_20
REMARK    6  A    between atoms: P_18  and  O_21
REMARK    7  A    between atoms: N_22  and  C_26
REMARK                            x       y       z     vdW  Elec       q    Type
REMARK                         _______ _______ _______ _____ _____    ______ ____
ROOT
ATOM      1  C   UNL     1     -23.058 -41.805  25.778  0.00  0.00    +0.074 C 
ATOM      2  C   UNL     1     -22.766 -42.333  24.645  0.00  0.00    +0.101 C 
ATOM      3  C   UNL     1     -21.370 -42.003  24.138  0.00  0.00    +0.210 C 
ATOM      4  O   UNL     1     -21.056 -42.523  23.012  0.00  0.00    -0.285 OA
ATOM      5  C   UNL     1     -20.444 -41.172  24.842  0.00  0.00    +0.047 C 
ATOM      6  C   UNL     1     -20.782 -40.648  25.992  0.00  0.00    +0.045 C 
ATOM      7  C   UNL     1     -22.093 -40.930  26.521  0.00  0.00    +0.197 C 
ATOM      8  O   UNL     1     -22.391 -40.410  27.630  0.00  0.00    -0.287 OA
ENDROOT
BRANCH   1  10
ATOM      9  O   UNL     1     -24.301 -42.356  27.831  0.00  0.00    -0.443 OA
ATOM     10  C   UNL     1     -24.346 -41.989  26.497  0.00  0.00    +0.189 C 
ATOM     11  C   UNL     1     -25.257 -42.823  25.672  0.00  0.00    +0.075 C 
ATOM     12  C   UNL     1     -26.329 -43.538  26.389  0.00  0.00    -0.015 C 
ATOM     13  C   UNL     1     -26.354 -43.627  27.692  0.00  0.00    +0.077 C 
ATOM     14  C   UNL     1     -25.320 -43.023  28.495  0.00  0.00    +0.341 C 
ATOM     15  O   UNL     1     -25.316 -43.085  29.767  0.00  0.00    -0.245 OA
BRANCH  10  16
ATOM     16  C   UNL     1     -24.959 -40.564  26.560  0.00  0.00    +0.098 C 
ATOM     17  C   UNL     1     -24.979 -39.839  25.459  0.00  0.00    +0.007 C 
BRANCH  16  18
ATOM     18  P   UNL     1     -25.561 -39.890  28.073  0.00  0.00    +0.359 P 
ATOM     19  O   UNL     1     -25.706 -38.375  27.934  0.00  0.00    -0.254 OA
BRANCH  18  20
ATOM     20  O   UNL     1     -27.009 -40.565  28.606  0.00  0.00    -0.321 OA
ATOM     21  H   UNL     1     -26.906 -41.526  28.691  0.00  0.00    +0.220 HD
ENDBRANCH  18  20
BRANCH  18  22
ATOM     22  O   UNL     1     -24.403 -40.092  29.324  0.00  0.00    -0.321 OA
ATOM     23  H   UNL     1     -24.253 -41.038  29.476  0.00  0.00    +0.220 HD
ENDBRANCH  18  22
ENDBRANCH  16  18
ENDBRANCH  10  16
ENDBRANCH   1  10
BRANCH   2  24
ATOM     24  N   UNL     1     -23.599 -42.932  23.714  0.00  0.00    -0.219 N 
ATOM     25  C   UNL     1     -24.618 -42.441  22.939  0.00  0.00    +0.308 C 
ATOM     26  O   UNL     1     -24.639 -41.226  22.539  0.00  0.00    -0.252 OA
ATOM     27  N   UNL     1     -25.733 -43.259  22.521  0.00  0.00    -0.313 N 
ATOM     28  H   UNL     1     -25.780 -44.204  22.794  0.00  0.00    +0.147 HD
ATOM     29  H   UNL     1     -26.446 -42.872  21.964  0.00  0.00    +0.147 HD
BRANCH  24  30
ATOM     30  C   UNL     1     -23.485 -44.399  23.691  0.00  0.00    +0.060 C 
ATOM     31  C   UNL     1     -24.274 -45.140  24.531  0.00  0.00    +0.021 C 
ATOM     32  C   UNL     1     -24.191 -46.517  24.557  0.00  0.00    +0.027 C 
ATOM     33  C   UNL     1     -23.330 -47.198  23.756  0.00  0.00    -0.016 C 
ATOM     34  C   UNL     1     -22.520 -46.444  22.893  0.00  0.00    -0.002 C 
ATOM     35  C   UNL     1     -22.604 -45.049  22.868  0.00  0.00    +0.015 C 
ATOM     36  C   UNL     1     -23.029 -48.606  23.568  0.00  0.00    +0.032 C 
ATOM     37  C   UNL     1     -24.056 -49.608  23.892  0.00  0.00    +0.032 C 
ATOM     38  C   UNL     1     -24.354 -49.790  25.324  0.00  0.00    -0.016 C 
ATOM     39  C   UNL     1     -24.880 -48.860  26.191  0.00  0.00    +0.025 C 
ATOM     40  C   UNL     1     -25.128 -49.114  27.505  0.00  0.00    +0.006 C 
ATOM     41  C   UNL     1     -24.840 -50.370  28.022  0.00  0.00    +0.000 C 
ATOM     42  C   UNL     1     -24.311 -51.295  27.145  0.00  0.00    -0.000 C 
ATOM     43  C   UNL     1     -24.061 -51.039  25.816  0.00  0.00    -0.004 C 
ATOM     44  S   UNL     1     -25.325 -47.170  25.743  0.00  0.00    -0.088 S 
ENDBRANCH  24  30
ENDBRANCH   2  24
TORSDOF 7
