REMARK  Name = =
REMARK  4 active torsions:
REMARK  status: ('A' for Active; 'I' for Inactive)
REMARK    1  A    between atoms: C_7  and  N_11
REMARK    2  A    between atoms: N_11  and  C_13
REMARK    3  A    between atoms: C_13  and  O_15
REMARK    4  A    between atoms: O_15  and  S_16
REMARK                            x       y       z     vdW  Elec       q    Type
REMARK                         _______ _______ _______ _____ _____    ______ ____
ROOT
ATOM      1  C   UNL     1     -12.942 -44.152  29.362  0.00  0.00    +0.136 C 
ATOM      2  C   UNL     1     -11.704 -44.044  29.963  0.00  0.00    +0.026 C 
ATOM      3  C   UNL     1     -11.468 -44.869  31.178  0.00  0.00    +0.035 C 
ATOM      4  C   UNL     1     -12.769 -44.806  31.989  0.00  0.00    +0.052 C 
ATOM      5  C   UNL     1     -13.815 -45.540  31.189  0.00  0.00    +0.206 C 
ATOM      6  O   UNL     1     -13.932 -45.001  29.873  0.00  0.00    -0.476 OA
ATOM      7  C   UNL     1     -10.743 -43.207  29.450  0.00  0.00    +0.053 C 
ATOM      8  C   UNL     1     -11.039 -42.478  28.325  0.00  0.00    +0.015 C 
ATOM      9  C   UNL     1     -12.262 -42.549  27.682  0.00  0.00    +0.004 C 
ATOM     10  C   UNL     1     -13.199 -43.407  28.239  0.00  0.00    +0.037 C 
ENDROOT
BRANCH   7  11
ATOM     11  N   UNL     1      -9.489 -43.128  30.099  0.00  0.00    -0.251 N 
ATOM     12  C   UNL     1      -8.284 -43.261  29.286  0.00  0.00    +0.121 C 
BRANCH  11  13
ATOM     13  C   UNL     1      -9.330 -42.930  31.483  0.00  0.00    +0.251 C 
ATOM     14  S   UNL     1     -10.342 -41.930  32.329  0.00  0.00    +0.007 S 
BRANCH  13  15
ATOM     15  O   UNL     1      -8.319 -43.568  32.168  0.00  0.00    -0.388 OA
BRANCH  15  16
ATOM     16  S   UNL     1      -6.733 -42.912  32.232  0.00  0.00    +0.128 S 
ATOM     17  O   UNL     1      -6.211 -42.958  33.641  0.00  0.00    -0.124 OA
ATOM     18  H   UNL     1      -6.763 -41.621  31.805  0.00  0.00    +0.168 HD
ENDBRANCH  15  16
ENDBRANCH  13  15
ENDBRANCH  11  13
ENDBRANCH   7  11
TORSDOF 4
