REMARK  Name = =
REMARK  10 active torsions:
REMARK  status: ('A' for Active; 'I' for Inactive)
REMARK    1  A    between atoms: N_1  and  C_8
REMARK    2  A    between atoms: N_1  and  C_12
REMARK    3  A    between atoms: N_1  and  C_17
REMARK    4  A    between atoms: C_12  and  O_14
REMARK    5  A    between atoms: O_14  and  S_15
REMARK    6  A    between atoms: C_17  and  C_18
REMARK    7  A    between atoms: C_18  and  O_21
REMARK    8  A    between atoms: N_19  and  O_20
REMARK    9  A    between atoms: O_21  and  N_22
REMARK   10  A    between atoms: N_22  and  N_23
REMARK                            x       y       z     vdW  Elec       q    Type
REMARK                         _______ _______ _______ _____ _____    ______ ____
ROOT
ATOM      1  N   UNL     1     -10.384 -43.726  31.608  0.00  0.00    -0.243 N 
ENDROOT
BRANCH   1   8
ATOM      2  C   UNL     1     -13.165 -44.339  29.177  0.00  0.00    +0.136 C 
ATOM      3  C   UNL     1     -11.975 -43.898  29.724  0.00  0.00    +0.026 C 
ATOM      4  C   UNL     1     -11.093 -43.109  28.849  0.00  0.00    +0.035 C 
ATOM      5  C   UNL     1     -11.946 -42.279  27.911  0.00  0.00    +0.052 C 
ATOM      6  C   UNL     1     -12.717 -43.244  27.030  0.00  0.00    +0.206 C 
ATOM      7  O   UNL     1     -13.522 -44.020  27.886  0.00  0.00    -0.476 OA
ATOM      8  C   UNL     1     -11.569 -44.188  31.014  0.00  0.00    +0.054 C 
ATOM      9  C   UNL     1     -12.484 -44.983  31.731  0.00  0.00    +0.015 C 
ATOM     10  C   UNL     1     -13.656 -45.422  31.204  0.00  0.00    +0.004 C 
ATOM     11  C   UNL     1     -14.017 -45.112  29.930  0.00  0.00    +0.037 C 
ENDBRANCH   1   8
BRANCH   1  12
ATOM     12  C   UNL     1      -9.265 -44.580  31.704  0.00  0.00    +0.251 C 
ATOM     13  S   UNL     1      -9.183 -45.864  30.704  0.00  0.00    +0.007 S 
BRANCH  12  14
ATOM     14  O   UNL     1      -8.228 -44.389  32.600  0.00  0.00    -0.388 OA
BRANCH  14  15
ATOM     15  S   UNL     1      -7.353 -42.965  32.851  0.00  0.00    +0.128 S 
ATOM     16  O   UNL     1      -5.965 -43.013  32.183  0.00  0.00    -0.124 OA
ATOM     17  H   UNL     1      -7.190 -42.780  34.188  0.00  0.00    +0.168 HD
ENDBRANCH  14  15
ENDBRANCH  12  14
ENDBRANCH   1  12
BRANCH   1  18
ATOM     18  C   UNL     1     -10.230 -42.395  32.115  0.00  0.00    +0.189 C 
BRANCH  18  19
ATOM     19  C   UNL     1     -11.322 -41.842  32.899  0.00  0.00    +0.281 C 
ATOM     20  N   UNL     1     -11.059 -41.286  34.033  0.00  0.00    -0.048 NA
BRANCH  20  21
ATOM     21  O   UNL     1      -9.760 -41.238  34.456  0.00  0.00    -0.407 OA
ATOM     22  H   UNL     1      -9.549 -40.838  35.277  0.00  0.00    +0.328 HD
ENDBRANCH  20  21
BRANCH  19  23
ATOM     23  O   UNL     1     -12.675 -41.839  32.564  0.00  0.00    -0.368 OA
BRANCH  23  24
ATOM     24  N   UNL     1     -13.606 -41.051  33.185  0.00  0.00    -0.068 NA
ATOM     25  H   UNL     1     -14.446 -41.028  32.607  0.00  0.00    +0.191 HD
BRANCH  24  26
ATOM     26  N   UNL     1     -13.954 -41.493  34.439  0.00  0.00    -0.211 N 
ATOM     27  C   UNL     1     -14.649 -40.647  35.338  0.00  0.00    +0.316 C 
ATOM     28  O   UNL     1     -14.939 -39.472  34.947  0.00  0.00    -0.264 OA
ATOM     29  H   UNL     1     -13.718 -42.408  34.716  0.00  0.00    +0.173 HD
ENDBRANCH  24  26
ENDBRANCH  23  24
ENDBRANCH  19  23
ENDBRANCH  18  19
ENDBRANCH   1  18
TORSDOF 10
