MODEL 1
REMARK VINA RESULT:    -5.308      0.000      0.000
REMARK INTER + INTRA:          -6.280
REMARK INTER:                  -6.239
REMARK INTRA:                  -0.041
REMARK UNBOUND:                -0.041
REMARK  Name = =
REMARK  4 active torsions:
REMARK  status: ('A' for Active; 'I' for Inactive)
REMARK    1  A    between atoms: C_11  and  S_12
REMARK    2  A    between atoms: S_12  and  S_14
REMARK    3  A    between atoms: S_14  and  S_15
REMARK    4  A    between atoms: S_14  and  S_16
REMARK                            x       y       z     vdW  Elec       q    Type
REMARK                         _______ _______ _______ _____ _____    ______ ____
ROOT
ATOM      1  C   UNL     1      49.733 163.700  41.594  0.00  0.00    +0.062 C 
ATOM      2  C   UNL     1      50.210 162.434  41.776  0.00  0.00    -0.007 C 
ATOM      3  C   UNL     1      49.357 161.255  41.971  0.00  0.00    +0.029 C 
ATOM      4  C   UNL     1      47.896 161.497  41.913  0.00  0.00    +0.027 C 
ATOM      5  C   UNL     1      47.492 162.918  42.213  0.00  0.00    +0.103 C 
ATOM      6  N   UNL     1      48.331 163.890  41.591  0.00  0.00    -0.255 N 
ATOM      7 BR   UNL     1      47.674 165.461  40.735  0.00  0.00    +0.038 Br
ATOM      8  C   UNL     1      51.578 162.226  41.782  0.00  0.00    -0.003 C 
ATOM      9  C   UNL     1      52.430 163.273  41.608  0.00  0.00    +0.000 C 
ATOM     10  C   UNL     1      51.950 164.550  41.423  0.00  0.00    +0.011 C 
ATOM     11  C   UNL     1      50.569 164.784  41.415  0.00  0.00    +0.080 C 
ENDROOT
BRANCH  11  12
ATOM     12  S   UNL     1      49.985 166.346  41.202  0.00  0.00    +0.113 S 
ATOM     13  O   UNL     1      50.600 166.926  40.051  0.00  0.00    -0.241 OA
BRANCH  12  14
ATOM     14  S   UNL     1      50.017 167.420  42.698  0.00  0.00    -0.078 S 
ATOM     15  H   UNL     1      49.768 166.448  43.615  0.00  0.00    +0.116 HD
BRANCH  14  16
ATOM     16  S   UNL     1      48.957 168.750  42.595  0.00  0.00    -0.111 S 
ATOM     17  H   UNL     1      49.558 169.756  41.904  0.00  0.00    +0.114 HD
ENDBRANCH  14  16
BRANCH  14  18
ATOM     18  S   UNL     1      51.239 168.207  42.971  0.00  0.00    -0.111 S 
ATOM     19  H   UNL     1      51.842 167.731  44.094  0.00  0.00    +0.114 HD
ENDBRANCH  14  18
ENDBRANCH  12  14
ENDBRANCH  11  12
TORSDOF 4
ENDMDL
