REMARK  Name = =
REMARK  4 active torsions:
REMARK  status: ('A' for Active; 'I' for Inactive)
REMARK    1  A    between atoms: C_11  and  S_12
REMARK    2  A    between atoms: S_12  and  S_14
REMARK    3  A    between atoms: S_14  and  S_15
REMARK    4  A    between atoms: S_14  and  S_16
REMARK                            x       y       z     vdW  Elec       q    Type
REMARK                         _______ _______ _______ _____ _____    ______ ____
ROOT
ATOM      1  C   UNL     1      52.753 155.089  27.041  0.00  0.00    +0.062 C 
ATOM      2  C   UNL     1      52.033 155.066  28.201  0.00  0.00    -0.007 C 
ATOM      3  C   UNL     1      51.829 156.237  29.063  0.00  0.00    +0.029 C 
ATOM      4  C   UNL     1      52.421 157.507  28.581  0.00  0.00    +0.027 C 
ATOM      5  C   UNL     1      53.567 157.329  27.619  0.00  0.00    +0.103 C 
ATOM      6  N   UNL     1      53.337 156.315  26.643  0.00  0.00    -0.255 N 
ATOM      7 BR   UNL     1      53.773 156.505  24.797  0.00  0.00    +0.038 Br
ATOM      8  C   UNL     1      51.452 153.878  28.608  0.00  0.00    -0.003 C 
ATOM      9  C   UNL     1      51.600 152.752  27.858  0.00  0.00    +0.000 C 
ATOM     10  C   UNL     1      52.325 152.774  26.688  0.00  0.00    +0.011 C 
ATOM     11  C   UNL     1      52.923 153.965  26.257  0.00  0.00    +0.080 C 
ENDROOT
BRANCH  11  12
ATOM     12  S   UNL     1      53.818 153.987  24.834  0.00  0.00    +0.113 S 
ATOM     13  O   UNL     1      52.941 154.214  23.730  0.00  0.00    -0.241 OA
BRANCH  12  14
ATOM     14  S   UNL     1      54.978 152.576  24.600  0.00  0.00    -0.078 S 
ATOM     15  H   UNL     1      55.445 152.937  23.375  0.00  0.00    +0.116 HD
BRANCH  14  16
ATOM     16  S   UNL     1      54.234 151.055  24.785  0.00  0.00    -0.111 S 
ATOM     17  H   UNL     1      53.843 150.896  26.078  0.00  0.00    +0.114 HD
ENDBRANCH  14  16
BRANCH  14  18
ATOM     18  S   UNL     1      56.037 152.363  25.609  0.00  0.00    -0.111 S 
ATOM     19  H   UNL     1      55.470 152.007  26.793  0.00  0.00    +0.114 HD
ENDBRANCH  14  18
ENDBRANCH  12  14
ENDBRANCH  11  12
TORSDOF 4
