REMARK  Name = =
REMARK  0 active torsions:
REMARK  status: ('A' for Active; 'I' for Inactive)
REMARK                            x       y       z     vdW  Elec       q    Type
REMARK                         _______ _______ _______ _____ _____    ______ ____
ROOT
ATOM      1  O   UNL     1      -4.150  -4.395  32.682  0.00  0.00    -0.421 OA
ATOM      2  C   UNL     1      -3.869  -5.729  32.923  0.00  0.00    +0.346 C 
ATOM      3  O   UNL     1      -3.963  -6.343  34.012  0.00  0.00    -0.244 OA
ATOM      4  C   UNL     1      -3.434  -6.338  31.682  0.00  0.00    +0.085 C 
ATOM      5  C   UNL     1      -3.441  -5.434  30.717  0.00  0.00    +0.044 C 
ATOM      6  C   UNL     1      -3.897  -4.166  31.317  0.00  0.00    +0.149 C 
ATOM      7  C   UNL     1      -4.042  -3.032  30.697  0.00  0.00    +0.041 C 
ENDROOT
TORSDOF 0
