REMARK  Name = =
REMARK  1 active torsions:
REMARK  status: ('A' for Active; 'I' for Inactive)
REMARK    1  A    between atoms: C_4  and  S_8
REMARK                            x       y       z     vdW  Elec       q    Type
REMARK                         _______ _______ _______ _____ _____    ______ ____
ROOT
ATOM      1  O   UNL     1      -4.662  -4.566  32.518  0.00  0.00    -0.421 OA
ATOM      2  C   UNL     1      -4.017  -5.772  32.636  0.00  0.00    +0.351 C 
ATOM      3  O   UNL     1      -4.190  -6.561  33.626  0.00  0.00    -0.244 OA
ATOM      4  C   UNL     1      -3.142  -6.001  31.500  0.00  0.00    +0.103 C 
ATOM      5  C   UNL     1      -3.292  -4.921  30.737  0.00  0.00    +0.050 C 
ATOM      6  C   UNL     1      -4.235  -3.988  31.329  0.00  0.00    +0.150 C 
ATOM      7  C   UNL     1      -4.630  -2.808  30.855  0.00  0.00    +0.041 C 
ENDROOT
BRANCH   4   8
ATOM      8  S   UNL     1      -2.151  -7.322  31.205  0.00  0.00    -0.105 S 
ATOM      9  C   UNL     1      -2.496  -8.725  30.255  0.00  0.00    +0.030 C 
ATOM     10  C   UNL     1      -1.418  -8.977  29.549  0.00  0.00    +0.007 C 
ATOM     11  C   UNL     1      -0.330  -8.094  29.742  0.00  0.00    +0.007 C 
ATOM     12  C   UNL     1      -0.451  -7.114  30.574  0.00  0.00    +0.030 C 
ENDBRANCH   4   8
TORSDOF 1
REMARK  Name = =
REMARK  1 active torsions:
REMARK  status: ('A' for Active; 'I' for Inactive)
REMARK    1  A    between atoms: C_4  and  S_8
REMARK                            x       y       z     vdW  Elec       q    Type
REMARK                         _______ _______ _______ _____ _____    ______ ____
ROOT
ATOM      1  H   UNK     1      -1.766  -8.118  32.875  0.00  0.00    +0.000 HD
ENDROOT
TORSDOF 0
