REMARK  Name = =
REMARK  3 active torsions:
REMARK  status: ('A' for Active; 'I' for Inactive)
REMARK    1  A    between atoms: S_1  and  C_9
REMARK    2  A    between atoms: C_4  and  C_13
REMARK    3  A    between atoms: C_13  and  C_15
REMARK                            x       y       z     vdW  Elec       q    Type
REMARK                         _______ _______ _______ _____ _____    ______ ____
ROOT
ATOM      1  S   UNL     1      -3.535  -3.862  29.721  0.00  0.00    -0.163 S 
ATOM      2  C   UNL     1      -1.824  -3.992  29.077  0.00  0.00    +0.018 C 
ATOM      3  C   UNL     1      -1.345  -5.041  29.637  0.00  0.00    +0.004 C 
ATOM      4  C   UNL     1      -2.160  -5.801  30.543  0.00  0.00    +0.017 C 
ATOM      5  C   UNL     1      -3.372  -5.386  30.759  0.00  0.00    +0.016 C 
ATOM      6  H   UNL     1      -4.535  -3.781  28.803  0.00  0.00    +0.097 HD
ENDROOT
BRANCH   1  10
ATOM      7  O   UNL     1      -4.455  -0.854  32.187  0.00  0.00    -0.421 OA
ATOM      8  C   UNL     1      -4.011  -2.151  31.992  0.00  0.00    +0.351 C 
ATOM      9  O   UNL     1      -3.681  -2.950  32.897  0.00  0.00    -0.244 OA
ATOM     10  C   UNL     1      -3.996  -2.420  30.559  0.00  0.00    +0.092 C 
ATOM     11  C   UNL     1      -4.410  -1.327  29.980  0.00  0.00    +0.049 C 
ATOM     12  C   UNL     1      -4.724  -0.279  30.948  0.00  0.00    +0.150 C 
ATOM     13  C   UNL     1      -5.164   0.939  30.720  0.00  0.00    +0.041 C 
ENDBRANCH   1  10
BRANCH   4  14
ATOM     14  C   UNL     1      -1.641  -7.082  31.127  0.00  0.00    +0.197 C 
ATOM     15  O   UNL     1      -0.600  -7.627  30.570  0.00  0.00    -0.213 OA
BRANCH  14  16
ATOM     16  C   UNL     1      -2.161  -7.792  32.237  0.00  0.00    +0.012 C 
ATOM     17  C   UNL     1      -2.685  -9.082  32.062  0.00  0.00    -0.002 C 
ATOM     18  C   UNL     1      -3.123  -9.858  33.101  0.00  0.00    -0.000 C 
ATOM     19  C   UNL     1      -3.067  -9.400  34.389  0.00  0.00    -0.000 C 
ATOM     20  C   UNL     1      -2.560  -8.147  34.611  0.00  0.00    -0.000 C 
ATOM     21  C   UNL     1      -2.113  -7.362  33.529  0.00  0.00    -0.002 C 
ENDBRANCH  14  16
ENDBRANCH   4  14
TORSDOF 3
