REMARK  Name = =
REMARK  4 active torsions:
REMARK  status: ('A' for Active; 'I' for Inactive)
REMARK    1  A    between atoms: S_1  and  C_17
REMARK    2  A    between atoms: C_4  and  C_21
REMARK    3  A    between atoms: C_5  and  N_6
REMARK    4  A    between atoms: C_21  and  C_23
REMARK                            x       y       z     vdW  Elec       q    Type
REMARK                         _______ _______ _______ _____ _____    ______ ____
ROOT
ATOM      1  S   UNL     1       2.590  -6.343  20.883  0.00  0.00    -0.178 S 
ATOM      2  C   UNL     1       2.379  -6.125  22.728  0.00  0.00    +0.068 C 
ATOM      3  C   UNL     1       3.050  -5.060  22.980  0.00  0.00    -0.015 C 
ATOM      4  C   UNL     1       3.741  -4.351  21.942  0.00  0.00    +0.041 C 
ATOM      5  C   UNL     1       3.685  -4.814  20.746  0.00  0.00    +0.142 C 
ATOM      6  H   UNL     1       3.049  -7.534  20.415  0.00  0.00    +0.090 HD
ENDROOT
BRANCH   5   7
ATOM      7  N   UNL     1       4.342  -4.597  19.541  0.00  0.00    -0.217 N 
ATOM      8  C   UNL     1       3.896  -3.881  18.409  0.00  0.00    +0.250 C 
ATOM      9  O   UNL     1       3.414  -2.731  18.542  0.00  0.00    -0.273 OA
ATOM     10  C   UNL     1       3.993  -4.466  17.043  0.00  0.00    +0.175 C 
ATOM     11  N   UNL     1       5.306  -5.051  16.849  0.00  0.00    -0.199 NA
ATOM     12  C   UNL     1       5.846  -5.768  17.940  0.00  0.00    +0.175 C 
ATOM     13  C   UNL     1       5.657  -5.213  19.294  0.00  0.00    +0.250 C 
ATOM     14  O   UNL     1       6.514  -5.233  20.213  0.00  0.00    -0.273 OA
ENDBRANCH   5   7
BRANCH   1  18
ATOM     15  O   UNL     1      -0.871  -6.993  18.980  0.00  0.00    -0.421 OA
ATOM     16  C   UNL     1       0.228  -7.370  19.715  0.00  0.00    +0.350 C 
ATOM     17  O   UNL     1       0.431  -8.565  20.118  0.00  0.00    -0.244 OA
ATOM     18  C   UNL     1       1.115  -6.241  19.967  0.00  0.00    +0.087 C 
ATOM     19  C   UNL     1       0.539  -5.216  19.385  0.00  0.00    +0.049 C 
ATOM     20  C   UNL     1      -0.716  -5.619  18.744  0.00  0.00    +0.150 C 
ATOM     21  C   UNL     1      -1.570  -4.895  18.071  0.00  0.00    +0.041 C 
ENDBRANCH   1  18
BRANCH   4  22
ATOM     22  C   UNL     1       4.293  -2.998  22.230  0.00  0.00    +0.194 C 
ATOM     23  O   UNL     1       5.529  -2.825  22.339  0.00  0.00    -0.287 OA
BRANCH  22  24
ATOM     24  C   UNL     1       3.517  -1.784  22.410  0.00  0.00    +0.039 C 
ATOM     25  C   UNL     1       2.604  -1.396  21.431  0.00  0.00    +0.003 C 
ATOM     26  C   UNL     1       1.774  -0.329  21.614  0.00  0.00    +0.000 C 
ATOM     27  C   UNL     1       1.787   0.427  22.774  0.00  0.00    +0.000 C 
ATOM     28  C   UNL     1       2.671   0.064  23.749  0.00  0.00    +0.000 C 
ATOM     29  C   UNL     1       3.517  -1.036  23.547  0.00  0.00    +0.003 C 
ENDBRANCH  22  24
ENDBRANCH   4  22
TORSDOF 4
