REMARK  Name = =
REMARK  0 active torsions:
REMARK  status: ('A' for Active; 'I' for Inactive)
REMARK                            x       y       z     vdW  Elec       q    Type
REMARK                         _______ _______ _______ _____ _____    ______ ____
ROOT
ATOM      1  C   UNL     1      -3.790  -3.643  30.734  0.00  0.00    +0.235 C 
ATOM      2  N   UNL     1      -3.525  -2.483  31.195  0.00  0.00    -0.186 NA
ATOM      3  C   UNL     1      -4.763  -1.792  31.404  0.00  0.00    +0.123 C 
ATOM      4  C   UNL     1      -5.739  -2.927  31.588  0.00  0.00    +0.163 C 
ATOM      5  O   UNL     1      -5.183  -3.826  30.601  0.00  0.00    -0.335 OA
ENDROOT
TORSDOF 0
