REMARK  Name = =
REMARK  0 active torsions:
REMARK  status: ('A' for Active; 'I' for Inactive)
REMARK                            x       y       z     vdW  Elec       q    Type
REMARK                         _______ _______ _______ _____ _____    ______ ____
ROOT
ATOM      1  C   UNL     1      -3.542  -4.250  31.673  0.00  0.00    +0.027 C 
ATOM      2  C   UNL     1      -5.004  -4.029  32.001  0.00  0.00    +0.013 C 
ATOM      3  C   UNL     1      -5.253  -2.535  32.007  0.00  0.00    +0.069 C 
ATOM      4  C   UNL     1      -4.491  -1.879  30.884  0.00  0.00    +0.173 C 
ATOM      5  O   UNL     1      -4.398  -0.639  30.794  0.00  0.00    -0.291 OA
ATOM      6  C   UNL     1      -3.847  -2.726  29.880  0.00  0.00    +0.033 C 
ATOM      7  C   UNL     1      -3.366  -3.908  30.238  0.00  0.00    -0.023 C 
ENDROOT
TORSDOF 0
