REMARK  Name = =
REMARK  2 active torsions:
REMARK  status: ('A' for Active; 'I' for Inactive)
REMARK    1  A    between atoms: C_1  and  C_14
REMARK    2  A    between atoms: C_9  and  O_16
REMARK                            x       y       z     vdW  Elec       q    Type
REMARK                         _______ _______ _______ _____ _____    ______ ____
ROOT
ATOM      1  C   UNL     1      -7.057  -0.606  32.139  0.00  0.00    +0.051 C 
ATOM      2  C   UNL     1      -8.368  -1.368  32.112  0.00  0.00    +0.007 C 
ATOM      3  C   UNL     1      -8.471  -2.285  33.308  0.00  0.00    +0.005 C 
ATOM      4  C   UNL     1      -7.348  -3.259  33.327  0.00  0.00    +0.026 C 
ATOM      5  C   UNL     1      -6.157  -2.856  32.545  0.00  0.00    -0.023 C 
ATOM      6  C   UNL     1      -5.990  -1.608  31.972  0.00  0.00    -0.024 C 
ATOM      7  C   UNL     1      -4.826  -1.388  31.275  0.00  0.00    -0.001 C 
ATOM      8  C   UNL     1      -3.865  -2.366  31.153  0.00  0.00    +0.036 C 
ATOM      9  C   UNL     1      -4.028  -3.619  31.726  0.00  0.00    +0.133 C 
ATOM     10  C   UNL     1      -5.174  -3.845  32.416  0.00  0.00    +0.032 C 
ENDROOT
BRANCH   1  14
ATOM     11  C   UNL     1      -7.127   2.649  30.753  0.00  0.00    +0.235 C 
ATOM     12  N   UNL     1      -8.333   2.283  30.530  0.00  0.00    -0.186 NA
ATOM     13  C   UNL     1      -8.571   0.919  31.002  0.00  0.00    +0.121 C 
ATOM     14  C   UNL     1      -7.116   0.425  31.054  0.00  0.00    +0.138 C 
ATOM     15  O   UNL     1      -6.468   1.616  31.367  0.00  0.00    -0.337 OA
ENDBRANCH   1  14
BRANCH   9  16
ATOM     16  O   UNL     1      -3.050  -4.607  31.600  0.00  0.00    -0.506 OA
ATOM     17  H   UNL     1      -2.265  -4.431  31.119  0.00  0.00    +0.292 HD
ENDBRANCH   9  16
TORSDOF 2
