REMARK  Name = =
REMARK  9 active torsions:
REMARK  status: ('A' for Active; 'I' for Inactive)
REMARK    1  A    between atoms: C_1  and  O_22
REMARK    2  A    between atoms: C_2  and  O_21
REMARK    3  A    between atoms: C_4  and  C_7
REMARK    4  A    between atoms: C_8  and  O_20
REMARK    5  A    between atoms: C_12  and  O_19
REMARK    6  A    between atoms: C_14  and  O_18
REMARK    7  A    between atoms: O_22  and  C_24
REMARK    8  A    between atoms: C_23  and  C_36
REMARK    9  A    between atoms: C_31  and  O_38
REMARK                            x       y       z     vdW  Elec       q    Type
REMARK                         _______ _______ _______ _____ _____    ______ ____
ROOT
ATOM      1  C   UNL     1      -2.984  -3.985  29.815  0.00  0.00    +0.172 C 
ATOM      2  C   UNL     1      -2.067  -3.395  28.978  0.00  0.00    +0.168 C 
ATOM      3  C   UNL     1      -1.065  -4.146  28.354  0.00  0.00    +0.043 C 
ATOM      4  C   UNL     1      -0.950  -5.509  28.548  0.00  0.00    +0.041 C 
ATOM      5  C   UNL     1      -1.877  -6.078  29.390  0.00  0.00    +0.006 C 
ATOM      6  C   UNL     1      -2.862  -5.390  30.013  0.00  0.00    +0.040 C 
ENDROOT
BRANCH   4   7
ATOM      7  C   UNL     1       0.099  -6.237  27.881  0.00  0.00    +0.182 A 
ATOM      8  C   UNL     1       0.076  -7.553  27.594  0.00  0.00    +0.208 A 
ATOM      9  C   UNL     1       1.162  -8.145  26.941  0.00  0.00    +0.238 A 
ATOM     10  O   UNL     1       1.131  -9.364  26.679  0.00  0.00    -0.283 OA
ATOM     11  C   UNL     1       2.250  -7.382  26.593  0.00  0.00    +0.110 A 
ATOM     12  C   UNL     1       3.333  -7.940  25.948  0.00  0.00    +0.143 C 
ATOM     13  C   UNL     1       4.397  -7.144  25.619  0.00  0.00    +0.073 C 
ATOM     14  C   UNL     1       4.372  -5.784  25.939  0.00  0.00    +0.140 C 
ATOM     15  C   UNL     1       3.270  -5.262  26.585  0.00  0.00    +0.074 C 
ATOM     16  C   UNL     1       2.189  -6.051  26.923  0.00  0.00    +0.155 A 
ATOM     17  O   UNL     1       1.175  -5.516  27.530  0.00  0.00    -0.450 OA
BRANCH  14  18
ATOM     18  O   UNL     1       5.424  -4.961  25.623  0.00  0.00    -0.505 OA
ATOM     19  H   UNL     1       6.175  -5.309  25.184  0.00  0.00    +0.292 HD
ENDBRANCH  14  18
BRANCH  12  20
ATOM     20  O   UNL     1       3.335  -9.300  25.640  0.00  0.00    -0.505 OA
ATOM     21  H   UNL     1       2.600  -9.834  25.871  0.00  0.00    +0.292 HD
ENDBRANCH  12  20
BRANCH   8  22
ATOM     22  O   UNL     1      -0.982  -8.364  27.917  0.00  0.00    -0.501 OA
ATOM     23  H   UNL     1      -1.729  -8.007  28.355  0.00  0.00    +0.292 HD
ENDBRANCH   8  22
ENDBRANCH   4   7
BRANCH   2  24
ATOM     24  O   UNL     1      -2.088  -2.034  28.721  0.00  0.00    -0.503 OA
ATOM     25  H   UNL     1      -2.742  -1.492  29.118  0.00  0.00    +0.292 HD
ENDBRANCH   2  24
BRANCH   1  26
ATOM     26  O   UNL     1      -3.984  -3.373  30.464  0.00  0.00    -0.476 OA
BRANCH  26  28
ATOM     27  C   UNL     1      -5.983  -2.603  31.381  0.00  0.00    +0.091 C 
ATOM     28  C   UNL     1      -4.687  -2.265  30.678  0.00  0.00    +0.173 C 
ATOM     29  C   UNL     1      -3.909  -1.128  31.328  0.00  0.00    +0.049 C 
ATOM     30  C   UNL     1      -4.753   0.090  31.382  0.00  0.00    +0.030 C 
ATOM     31  C   UNL     1      -6.214  -0.145  31.395  0.00  0.00    -0.023 C 
ATOM     32  C   UNL     1      -6.800  -1.384  31.395  0.00  0.00    -0.020 C 
ATOM     33  C   UNL     1      -8.171  -1.465  31.407  0.00  0.00    -0.001 C 
ATOM     34  C   UNL     1      -8.962  -0.307  31.419  0.00  0.00    +0.036 C 
ATOM     35  C   UNL     1      -8.363   0.916  31.419  0.00  0.00    +0.133 C 
ATOM     36  C   UNL     1      -7.001   1.017  31.406  0.00  0.00    +0.032 C 
BRANCH  27  40
ATOM     37  C   UNL     1      -4.055  -4.437  33.364  0.00  0.00    +0.235 C 
ATOM     38  N   UNL     1      -4.040  -3.362  34.045  0.00  0.00    -0.186 NA
ATOM     39  C   UNL     1      -5.235  -2.582  33.819  0.00  0.00    +0.121 C 
ATOM     40  C   UNL     1      -5.886  -3.283  32.691  0.00  0.00    +0.142 C 
ATOM     41  O   UNL     1      -5.206  -4.529  32.617  0.00  0.00    -0.337 OA
ENDBRANCH  27  40
BRANCH  35  42
ATOM     42  O   UNL     1      -9.113   2.107  31.431  0.00  0.00    -0.506 OA
ATOM     43  H   UNL     1     -10.049   2.071  31.440  0.00  0.00    +0.292 HD
ENDBRANCH  35  42
ENDBRANCH  26  28
ENDBRANCH   1  26
TORSDOF 9
