REMARK  Name = =
REMARK  11 active torsions:
REMARK  status: ('A' for Active; 'I' for Inactive)
REMARK    1  A    between atoms: O_1  and  C_3
REMARK    2  A    between atoms: O_1  and  C_23
REMARK    3  A    between atoms: C_2  and  C_15
REMARK    4  A    between atoms: C_10  and  O_22
REMARK    5  A    between atoms: C_14  and  C_17
REMARK    6  A    between atoms: C_17  and  C_19
REMARK    7  A    between atoms: C_24  and  O_43
REMARK    8  A    between atoms: C_26  and  C_29
REMARK    9  A    between atoms: C_30  and  O_42
REMARK   10  A    between atoms: C_34  and  O_41
REMARK   11  A    between atoms: C_36  and  O_40
REMARK                            x       y       z     vdW  Elec       q    Type
REMARK                         _______ _______ _______ _____ _____    ______ ____
ROOT
ATOM      1  O   UNL     1      -5.721  -2.132  31.616  0.00  0.00    -0.476 OA
ENDROOT
BRANCH   1   3
ATOM      2  C   UNL     1      -7.152  -0.522  30.662  0.00  0.00    +0.091 C 
ATOM      3  C   UNL     1      -6.189  -0.809  31.732  0.00  0.00    +0.173 C 
ATOM      4  C   UNL     1      -6.712  -0.689  33.152  0.00  0.00    +0.049 C 
ATOM      5  C   UNL     1      -8.065  -0.056  33.256  0.00  0.00    +0.030 C 
ATOM      6  C   UNL     1      -8.955  -0.788  32.303  0.00  0.00    -0.023 C 
ATOM      7  C   UNL     1      -8.499  -1.020  31.027  0.00  0.00    -0.020 C 
ATOM      8  C   UNL     1      -9.319  -1.703  30.128  0.00  0.00    -0.001 C 
ATOM      9  C   UNL     1     -10.574  -2.159  30.458  0.00  0.00    +0.036 C 
ATOM     10  C   UNL     1     -11.012  -1.912  31.754  0.00  0.00    +0.133 C 
ATOM     11  C   UNL     1     -10.205  -1.237  32.646  0.00  0.00    +0.032 C 
BRANCH   2  15
ATOM     12  C   UNL     1      -7.385   1.743  32.175  0.00  0.00    +0.235 C 
ATOM     13  N   UNL     1      -8.608   1.701  31.777  0.00  0.00    -0.179 NA
ATOM     14  C   UNL     1      -8.550   1.589  30.333  0.00  0.00    +0.169 C 
ATOM     15  C   UNL     1      -7.279   0.868  30.152  0.00  0.00    +0.148 C 
ATOM     16  O   UNL     1      -6.510   1.664  31.094  0.00  0.00    -0.337 OA
BRANCH  14  17
ATOM     17  C   UNL     1      -9.749   1.172  29.690  0.00  0.00    +0.244 C 
ATOM     18  O   UNL     1     -10.850   1.214  30.286  0.00  0.00    -0.285 OA
BRANCH  17  19
ATOM     19  C   UNL     1      -9.731   0.689  28.328  0.00  0.00    +0.279 C 
ATOM     20  O   UNL     1      -8.696   0.700  27.604  0.00  0.00    -0.267 OA
ATOM     21  N   UNL     1     -10.938   0.173  27.762  0.00  0.00    -0.323 N 
ATOM     22  H   UNL     1     -11.763   0.150  28.299  0.00  0.00    +0.145 HD
ATOM     23  H   UNL     1     -10.944  -0.159  26.835  0.00  0.00    +0.145 HD
ENDBRANCH  17  19
ENDBRANCH  14  17
ENDBRANCH   2  15
BRANCH  10  24
ATOM     24  O   UNL     1     -12.287  -2.360  32.132  0.00  0.00    -0.506 OA
ATOM     25  H   UNL     1     -12.825  -2.817  31.516  0.00  0.00    +0.292 HD
ENDBRANCH  10  24
ENDBRANCH   1   3
BRANCH   1  26
ATOM     26  C   UNL     1      -4.530  -2.583  31.141  0.00  0.00    +0.172 C 
ATOM     27  C   UNL     1      -4.037  -3.778  31.614  0.00  0.00    +0.168 C 
ATOM     28  C   UNL     1      -2.811  -4.256  31.134  0.00  0.00    +0.043 C 
ATOM     29  C   UNL     1      -2.041  -3.613  30.203  0.00  0.00    +0.041 C 
ATOM     30  C   UNL     1      -2.575  -2.399  29.747  0.00  0.00    +0.006 C 
ATOM     31  C   UNL     1      -3.769  -1.928  30.210  0.00  0.00    +0.040 C 
BRANCH  29  32
ATOM     32  C   UNL     1      -0.790  -4.092  29.669  0.00  0.00    +0.182 A 
ATOM     33  C   UNL     1      -0.064  -5.091  30.248  0.00  0.00    +0.208 A 
ATOM     34  C   UNL     1       1.158  -5.449  29.587  0.00  0.00    +0.238 A 
ATOM     35  O   UNL     1       1.882  -6.362  30.064  0.00  0.00    -0.283 OA
ATOM     36  C   UNL     1       1.525  -4.800  28.454  0.00  0.00    +0.110 A 
ATOM     37  C   UNL     1       2.691  -5.101  27.775  0.00  0.00    +0.143 C 
ATOM     38  C   UNL     1       3.067  -4.440  26.616  0.00  0.00    +0.073 C 
ATOM     39  C   UNL     1       2.271  -3.448  26.111  0.00  0.00    +0.140 C 
ATOM     40  C   UNL     1       1.113  -3.142  26.776  0.00  0.00    +0.074 C 
ATOM     41  C   UNL     1       0.721  -3.802  27.946  0.00  0.00    +0.155 A 
ATOM     42  O   UNL     1      -0.363  -3.522  28.579  0.00  0.00    -0.450 OA
BRANCH  39  43
ATOM     43  O   UNL     1       2.632  -2.773  24.950  0.00  0.00    -0.505 OA
ATOM     44  H   UNL     1       3.428  -2.995  24.507  0.00  0.00    +0.292 HD
ENDBRANCH  39  43
BRANCH  37  45
ATOM     45  O   UNL     1       3.497  -6.096  28.276  0.00  0.00    -0.505 OA
ATOM     46  H   UNL     1       3.251  -6.548  29.059  0.00  0.00    +0.292 HD
ENDBRANCH  37  45
BRANCH  33  47
ATOM     47  O   UNL     1      -0.338  -5.775  31.334  0.00  0.00    -0.501 OA
ATOM     48  H   UNL     1      -1.121  -5.594  31.817  0.00  0.00    +0.292 HD
ENDBRANCH  33  47
ENDBRANCH  29  32
BRANCH  27  49
ATOM     49  O   UNL     1      -4.734  -4.532  32.567  0.00  0.00    -0.503 OA
ATOM     50  H   UNL     1      -5.555  -4.225  32.898  0.00  0.00    +0.292 HD
ENDBRANCH  27  49
ENDBRANCH   1  26
TORSDOF 11
