REMARK  Name = =
REMARK  6 active torsions:
REMARK  status: ('A' for Active; 'I' for Inactive)
REMARK    1  A    between atoms: N_1  and  C_7
REMARK    2  A    between atoms: C_4  and  N_19
REMARK    3  A    between atoms: C_8  and  N_14
REMARK    4  A    between atoms: N_19  and  P_20
REMARK    5  A    between atoms: P_20  and  N_22
REMARK    6  A    between atoms: P_20  and  O_23
REMARK                            x       y       z     vdW  Elec       q    Type
REMARK                         _______ _______ _______ _____ _____    ______ ____
ROOT
ATOM      1  N   UNL     1      -4.638  -3.075  31.445  0.00  0.00    -0.269 NA
ATOM      2  C   UNL     1      -3.295  -2.603  31.370  0.00  0.00    +0.074 C 
ATOM      3  C   UNL     1      -2.422  -3.705  32.013  0.00  0.00    +0.034 C 
ATOM      4  C   UNL     1      -2.664  -5.019  31.349  0.00  0.00    +0.065 C 
ATOM      5  C   UNL     1      -3.473  -4.756  30.092  0.00  0.00    +0.034 C 
ATOM      6  C   UNL     1      -4.822  -4.216  30.563  0.00  0.00    +0.074 C 
ENDROOT
BRANCH   1   7
ATOM      7  C   UNL     1      -5.671  -2.132  31.173  0.00  0.00    +0.095 C 
ATOM      8  C   UNL     1      -5.777  -1.041  32.230  0.00  0.00    +0.084 C 
ATOM      9  C   UNL     1      -5.699  -1.576  33.618  0.00  0.00    +0.087 C 
ATOM     10  C   UNL     1      -6.546  -2.823  33.662  0.00  0.00    +0.174 C 
ATOM     11  O   UNL     1      -6.536  -3.491  34.709  0.00  0.00    -0.291 OA
ATOM     12  C   UNL     1      -7.350  -3.218  32.504  0.00  0.00    +0.034 C 
ATOM     13  C   UNL     1      -6.965  -2.906  31.277  0.00  0.00    -0.006 C 
BRANCH   8  14
ATOM     14  N   UNL     1      -4.970   0.091  31.942  0.00  0.00    -0.272 NA
ATOM     15  C   UNL     1      -4.937   0.377  30.523  0.00  0.00    +0.072 C 
ATOM     16  C   UNL     1      -5.646   1.706  30.349  0.00  0.00    +0.019 C 
ATOM     17  C   UNL     1      -5.347   2.410  31.638  0.00  0.00    +0.019 C 
ATOM     18  C   UNL     1      -5.243   1.287  32.646  0.00  0.00    +0.072 C 
ENDBRANCH   8  14
ENDBRANCH   1   7
BRANCH   4  19
ATOM     19  N   UNL     1      -1.485  -5.777  31.100  0.00  0.00    -0.224 NA
ATOM     20  H   UNL     1      -0.667  -5.241  31.390  0.00  0.00    +0.133 HD
BRANCH  19  21
ATOM     21  P   UNL     1      -1.556  -7.265  32.005  0.00  0.00    +0.339 P 
ATOM     22  O   UNL     1      -2.830  -7.405  32.758  0.00  0.00    -0.255 OA
BRANCH  21  23
ATOM     23  N   UNL     1      -0.228  -7.347  33.141  0.00  0.00    -0.247 NA
ATOM     24  H   UNL     1      -0.301  -6.577  33.805  0.00  0.00    +0.129 HD
ATOM     25  H   UNL     1       0.656  -7.278  32.636  0.00  0.00    +0.129 HD
ENDBRANCH  21  23
BRANCH  21  26
ATOM     26  O   UNL     1      -1.480  -8.526  30.878  0.00  0.00    -0.322 OA
ATOM     27  H   UNL     1      -2.227  -8.455  30.263  0.00  0.00    +0.220 HD
ENDBRANCH  21  26
ENDBRANCH  19  21
ENDBRANCH   4  19
TORSDOF 6
