REMARK  Name = =
REMARK  1 active torsions:
REMARK  status: ('A' for Active; 'I' for Inactive)
REMARK    1  A    between atoms: S_1  and  N_4
REMARK                            x       y       z     vdW  Elec       q    Type
REMARK                         _______ _______ _______ _____ _____    ______ ____
ROOT
ATOM      1  S   UNL     1      -3.929  -3.397  30.903  0.00  0.00    +0.017 S 
ATOM      2  O   UNL     1      -4.190  -3.241  32.390  0.00  0.00    -0.161 OA
ATOM      3  O   UNL     1      -2.927  -4.500  30.685  0.00  0.00    -0.161 OA
ATOM      4  H   UNL     1      -5.090  -3.703  30.263  0.00  0.00    +0.229 HD
ENDROOT
BRANCH   1   5
ATOM      5  N   UNL     1      -3.291  -1.917  30.282  0.00  0.00    -0.211 NA
ATOM      6  H   UNL     1      -2.421  -1.693  30.765  0.00  0.00    +0.144 HD
ATOM      7  H   UNL     1      -3.966  -1.167  30.431  0.00  0.00    +0.144 HD
ENDBRANCH   1   5
TORSDOF 1
