REMARK  Name = =
REMARK  3 active torsions:
REMARK  status: ('A' for Active; 'I' for Inactive)
REMARK    1  A    between atoms: N_1  and  S_20
REMARK    2  A    between atoms: C_12  and  O_24
REMARK    3  A    between atoms: S_20  and  N_23
REMARK                            x       y       z     vdW  Elec       q    Type
REMARK                         _______ _______ _______ _____ _____    ______ ____
ROOT
ATOM      1  N   UNL     1      -6.043   1.983  29.024  0.00  0.00    -0.147 NA
ATOM      2  C   UNL     1      -5.348   1.607  30.205  0.00  0.00    +0.085 C 
ATOM      3  C   UNL     1      -6.339   1.713  31.334  0.00  0.00    +0.025 C 
ATOM      4  C   UNL     1      -7.291   0.546  31.134  0.00  0.00    +0.068 C 
ATOM      5  C   UNL     1      -8.377   0.444  32.151  0.00  0.00    +0.226 C 
ATOM      6  O   UNL     1      -8.250  -0.861  32.744  0.00  0.00    -0.469 OA
ATOM      7  C   UNL     1      -6.978  -1.359  32.523  0.00  0.00    +0.168 C 
ATOM      8  C   UNL     1      -6.391  -0.572  31.603  0.00  0.00    +0.014 C 
ATOM      9  C   UNL     1      -5.134  -0.703  31.094  0.00  0.00    -0.022 C 
ATOM     10  C   UNL     1      -4.356  -1.743  31.552  0.00  0.00    -0.001 C 
ATOM     11  C   UNL     1      -4.896  -2.599  32.506  0.00  0.00    +0.039 C 
ATOM     12  C   UNL     1      -6.194  -2.417  32.993  0.00  0.00    +0.167 C 
ATOM     13  C   UNL     1      -4.685   0.276  30.097  0.00  0.00    +0.044 C 
ATOM     14  C   UNL     1      -8.154   1.534  33.137  0.00  0.00    +0.191 C 
ATOM     15  O   UNL     1      -8.087   1.295  34.327  0.00  0.00    -0.292 OA
ATOM     16  C   UNL     1      -8.019   2.917  32.609  0.00  0.00    +0.068 C 
ATOM     17  C   UNL     1      -7.025   3.007  31.453  0.00  0.00    +0.010 C 
ATOM     18  C   UNL     1      -7.691   0.292  29.738  0.00  0.00    +0.027 C 
ATOM     19  C   UNL     1      -7.174   1.207  28.689  0.00  0.00    +0.097 C 
ENDROOT
BRANCH   1  20
ATOM     20  S   UNL     1      -4.985   2.369  27.740  0.00  0.00    +0.096 S 
ATOM     21  O   UNL     1      -4.325   3.681  27.994  0.00  0.00    -0.141 OA
ATOM     22  O   UNL     1      -3.932   1.305  27.565  0.00  0.00    -0.141 OA
BRANCH  20  23
ATOM     23  N   UNL     1      -5.852   2.518  26.242  0.00  0.00    -0.193 NA
ATOM     24  H   UNL     1      -6.572   3.234  26.336  0.00  0.00    +0.145 HD
ATOM     25  H   UNL     1      -6.288   1.625  26.011  0.00  0.00    +0.145 HD
ENDBRANCH  20  23
ENDBRANCH   1  20
BRANCH  12  26
ATOM     26  O   UNL     1      -6.742  -3.258  33.938  0.00  0.00    -0.503 OA
ATOM     27  H   UNL     1      -7.615  -3.111  34.246  0.00  0.00    +0.292 HD
ENDBRANCH  12  26
TORSDOF 3
