REMARK  Name = =
REMARK  4 active torsions:
REMARK  status: ('A' for Active; 'I' for Inactive)
REMARK    1  A    between atoms: C_8  and  C_11
REMARK    2  A    between atoms: C_9  and  C_23
REMARK    3  A    between atoms: C_15  and  C_18
REMARK    4  A    between atoms: N_25  and  S_26
REMARK                            x       y       z     vdW  Elec       q    Type
REMARK                         _______ _______ _______ _____ _____    ______ ____
ROOT
ATOM      1  C   UNL     1      -3.573  -3.435  31.222  0.00  0.00    +0.001 C 
ATOM      2  C   UNL     1      -2.731  -2.846  30.296  0.00  0.00    +0.076 C 
ATOM      3  C   UNL     1      -1.886  -3.691  29.569  0.00  0.00    +0.095 C 
ATOM      4  C   UNL     1      -1.920  -5.055  29.795  0.00  0.00    +0.176 C 
ATOM      5  N   UNL     1      -2.762  -5.570  30.710  0.00  0.00    -0.224 NA
ATOM      6  C   UNL     1      -3.601  -4.796  31.441  0.00  0.00    +0.096 C 
ATOM      7  N   UNL     1      -1.085  -5.795  29.062  0.00  0.00    -0.228 NA
ATOM      8  C   UNL     1      -0.242  -5.298  28.150  0.00  0.00    +0.109 C 
ATOM      9  C   UNL     1      -0.216  -3.950  27.934  0.00  0.00    +0.219 C 
ATOM     10  N   UNL     1      -1.054  -3.178  28.664  0.00  0.00    -0.258 NA
ENDROOT
BRANCH   8  11
ATOM     11  C   UNL     1       0.634  -6.195  27.404  0.00  0.00    +0.207 C 
ATOM     12  O   UNL     1       1.848  -6.477  28.092  0.00  0.00    -0.446 OA
ATOM     13  C   UNL     1       2.522  -7.630  27.718  0.00  0.00    +0.322 C 
ATOM     14  O   UNL     1       3.397  -8.158  28.477  0.00  0.00    -0.250 OA
ATOM     15  C   UNL     1       2.196  -8.248  26.390  0.00  0.00    +0.142 C 
ATOM     16  C   UNL     1       0.702  -8.312  26.178  0.00  0.00    +0.021 C 
ATOM     17  C   UNL     1      -0.046  -7.561  27.264  0.00  0.00    +0.051 C 
BRANCH  15  18
ATOM     18  C   UNL     1       2.707  -9.639  26.425  0.00  0.00    +0.110 C 
ATOM     19  N   UNL     1       3.864 -10.149  26.027  0.00  0.00    -0.208 NA
ATOM     20  C   UNL     1       3.851 -11.480  26.272  0.00  0.00    +0.285 C 
ATOM     21  O   UNL     1       2.691 -11.794  26.819  0.00  0.00    -0.428 OA
ATOM     22  C   UNL     1       1.966 -10.694  26.927  0.00  0.00    +0.197 C 
ENDBRANCH  15  18
ENDBRANCH   8  11
BRANCH   9  23
ATOM     23  C   UNL     1       0.675  -3.308  26.947  0.00  0.00    +0.268 C 
ATOM     24  O   UNL     1       1.183  -3.949  25.995  0.00  0.00    -0.271 OA
ATOM     25  N   UNL     1       0.930  -1.921  27.128  0.00  0.00    -0.190 N 
ATOM     26  H   UNL     1       0.526  -1.428  27.878  0.00  0.00    +0.176 HD
BRANCH  25  27
ATOM     27  S   UNL     1       1.961  -1.126  26.005  0.00  0.00    +0.035 S 
ATOM     28  O   UNL     1       1.942   0.363  26.154  0.00  0.00    -0.158 OA
ATOM     29  O   UNL     1       1.522  -1.498  24.596  0.00  0.00    -0.158 OA
ATOM     30  H   UNL     1       3.235  -1.534  26.250  0.00  0.00    +0.233 HD
ENDBRANCH  25  27
ENDBRANCH   9  23
TORSDOF 4
