REMARK  Name = =
REMARK  5 active torsions:
REMARK  status: ('A' for Active; 'I' for Inactive)
REMARK    1  A    between atoms: C_1  and  N_11
REMARK    2  A    between atoms: C_8  and  C_18
REMARK    3  A    between atoms: C_9  and  C_30
REMARK    4  A    between atoms: C_22  and  C_25
REMARK    5  A    between atoms: N_32  and  S_33
REMARK                            x       y       z     vdW  Elec       q    Type
REMARK                         _______ _______ _______ _____ _____    ______ ____
ROOT
ATOM      1  C   UNL     1      -4.352  -2.619  30.936  0.00  0.00    +0.058 C 
ATOM      2  C   UNL     1      -3.461  -2.204  29.978  0.00  0.00    +0.092 C 
ATOM      3  C   UNL     1      -2.488  -3.057  29.477  0.00  0.00    +0.098 C 
ATOM      4  C   UNL     1      -2.423  -4.341  29.955  0.00  0.00    +0.166 C 
ATOM      5  N   UNL     1      -3.282  -4.750  30.883  0.00  0.00    -0.225 NA
ATOM      6  C   UNL     1      -4.220  -3.926  31.365  0.00  0.00    +0.111 C 
ATOM      7  N   UNL     1      -1.466  -5.169  29.458  0.00  0.00    -0.192 NA
ATOM      8  C   UNL     1      -0.598  -4.706  28.502  0.00  0.00    +0.112 C 
ATOM      9  C   UNL     1      -0.670  -3.434  28.034  0.00  0.00    +0.150 C 
ATOM     10  N   UNL     1      -1.637  -2.594  28.535  0.00  0.00    -0.241 NA
ENDROOT
BRANCH   1  11
ATOM     11  N   UNL     1      -5.370  -1.748  31.471  0.00  0.00    -0.236 N 
ATOM     12  C   UNL     1      -5.281  -0.357  31.793  0.00  0.00    +0.185 C 
ATOM     13  C   UNL     1      -6.439  -0.131  32.712  0.00  0.00    +0.250 C 
ATOM     14  O   UNL     1      -6.581   0.827  33.513  0.00  0.00    -0.273 OA
ATOM     15  N   UNL     1      -7.381  -1.194  32.541  0.00  0.00    -0.238 N 
ATOM     16  C   UNL     1      -6.692  -2.172  31.772  0.00  0.00    +0.314 C 
ATOM     17  O   UNL     1      -7.193  -3.271  31.409  0.00  0.00    -0.252 OA
ATOM     18  H   UNL     1      -8.304  -1.239  32.881  0.00  0.00    +0.159 HD
ENDBRANCH   1  11
BRANCH   8  19
ATOM     19  C   UNL     1       0.419  -5.662  28.028  0.00  0.00    +0.208 C 
ATOM     20  O   UNL     1       1.704  -5.449  28.547  0.00  0.00    -0.446 OA
ATOM     21  C   UNL     1       2.714  -6.265  28.038  0.00  0.00    +0.322 C 
ATOM     22  O   UNL     1       3.906  -6.167  28.343  0.00  0.00    -0.250 OA
ATOM     23  C   UNL     1       2.207  -7.300  27.058  0.00  0.00    +0.142 C 
ATOM     24  C   UNL     1       0.996  -7.998  27.601  0.00  0.00    +0.021 C 
ATOM     25  C   UNL     1       0.057  -7.096  28.366  0.00  0.00    +0.051 C 
BRANCH  23  26
ATOM     26  C   UNL     1       3.284  -8.273  26.743  0.00  0.00    +0.110 C 
ATOM     27  N   UNL     1       3.763  -9.270  27.532  0.00  0.00    -0.208 NA
ATOM     28  C   UNL     1       4.731  -9.889  26.833  0.00  0.00    +0.285 C 
ATOM     29  O   UNL     1       4.882  -9.330  25.646  0.00  0.00    -0.428 OA
ATOM     30  C   UNL     1       4.024  -8.366  25.585  0.00  0.00    +0.197 C 
ENDBRANCH  23  26
ENDBRANCH   8  19
BRANCH   9  31
ATOM     31  C   UNL     1       0.233  -2.944  27.014  0.00  0.00    +0.283 C 
ATOM     32  O   UNL     1       0.814  -3.711  26.240  0.00  0.00    -0.267 OA
ATOM     33  N   UNL     1       0.484  -1.548  26.872  0.00  0.00    -0.187 N 
ATOM     34  H   UNL     1       0.034  -0.914  27.476  0.00  0.00    +0.176 HD
BRANCH  33  35
ATOM     35  S   UNL     1       1.566  -0.940  25.656  0.00  0.00    +0.035 S 
ATOM     36  O   UNL     1       2.764  -1.827  25.515  0.00  0.00    -0.158 OA
ATOM     37  O   UNL     1       1.972   0.486  25.992  0.00  0.00    -0.158 OA
ATOM     38  H   UNL     1       0.922  -0.934  24.458  0.00  0.00    +0.233 HD
ENDBRANCH  33  35
ENDBRANCH   9  31
TORSDOF 5
