REMARK  Name = =
REMARK  6 active torsions:
REMARK  status: ('A' for Active; 'I' for Inactive)
REMARK    1  A    between atoms: C_1  and  N_11
REMARK    2  A    between atoms: C_8  and  C_18
REMARK    3  A    between atoms: C_9  and  C_44
REMARK    4  A    between atoms: C_22  and  C_25
REMARK    5  A    between atoms: C_27  and  C_30
REMARK    6  A    between atoms: N_46  and  S_47
REMARK                            x       y       z     vdW  Elec       q    Type
REMARK                         _______ _______ _______ _____ _____    ______ ____
ROOT
ATOM      1  C   UNL     1       2.005  -2.459  25.448  0.00  0.00    +0.058 C 
ATOM      2  C   UNL     1       1.616  -3.507  26.272  0.00  0.00    +0.092 C 
ATOM      3  C   UNL     1       0.665  -3.346  27.257  0.00  0.00    +0.096 C 
ATOM      4  C   UNL     1       0.091  -2.102  27.419  0.00  0.00    +0.176 C 
ATOM      5  N   UNL     1       0.467  -1.070  26.614  0.00  0.00    -0.223 NA
ATOM      6  C   UNL     1       1.405  -1.231  25.644  0.00  0.00    +0.111 C 
ATOM      7  N   UNL     1      -0.845  -1.933  28.383  0.00  0.00    -0.228 NA
ATOM      8  C   UNL     1      -1.232  -2.937  29.189  0.00  0.00    +0.109 C 
ATOM      9  C   UNL     1      -0.671  -4.185  29.045  0.00  0.00    +0.219 C 
ATOM     10  N   UNL     1       0.270  -4.336  28.066  0.00  0.00    -0.258 NA
ENDROOT
BRANCH   1  11
ATOM     11  N   UNL     1       2.979  -2.607  24.431  0.00  0.00    -0.236 N 
ATOM     12  C   UNL     1       3.187  -3.826  23.636  0.00  0.00    +0.185 C 
ATOM     13  C   UNL     1       4.543  -3.691  23.103  0.00  0.00    +0.250 C 
ATOM     14  O   UNL     1       5.252  -4.636  22.678  0.00  0.00    -0.273 OA
ATOM     15  N   UNL     1       4.885  -2.314  23.160  0.00  0.00    -0.238 N 
ATOM     16  C   UNL     1       3.923  -1.660  23.975  0.00  0.00    +0.314 C 
ATOM     17  O   UNL     1       3.946  -0.435  24.224  0.00  0.00    -0.252 OA
ATOM     18  H   UNL     1       5.652  -1.888  22.714  0.00  0.00    +0.159 HD
ENDBRANCH   1  11
BRANCH   8  19
ATOM     19  C   UNL     1      -2.274  -2.633  30.202  0.00  0.00    +0.207 C 
ATOM     20  O   UNL     1      -3.411  -3.468  29.952  0.00  0.00    -0.446 OA
ATOM     21  C   UNL     1      -4.567  -3.198  30.657  0.00  0.00    +0.322 C 
ATOM     22  O   UNL     1      -5.532  -3.978  30.628  0.00  0.00    -0.250 OA
ATOM     23  C   UNL     1      -4.614  -1.951  31.446  0.00  0.00    +0.142 C 
ATOM     24  C   UNL     1      -4.060  -0.870  30.543  0.00  0.00    +0.021 C 
ATOM     25  C   UNL     1      -2.654  -1.178  30.180  0.00  0.00    +0.051 C 
BRANCH  23  26
ATOM     26  C   UNL     1      -6.016  -1.583  31.813  0.00  0.00    +0.110 C 
ATOM     27  N   UNL     1      -7.112  -2.354  31.782  0.00  0.00    -0.212 NA
ATOM     28  C   UNL     1      -8.212  -1.653  32.200  0.00  0.00    +0.230 C 
ATOM     29  O   UNL     1      -7.758  -0.478  32.473  0.00  0.00    -0.432 OA
ATOM     30  C   UNL     1      -6.468  -0.364  32.269  0.00  0.00    +0.197 C 
BRANCH  28  31
ATOM     31  C   UNL     1      -9.530  -2.268  32.258  0.00  0.00    +0.054 C 
ATOM     32  C   UNL     1      -9.798  -3.265  33.202  0.00  0.00    +0.005 C 
ATOM     33  C   UNL     1     -10.992  -3.898  33.339  0.00  0.00    +0.000 C 
ATOM     34  C   UNL     1     -12.025  -3.546  32.497  0.00  0.00    +0.000 C 
ATOM     35  C   UNL     1     -11.812  -2.567  31.547  0.00  0.00    +0.000 C 
ATOM     36  C   UNL     1     -10.566  -1.938  31.437  0.00  0.00    +0.005 C 
ATOM     37  C   UNL     1     -10.399  -0.966  30.476  0.00  0.00    +0.000 C 
ATOM     38  C   UNL     1     -11.478  -0.635  29.639  0.00  0.00    +0.000 C 
ATOM     39  C   UNL     1     -12.701  -1.260  29.753  0.00  0.00    +0.000 C 
ATOM     40  C   UNL     1     -12.851  -2.217  30.706  0.00  0.00    +0.000 C 
ATOM     41  C   UNL     1     -13.773  -0.941  28.933  0.00  0.00    +0.000 C 
ATOM     42  C   UNL     1     -13.617   0.031  27.968  0.00  0.00    +0.000 C 
ATOM     43  C   UNL     1     -12.396   0.655  27.852  0.00  0.00    +0.000 C 
ATOM     44  C   UNL     1     -11.329   0.329  28.678  0.00  0.00    +0.000 C 
ENDBRANCH  28  31
ENDBRANCH  23  26
ENDBRANCH   8  19
BRANCH   9  45
ATOM     45  C   UNL     1      -1.043  -5.308  29.893  0.00  0.00    +0.268 C 
ATOM     46  O   UNL     1      -1.102  -5.241  31.130  0.00  0.00    -0.271 OA
ATOM     47  N   UNL     1      -1.355  -6.543  29.262  0.00  0.00    -0.190 N 
ATOM     48  H   UNL     1      -1.309  -6.593  28.280  0.00  0.00    +0.176 HD
BRANCH  47  49
ATOM     49  S   UNL     1      -1.808  -7.949  30.130  0.00  0.00    +0.035 S 
ATOM     50  O   UNL     1      -0.727  -8.285  31.134  0.00  0.00    -0.158 OA
ATOM     51  O   UNL     1      -1.966  -9.080  29.144  0.00  0.00    -0.158 OA
ATOM     52  H   UNL     1      -2.977  -7.747  30.794  0.00  0.00    +0.233 HD
ENDBRANCH  47  49
ENDBRANCH   9  45
TORSDOF 6
