REMARK  Name = =
REMARK  7 active torsions:
REMARK  status: ('A' for Active; 'I' for Inactive)
REMARK    1  A    between atoms: S_1  and  C_2
REMARK    2  A    between atoms: S_1  and  C_9
REMARK    3  A    between atoms: S_1  and  P_16
REMARK    4  A    between atoms: C_9  and  C_12
REMARK    5  A    between atoms: C_13  and  C_14
REMARK    6  A    between atoms: P_16  and  O_18
REMARK    7  A    between atoms: P_16  and  O_19
REMARK                            x       y       z     vdW  Elec       q    Type
REMARK                         _______ _______ _______ _____ _____    ______ ____
ROOT
ATOM      1  S   UNL     1     -20.938 -41.716  22.996  0.00  0.00    -0.110 S 
ATOM      2  H   UNL     1     -21.116 -42.564  21.948  0.00  0.00    +0.097 HD
ENDROOT
BRANCH   1   3
ATOM      3  C   UNL     1     -22.022 -42.229  24.129  0.00  0.00    +0.154 C 
ATOM      4  O   UNL     1     -21.782 -41.616  25.374  0.00  0.00    -0.339 OA
ATOM      5  C   UNL     1     -22.204 -42.422  26.420  0.00  0.00    +0.207 C 
ATOM      6  C   UNL     1     -23.590 -42.832  26.168  0.00  0.00    +0.181 C 
ATOM      7  O   UNL     1     -24.169 -43.524  27.015  0.00  0.00    -0.293 OA
ATOM      8  C   UNL     1     -24.372 -42.483  24.958  0.00  0.00    +0.071 C 
ATOM      9  C   UNL     1     -23.489 -42.012  23.829  0.00  0.00    +0.048 C 
ENDBRANCH   1   3
BRANCH   1  10
ATOM     10  C   UNL     1     -21.243 -40.339  22.190  0.00  0.00    +0.051 C 
ATOM     11  C   UNL     1     -20.426 -39.087  22.591  0.00  0.00    +0.014 C 
ATOM     12  C   UNL     1     -21.880 -39.162  22.863  0.00  0.00    +0.014 C 
BRANCH  10  13
ATOM     13  C   UNL     1     -21.510 -40.390  20.725  0.00  0.00    -0.018 C 
ATOM     14  C   UNL     1     -22.277 -39.493  20.122  0.00  0.00    -0.004 C 
BRANCH  14  15
ATOM     15  C   UNL     1     -22.488 -39.615  18.693  0.00  0.00    -0.000 C 
ATOM     16  C   UNL     1     -23.385 -38.846  18.110  0.00  0.00    -0.000 C 
ENDBRANCH  14  15
ENDBRANCH  10  13
ENDBRANCH   1  10
BRANCH   1  17
ATOM     17  P   UNL     1     -19.243 -41.913  23.610  0.00  0.00    +0.370 P 
ATOM     18  O   UNL     1     -18.720 -40.751  24.375  0.00  0.00    -0.248 OA
BRANCH  17  19
ATOM     19  O   UNL     1     -18.181 -42.314  22.330  0.00  0.00    -0.317 OA
ATOM     20  H   UNL     1     -18.159 -41.587  21.689  0.00  0.00    +0.220 HD
ENDBRANCH  17  19
BRANCH  17  21
ATOM     21  O   UNL     1     -19.197 -43.261  24.666  0.00  0.00    -0.317 OA
ATOM     22  H   UNL     1     -19.783 -43.100  25.422  0.00  0.00    +0.220 HD
ENDBRANCH  17  21
ENDBRANCH   1  17
TORSDOF 7
