REMARK  Name = =
REMARK  1 active torsions:
REMARK  status: ('A' for Active; 'I' for Inactive)
REMARK    1  A    between atoms: C_1  and  C_3
REMARK                            x       y       z     vdW  Elec       q    Type
REMARK                         _______ _______ _______ _____ _____    ______ ____
ROOT
ATOM      1  C   UNL     1      52.437 156.034  28.486  0.00  0.00    +0.279 C 
ATOM      2  O   UNL     1      52.948 157.067  27.946  0.00  0.00    -0.279 OA
ENDROOT
BRANCH   1   3
ATOM      3  C   UNL     1      51.382 156.203  29.461  0.00  0.00    +0.279 C 
ATOM      4  O   UNL     1      51.151 155.252  30.274  0.00  0.00    -0.279 OA
ENDBRANCH   1   3
TORSDOF 1
