REMARK  Name = =
REMARK  5 active torsions:
REMARK  status: ('A' for Active; 'I' for Inactive)
REMARK    1  A    between atoms: C_3  and  O_9
REMARK    2  A    between atoms: C_4  and  O_8
REMARK    3  A    between atoms: C_5  and  O_7
REMARK    4  A    between atoms: O_9  and  C_10
REMARK    5  A    between atoms: C_10  and  C_12
REMARK                            x       y       z     vdW  Elec       q    Type
REMARK                         _______ _______ _______ _____ _____    ______ ____
ROOT
ATOM      1  C   UNL     1      53.816 154.611  23.930  0.00  0.00    +0.006 C 
ATOM      2  C   UNL     1      52.955 155.013  24.938  0.00  0.00    +0.041 C 
ATOM      3  C   UNL     1      52.939 154.425  26.188  0.00  0.00    +0.185 C 
ATOM      4  C   UNL     1      53.831 153.397  26.408  0.00  0.00    +0.203 C 
ATOM      5  C   UNL     1      54.689 152.998  25.403  0.00  0.00    +0.171 C 
ATOM      6  C   UNL     1      54.706 153.584  24.155  0.00  0.00    +0.040 C 
ENDROOT
BRANCH   5   7
ATOM      7  O   UNL     1      55.594 151.951  25.639  0.00  0.00    -0.503 OA
ATOM      8  H   UNL     1      55.613 151.527  26.475  0.00  0.00    +0.292 HD
ENDBRANCH   5   7
BRANCH   4   9
ATOM      9  O   UNL     1      53.855 152.781  27.632  0.00  0.00    -0.501 OA
ATOM     10  H   UNL     1      53.269 153.059  28.308  0.00  0.00    +0.292 HD
ENDBRANCH   4   9
BRANCH   3  11
ATOM     11  O   UNL     1      52.064 154.847  27.180  0.00  0.00    -0.416 OA
BRANCH  11  12
ATOM     12  C   UNL     1      52.396 155.955  27.934  0.00  0.00    +0.389 C 
ATOM     13  O   UNL     1      53.183 156.794  27.436  0.00  0.00    -0.241 OA
BRANCH  12  14
ATOM     14  C   UNL     1      51.829 156.105  29.254  0.00  0.00    +0.316 C 
ATOM     15  O   UNL     1      51.059 155.243  29.727  0.00  0.00    -0.276 OA
ENDBRANCH  12  14
ENDBRANCH  11  12
ENDBRANCH   3  11
TORSDOF 5
