REMARK  Name = =
REMARK  7 active torsions:
REMARK  status: ('A' for Active; 'I' for Inactive)
REMARK    1  A    between atoms: C_1  and  O_9
REMARK    2  A    between atoms: C_3  and  O_19
REMARK    3  A    between atoms: C_4  and  O_8
REMARK    4  A    between atoms: C_5  and  O_7
REMARK    5  A    between atoms: O_9  and  C_17
REMARK    6  A    between atoms: O_19  and  C_20
REMARK    7  A    between atoms: C_20  and  C_22
REMARK                            x       y       z     vdW  Elec       q    Type
REMARK                         _______ _______ _______ _____ _____    ______ ____
ROOT
ATOM      1  C   UNL     1      53.543 154.196  24.721  0.00  0.00    +0.152 C 
ATOM      2  C   UNL     1      52.588 154.529  25.670  0.00  0.00    +0.078 C 
ATOM      3  C   UNL     1      52.683 154.118  26.981  0.00  0.00    +0.188 C 
ATOM      4  C   UNL     1      53.779 153.348  27.341  0.00  0.00    +0.203 C 
ATOM      5  C   UNL     1      54.730 153.018  26.393  0.00  0.00    +0.174 C 
ATOM      6  C   UNL     1      54.629 153.432  25.079  0.00  0.00    +0.077 C 
ENDROOT
BRANCH   5   7
ATOM      7  O   UNL     1      55.828 152.250  26.735  0.00  0.00    -0.503 OA
ATOM      8  H   UNL     1      55.933 151.949  27.616  0.00  0.00    +0.292 HD
ENDBRANCH   5   7
BRANCH   4   9
ATOM      9  O   UNL     1      53.844 152.953  28.666  0.00  0.00    -0.501 OA
ATOM     10  H   UNL     1      53.169 153.207  29.264  0.00  0.00    +0.292 HD
ENDBRANCH   4   9
BRANCH   1  11
ATOM     11  O   UNL     1      53.374 154.652  23.407  0.00  0.00    -0.453 OA
BRANCH  11  19
ATOM     12  C   UNL     1      56.907 156.336  20.279  0.00  0.00    +0.077 C 
ATOM     13  C   UNL     1      56.012 155.392  21.030  0.00  0.00    +0.019 C 
ATOM     14  C   UNL     1      56.335 154.113  20.628  0.00  0.00    +0.135 C 
ATOM     15  O   UNL     1      57.365 154.173  19.683  0.00  0.00    -0.475 OA
ATOM     16  C   UNL     1      58.011 155.418  19.819  0.00  0.00    +0.210 C 
ATOM     17  C   UNL     1      55.688 153.009  21.137  0.00  0.00    +0.040 C 
ATOM     18  C   UNL     1      54.699 153.211  22.067  0.00  0.00    +0.041 C 
ATOM     19  C   UNL     1      54.370 154.480  22.472  0.00  0.00    +0.145 C 
ATOM     20  C   UNL     1      55.018 155.570  21.962  0.00  0.00    +0.036 C 
ENDBRANCH  11  19
ENDBRANCH   1  11
BRANCH   3  21
ATOM     21  O   UNL     1      51.732 154.448  27.932  0.00  0.00    -0.415 OA
BRANCH  21  22
ATOM     22  C   UNL     1      51.690 155.663  28.589  0.00  0.00    +0.389 C 
ATOM     23  O   UNL     1      52.381 156.598  28.101  0.00  0.00    -0.241 OA
BRANCH  22  24
ATOM     24  C   UNL     1      50.896 155.897  29.789  0.00  0.00    +0.316 C 
ATOM     25  O   UNL     1      50.271 154.951  30.326  0.00  0.00    -0.276 OA
ENDBRANCH  22  24
ENDBRANCH  21  22
ENDBRANCH   3  21
TORSDOF 7
