REMARK  Name = =
REMARK  10 active torsions:
REMARK  status: ('A' for Active; 'I' for Inactive)
REMARK    1  A    between atoms: C_1  and  C_2
REMARK    2  A    between atoms: C_1  and  C_11
REMARK    3  A    between atoms: C_10  and  O_24
REMARK    4  A    between atoms: C_11  and  C_14
REMARK    5  A    between atoms: C_20  and  C_21
REMARK    6  A    between atoms: C_21  and  N_22
REMARK    7  A    between atoms: N_22  and  O_23
REMARK    8  A    between atoms: O_24  and  P_25
REMARK    9  A    between atoms: P_25  and  N_27
REMARK   10  A    between atoms: P_25  and  N_28
REMARK                            x       y       z     vdW  Elec       q    Type
REMARK                         _______ _______ _______ _____ _____    ______ ____
ROOT
ATOM      1  C   UNL     1       2.218 -12.121  24.054  0.00  0.00    +0.030 C 
ATOM      2  C   UNL     1       1.656 -13.554  23.902  0.00  0.00    +0.002 C 
ATOM      3  C   UNL     1       0.430 -13.401  22.960  0.00  0.00    +0.000 C 
ATOM      4  C   UNL     1      -0.723 -14.085  23.647  0.00  0.00    +0.000 C 
ATOM      5  C   UNL     1      -0.013 -15.063  24.571  0.00  0.00    +0.000 C 
ATOM      6  C   UNL     1       1.053 -14.081  25.137  0.00  0.00    +0.000 C 
ATOM      7  C   UNL     1       0.101 -11.917  22.907  0.00  0.00    +0.003 C 
ATOM      8  C   UNL     1       1.168 -11.274  21.996  0.00  0.00    +0.030 C 
ATOM      9  C   UNL     1       2.525 -11.536  22.668  0.00  0.00    +0.124 C 
ENDROOT
BRANCH   1  10
ATOM     10  C   UNL     1       2.342 -11.493  25.056  0.00  0.00    +0.032 C 
BRANCH  10  11
ATOM     11  C   UNL     1       2.692 -10.349  25.932  0.00  0.00    +0.122 C 
ATOM     12  C   UNL     1       1.449  -9.803  26.656  0.00  0.00    +0.169 C 
ATOM     13  O   UNL     1       2.060  -9.178  25.599  0.00  0.00    -0.354 OA
BRANCH  11  14
ATOM     14  C   UNL     1       3.966 -10.415  26.654  0.00  0.00    +0.057 C 
ATOM     15  C   UNL     1       5.250 -10.198  26.006  0.00  0.00    +0.119 C 
ATOM     16  O   UNL     1       6.076 -10.490  27.141  0.00  0.00    -0.359 OA
ATOM     17  C   UNL     1       5.590  -9.461  27.996  0.00  0.00    +0.115 C 
ATOM     18  C   UNL     1       4.066  -9.565  27.903  0.00  0.00    +0.034 C 
ATOM     19  C   UNL     1       5.910  -8.218  27.140  0.00  0.00    +0.033 C 
ATOM     20  C   UNL     1       5.771  -8.822  25.756  0.00  0.00    +0.050 C 
BRANCH  20  21
ATOM     21  C   UNL     1       5.123  -8.031  24.766  0.00  0.00    +0.124 C 
BRANCH  21  22
ATOM     22  N   UNL     1       5.661  -7.619  23.657  0.00  0.00    -0.088 NA
BRANCH  22  23
ATOM     23  O   UNL     1       7.003  -8.042  23.535  0.00  0.00    -0.295 OA
ATOM     24  H   UNL     1       7.370  -7.717  22.698  0.00  0.00    +0.238 HD
ENDBRANCH  22  23
ENDBRANCH  21  22
ENDBRANCH  20  21
ENDBRANCH  11  14
ENDBRANCH  10  11
ENDBRANCH   1  10
BRANCH   9  25
ATOM     25  O   UNL     1       3.208 -10.370  22.687  0.00  0.00    -0.295 OA
BRANCH  25  26
ATOM     26  P   UNL     1       4.567 -10.478  21.653  0.00  0.00    +0.339 P 
ATOM     27  O   UNL     1       4.665  -9.221  20.847  0.00  0.00    -0.255 OA
BRANCH  26  28
ATOM     28  N   UNL     1       6.006 -10.737  22.585  0.00  0.00    -0.247 NA
ATOM     29  H   UNL     1       6.138  -9.958  23.230  0.00  0.00    +0.129 HD
ATOM     30  H   UNL     1       6.809 -10.801  21.960  0.00  0.00    +0.129 HD
ENDBRANCH  26  28
BRANCH  26  31
ATOM     31  N   UNL     1       4.341 -11.835  20.534  0.00  0.00    -0.247 NA
ATOM     32  H   UNL     1       4.272 -12.704  21.063  0.00  0.00    +0.129 HD
ATOM     33  H   UNL     1       5.136 -11.887  19.898  0.00  0.00    +0.129 HD
ENDBRANCH  26  31
ENDBRANCH  25  26
ENDBRANCH   9  25
TORSDOF 10
