REMARK  Name = =
REMARK  9 active torsions:
REMARK  status: ('A' for Active; 'I' for Inactive)
REMARK    1  A    between atoms: C_1  and  N_11
REMARK    2  A    between atoms: C_1  and  C_19
REMARK    3  A    between atoms: C_10  and  O_32
REMARK    4  A    between atoms: C_19  and  C_22
REMARK    5  A    between atoms: C_28  and  C_29
REMARK    6  A    between atoms: N_30  and  O_31
REMARK    7  A    between atoms: O_32  and  P_33
REMARK    8  A    between atoms: P_33  and  N_35
REMARK    9  A    between atoms: P_33  and  N_36
REMARK                            x       y       z     vdW  Elec       q    Type
REMARK                         _______ _______ _______ _____ _____    ______ ____
ROOT
ATOM      1  C   UNL     1       4.543 -10.915  24.860  0.00  0.00    +0.058 C 
ATOM      2  C   UNL     1       5.329 -10.949  23.812  0.00  0.00    -0.005 C 
ATOM      3  C   UNL     1       6.488 -10.165  23.490  0.00  0.00    +0.022 C 
ATOM      4  C   UNL     1       7.708 -10.955  23.218  0.00  0.00    +0.004 C 
ATOM      5  C   UNL     1       8.719 -10.402  24.186  0.00  0.00    +0.000 C 
ATOM      6  C   UNL     1       8.262  -9.017  24.560  0.00  0.00    +0.000 C 
ATOM      7  C   UNL     1       6.866  -8.910  24.049  0.00  0.00    +0.004 C 
ATOM      8  C   UNL     1       7.546 -12.428  23.227  0.00  0.00    +0.003 C 
ATOM      9  C   UNL     1       6.251 -12.980  22.744  0.00  0.00    +0.034 C 
ATOM     10  C   UNL     1       5.092 -11.997  22.718  0.00  0.00    +0.143 C 
ENDROOT
BRANCH   1  11
ATOM     11  N   UNL     1       3.456 -11.831  24.887  0.00  0.00    -0.222 N 
ATOM     12  C   UNL     1       3.559 -13.025  25.488  0.00  0.00    +0.078 C 
ATOM     13  C   UNL     1       2.525 -13.934  25.539  0.00  0.00    +0.075 C 
ATOM     14  C   UNL     1       1.325 -13.609  24.947  0.00  0.00    +0.254 C 
ATOM     15  O   UNL     1       0.355 -14.426  24.977  0.00  0.00    -0.270 OA
ATOM     16  N   UNL     1       1.234 -12.410  24.347  0.00  0.00    -0.235 N 
ATOM     17  C   UNL     1       2.281 -11.530  24.315  0.00  0.00    +0.317 C 
ATOM     18  O   UNL     1       2.085 -10.445  23.731  0.00  0.00    -0.251 OA
ATOM     19  H   UNL     1       0.386 -12.156  23.916  0.00  0.00    +0.159 HD
ENDBRANCH   1  11
BRANCH   1  20
ATOM     20  C   UNL     1       4.792  -9.977  26.006  0.00  0.00    +0.153 C 
ATOM     21  C   UNL     1       5.680 -10.458  27.118  0.00  0.00    +0.175 C 
ATOM     22  O   UNL     1       4.349 -10.717  27.254  0.00  0.00    -0.348 OA
BRANCH  20  23
ATOM     23  C   UNL     1       4.095  -8.662  26.029  0.00  0.00    +0.062 C 
ATOM     24  C   UNL     1       2.695  -8.721  26.654  0.00  0.00    +0.124 C 
ATOM     25  O   UNL     1       2.949  -8.358  27.986  0.00  0.00    -0.358 OA
ATOM     26  C   UNL     1       3.581  -7.113  27.771  0.00  0.00    +0.116 C 
ATOM     27  C   UNL     1       4.724  -7.594  26.856  0.00  0.00    +0.035 C 
ATOM     28  C   UNL     1       2.544  -6.392  26.943  0.00  0.00    +0.038 C 
ATOM     29  C   UNL     1       1.870  -7.547  26.193  0.00  0.00    +0.074 C 
BRANCH  29  30
ATOM     30  C   UNL     1       1.880  -7.324  24.746  0.00  0.00    +0.115 C 
ATOM     31  N   UNL     1       2.017  -6.138  24.289  0.00  0.00    -0.089 NA
BRANCH  31  32
ATOM     32  O   UNL     1       2.041  -5.816  22.949  0.00  0.00    -0.409 OA
ATOM     33  H   UNL     1       2.145  -4.923  22.683  0.00  0.00    +0.328 HD
ENDBRANCH  31  32
ENDBRANCH  29  30
ENDBRANCH  20  23
ENDBRANCH   1  20
BRANCH  10  34
ATOM     34  O   UNL     1       4.882 -11.455  21.495  0.00  0.00    -0.291 OA
BRANCH  34  35
ATOM     35  P   UNL     1       3.580 -11.876  20.598  0.00  0.00    +0.339 P 
ATOM     36  O   UNL     1       2.523 -10.778  20.455  0.00  0.00    -0.255 OA
BRANCH  35  37
ATOM     37  N   UNL     1       2.763 -13.206  21.401  0.00  0.00    -0.247 NA
ATOM     38  H   UNL     1       2.504 -12.925  22.346  0.00  0.00    +0.129 HD
ATOM     39  H   UNL     1       3.387 -14.011  21.445  0.00  0.00    +0.129 HD
ENDBRANCH  35  37
BRANCH  35  40
ATOM     40  N   UNL     1       3.983 -12.456  18.989  0.00  0.00    -0.247 NA
ATOM     41  H   UNL     1       4.688 -13.190  19.059  0.00  0.00    +0.129 HD
ATOM     42  H   UNL     1       4.350 -11.685  18.432  0.00  0.00    +0.129 HD
ENDBRANCH  35  40
ENDBRANCH  34  35
ENDBRANCH  10  34
TORSDOF 9
