REMARK  Name = =
REMARK  3 active torsions:
REMARK  status: ('A' for Active; 'I' for Inactive)
REMARK    1  A    between atoms: C_1  and  C_17
REMARK    2  A    between atoms: C_1  and  C_23
REMARK    3  A    between atoms: C_24  and  C_25
REMARK                            x       y       z     vdW  Elec       q    Type
REMARK                         _______ _______ _______ _____ _____    ______ ____
ROOT
ATOM      1  C   UNL     1      -8.653  -0.676  22.503  0.00  0.00    +0.049 C 
ATOM      2  C   UNL     1      -9.483  -1.728  21.858  0.00  0.00    +0.007 C 
ATOM      3  C   UNL     1      -8.639  -2.388  20.761  0.00  0.00    +0.008 C 
ATOM      4  C   UNL     1      -9.045  -1.935  19.391  0.00  0.00    +0.065 C 
ATOM      5  C   UNL     1      -9.407  -3.062  18.489  0.00  0.00    +0.151 C 
ATOM      6  O   UNL     1      -9.409  -4.175  18.947  0.00  0.00    -0.296 OA
ATOM      7  C   UNL     1      -9.742  -2.721  17.079  0.00  0.00    +0.065 C 
ATOM      8  C   UNL     1     -10.839  -1.667  17.130  0.00  0.00    +0.012 C 
ATOM      9  C   UNL     1     -10.299  -0.336  16.714  0.00  0.00    +0.048 C 
ATOM     10  C   UNL     1     -11.117   0.827  17.174  0.00  0.00    +0.208 C 
ATOM     11  O   UNL     1     -11.711   0.664  18.422  0.00  0.00    -0.448 OA
ATOM     12  C   UNL     1     -11.500   1.419  19.540  0.00  0.00    +0.317 C 
ATOM     13  O   UNL     1     -12.410   1.937  20.248  0.00  0.00    -0.250 OA
ATOM     14  C   UNL     1     -10.106   1.671  19.993  0.00  0.00    +0.110 C 
ATOM     15  C   UNL     1      -9.907   1.201  21.441  0.00  0.00    +0.012 C 
ATOM     16  C   UNL     1      -8.587   0.528  21.595  0.00  0.00    +0.008 C 
ENDROOT
BRANCH   1  17
ATOM     17  C   UNL     1      -9.206  -0.206  23.828  0.00  0.00    +0.132 C 
ATOM     18  N   UNL     1      -8.837  -1.064  24.903  0.00  0.00    -0.279 NA
ATOM     19  C   UNL     1      -9.702  -2.165  25.172  0.00  0.00    +0.098 C 
ATOM     20  C   UNL     1     -11.123  -1.799  25.260  0.00  0.00    +0.007 C 
ATOM     21  C   UNL     1     -11.534  -0.743  24.592  0.00  0.00    +0.056 C 
ATOM     22  N   UNL     1     -10.626   0.037  23.799  0.00  0.00    -0.321 N 
ATOM     23  H   UNL     1      -8.788  -0.496  25.749  0.00  0.00    +0.125 HD
ATOM     24  H   UNL     1     -10.981   0.753  23.224  0.00  0.00    +0.148 HD
ENDBRANCH   1  17
BRANCH   1  25
ATOM     25  C   UNL     1      -7.302  -1.216  22.742  0.00  0.00    -0.020 C 
ATOM     26  C   UNL     1      -6.249  -0.427  22.552  0.00  0.00    +0.041 C 
BRANCH  26  27
ATOM     27  C   UNL     1      -4.900  -0.916  22.775  0.00  0.00    +0.234 C 
ATOM     28  O   UNL     1      -4.611  -2.131  22.697  0.00  0.00    -0.283 OA
ENDBRANCH  26  27
ENDBRANCH   1  25
TORSDOF 3
