MODEL 1
REMARK VINA RESULT:    -7.143      0.000      0.000
REMARK INTER + INTRA:         -10.322
REMARK INTER:                 -10.275
REMARK INTRA:                  -0.047
REMARK UNBOUND:                -0.047
REMARK  Name = =
REMARK  9 active torsions:
REMARK  status: ('A' for Active; 'I' for Inactive)
REMARK    1  A    between atoms: N_1  and  O_13
REMARK    2  A    between atoms: C_2  and  C_6
REMARK    3  A    between atoms: N_5  and  N_9
REMARK    4  A    between atoms: C_6  and  O_8
REMARK    5  A    between atoms: N_9  and  C_10
REMARK    6  A    between atoms: C_10  and  N_12
REMARK    7  A    between atoms: O_13  and  C_14
REMARK    8  A    between atoms: C_18  and  C_22
REMARK    9  A    between atoms: C_19  and  O_21
REMARK                            x       y       z     vdW  Elec       q    Type
REMARK                         _______ _______ _______ _____ _____    ______ ____
ROOT
ATOM      1  N   UNL     1      50.552 160.845  31.201  0.00  0.00    -0.069 N 
ATOM      2  C   UNL     1      50.023 161.523  32.306  0.00  0.00    +0.361 C 
ATOM      3  O   UNL     1      50.696 162.456  32.828  0.00  0.00    -0.259 OA
ATOM      4  C   UNL     1      51.837 161.203  30.673  0.00  0.00    +0.227 C 
ATOM      5  N   UNL     1      52.511 162.156  31.214  0.00  0.00    -0.158 NA
ENDROOT
BRANCH   2   6
ATOM      6  C   UNL     1      48.724 161.211  32.899  0.00  0.00    +0.396 C 
ATOM      7  O   UNL     1      48.393 161.660  34.029  0.00  0.00    -0.240 OA
BRANCH   6   8
ATOM      8  O   UNL     1      47.806 160.407  32.238  0.00  0.00    -0.474 OA
ATOM      9  H   UNL     1      47.638 160.538  31.325  0.00  0.00    +0.296 HD
ENDBRANCH   6   8
ENDBRANCH   2   6
BRANCH   5  10
ATOM     10  N   UNL     1      53.754 162.553  30.758  0.00  0.00    -0.217 N 
ATOM     11  H   UNL     1      53.828 163.351  30.187  0.00  0.00    +0.176 HD
BRANCH  10  12
ATOM     12  C   UNL     1      54.913 161.836  31.094  0.00  0.00    +0.147 C 
ATOM     13  S   UNL     1      55.649 162.110  32.543  0.00  0.00    -0.017 S 
BRANCH  12  14
ATOM     14  N   UNL     1      55.461 160.881  30.198  0.00  0.00    -0.339 N 
ATOM     15  H   UNL     1      54.913 160.123  29.891  0.00  0.00    +0.144 HD
ATOM     16  H   UNL     1      56.389 160.977  29.884  0.00  0.00    +0.144 HD
ENDBRANCH  12  14
ENDBRANCH  10  12
ENDBRANCH   5  10
BRANCH   1  17
ATOM     17  O   UNL     1      49.863 159.821  30.590  0.00  0.00    -0.379 OA
BRANCH  17  18
ATOM     18  C   UNL     1      50.484 158.686  30.083  0.00  0.00    +0.159 C 
ATOM     19  C   UNL     1      49.832 157.543  30.149  0.00  0.00    +0.078 C 
ATOM     20  C   UNL     1      50.474 156.351  29.623  0.00  0.00    +0.204 C 
ATOM     21  O   UNL     1      49.930 155.211  29.641  0.00  0.00    -0.286 OA
ATOM     22  C   UNL     1      51.825 156.458  29.034  0.00  0.00    +0.111 C 
ATOM     23  C   UNL     1      52.436 157.619  28.990  0.00  0.00    +0.125 C 
ATOM     24  C   UNL     1      51.815 158.832  29.512  0.00  0.00    +0.131 C 
BRANCH  23  25
ATOM     25  O   UNL     1      53.716 157.752  28.439  0.00  0.00    -0.509 OA
ATOM     26  H   UNL     1      54.212 156.990  28.216  0.00  0.00    +0.292 HD
ENDBRANCH  23  25
BRANCH  22  27
ATOM     27  C   UNL     1      52.483 155.286  28.503  0.00  0.00    +0.240 C 
ATOM     28  O   UNL     1      52.864 155.297  27.299  0.00  0.00    -0.283 OA
ENDBRANCH  22  27
ENDBRANCH  17  18
ENDBRANCH   1  17
TORSDOF 9
ENDMDL
