REMARK  Name = =
REMARK  9 active torsions:
REMARK  status: ('A' for Active; 'I' for Inactive)
REMARK    1  A    between atoms: N_1  and  O_13
REMARK    2  A    between atoms: C_2  and  C_6
REMARK    3  A    between atoms: N_5  and  N_9
REMARK    4  A    between atoms: C_6  and  O_8
REMARK    5  A    between atoms: N_9  and  C_10
REMARK    6  A    between atoms: C_10  and  N_12
REMARK    7  A    between atoms: O_13  and  C_14
REMARK    8  A    between atoms: C_18  and  C_22
REMARK    9  A    between atoms: C_19  and  O_21
REMARK                            x       y       z     vdW  Elec       q    Type
REMARK                         _______ _______ _______ _____ _____    ______ ____
ROOT
ATOM      1  N   UNL     1      52.024 156.663  28.145  0.00  0.00    -0.069 N 
ATOM      2  C   UNL     1      51.192 156.768  29.267  0.00  0.00    +0.361 C 
ATOM      3  O   UNL     1      51.595 157.431  30.264  0.00  0.00    -0.259 OA
ATOM      4  C   UNL     1      53.312 157.295  28.131  0.00  0.00    +0.227 C 
ATOM      5  N   UNL     1      53.709 157.967  29.154  0.00  0.00    -0.158 NA
ENDROOT
BRANCH   2   6
ATOM      6  C   UNL     1      49.871 156.150  29.354  0.00  0.00    +0.396 C 
ATOM      7  O   UNL     1      49.665 154.978  28.940  0.00  0.00    -0.240 OA
BRANCH   6   8
ATOM      8  O   UNL     1      48.791 156.834  29.897  0.00  0.00    -0.474 OA
ATOM      9  H   UNL     1      48.902 157.708  30.216  0.00  0.00    +0.296 HD
ENDBRANCH   6   8
ENDBRANCH   2   6
BRANCH   5  10
ATOM     10  N   UNL     1      54.937 158.600  29.208  0.00  0.00    -0.217 N 
ATOM     11  H   UNL     1      55.353 158.774  30.083  0.00  0.00    +0.176 HD
BRANCH  10  12
ATOM     12  C   UNL     1      55.600 158.998  28.037  0.00  0.00    +0.147 C 
ATOM     13  S   UNL     1      55.159 158.347  26.589  0.00  0.00    -0.017 S 
BRANCH  12  14
ATOM     14  N   UNL     1      56.650 159.952  28.087  0.00  0.00    -0.339 N 
ATOM     15  H   UNL     1      56.918 160.344  28.949  0.00  0.00    +0.144 HD
ATOM     16  H   UNL     1      57.110 160.221  27.259  0.00  0.00    +0.144 HD
ENDBRANCH  12  14
ENDBRANCH  10  12
ENDBRANCH   5  10
BRANCH   1  17
ATOM     17  O   UNL     1      51.637 155.956  27.029  0.00  0.00    -0.379 OA
BRANCH  17  18
ATOM     18  C   UNL     1      52.256 154.779  26.624  0.00  0.00    +0.159 C 
ATOM     19  C   UNL     1      53.272 154.870  25.790  0.00  0.00    +0.078 C 
ATOM     20  C   UNL     1      53.924 153.645  25.361  0.00  0.00    +0.204 C 
ATOM     21  O   UNL     1      54.904 153.630  24.565  0.00  0.00    -0.286 OA
ATOM     22  C   UNL     1      53.431 152.348  25.869  0.00  0.00    +0.111 C 
ATOM     23  C   UNL     1      52.415 152.307  26.699  0.00  0.00    +0.125 C 
ATOM     24  C   UNL     1      51.741 153.522  27.146  0.00  0.00    +0.131 C 
BRANCH  23  25
ATOM     25  O   UNL     1      51.925 151.094  27.198  0.00  0.00    -0.509 OA
ATOM     26  H   UNL     1      52.324 150.286  26.941  0.00  0.00    +0.292 HD
ENDBRANCH  23  25
BRANCH  22  27
ATOM     27  C   UNL     1      54.064 151.116  25.457  0.00  0.00    +0.240 C 
ATOM     28  O   UNL     1      55.079 151.176  24.708  0.00  0.00    -0.283 OA
ENDBRANCH  22  27
ENDBRANCH  17  18
ENDBRANCH   1  17
TORSDOF 9
