REMARK  Name = =
REMARK  1 active torsions:
REMARK  status: ('A' for Active; 'I' for Inactive)
REMARK    1  A    between atoms: S_1  and  N_4
REMARK                            x       y       z     vdW  Elec       q    Type
REMARK                         _______ _______ _______ _____ _____    ______ ____
ROOT
ATOM      1  S   UNL     1      -4.135  -3.689  31.263  0.00  0.00    +0.017 S 
ATOM      2  O   UNL     1      -4.215  -5.030  31.908  0.00  0.00    -0.161 OA
ATOM      3  O   UNL     1      -4.970  -2.754  32.118  0.00  0.00    -0.161 OA
ATOM      4  H   UNL     1      -4.589  -3.792  29.985  0.00  0.00    +0.229 HD
ENDROOT
BRANCH   1   5
ATOM      5  N   UNL     1      -2.551  -3.080  31.133  0.00  0.00    -0.211 NA
ATOM      6  H   UNL     1      -2.149  -2.978  32.065  0.00  0.00    +0.144 HD
ATOM      7  H   UNL     1      -2.573  -2.171  30.671  0.00  0.00    +0.144 HD
ENDBRANCH   1   5
TORSDOF 1
