REMARK  Name = =
REMARK  2 active torsions:
REMARK  status: ('A' for Active; 'I' for Inactive)
REMARK    1  A    between atoms: O_1  and  C_2
REMARK    2  A    between atoms: O_1  and  C_4
REMARK                            x       y       z     vdW  Elec       q    Type
REMARK                         _______ _______ _______ _____ _____    ______ ____
ROOT
ATOM      1  O   UNL     1      -4.273  -4.466  30.819  0.00  0.00    -0.377 OA
ENDROOT
BRANCH   1   2
ATOM      2  C   UNL     1      -3.142  -4.272  30.073  0.00  0.00    +0.425 C 
ATOM      3  O   UNL     1      -2.842  -3.132  29.669  0.00  0.00    -0.237 OA
ENDBRANCH   1   2
BRANCH   1   4
ATOM      4  C   UNL     1      -4.751  -3.497  31.681  0.00  0.00    +0.425 C 
ATOM      5  O   UNL     1      -4.110  -3.326  32.773  0.00  0.00    -0.237 OA
ENDBRANCH   1   4
TORSDOF 2
