REMARK  Name = =
REMARK  3 active torsions:
REMARK  status: ('A' for Active; 'I' for Inactive)
REMARK    1  A    between atoms: N_1  and  S_7
REMARK    2  A    between atoms: C_5  and  C_11
REMARK    3  A    between atoms: S_7  and  N_10
REMARK                            x       y       z     vdW  Elec       q    Type
REMARK                         _______ _______ _______ _____ _____    ______ ____
ROOT
ATOM      1  N   UNL     1      -4.485  -4.296  31.936  0.00  0.00    -0.076 N 
ATOM      2  C   UNL     1      -4.173  -4.151  30.574  0.00  0.00    +0.327 C 
ATOM      3  O   UNL     1      -4.676  -3.272  29.797  0.00  0.00    -0.251 OA
ATOM      4  N   UNL     1      -3.231  -5.001  29.910  0.00  0.00    -0.312 N 
ATOM      5  C   UNL     1      -5.387  -3.472  32.610  0.00  0.00    +0.276 C 
ATOM      6  O   UNL     1      -5.561  -3.711  33.858  0.00  0.00    -0.268 OA
ATOM      7  H   UNL     1      -2.778  -5.718  30.410  0.00  0.00    +0.147 HD
ATOM      8  H   UNL     1      -3.037  -4.868  28.954  0.00  0.00    +0.147 HD
ENDROOT
BRANCH   1   9
ATOM      9  S   UNL     1      -3.683  -5.563  32.793  0.00  0.00    +0.119 S 
ATOM     10  O   UNL     1      -4.717  -6.669  32.953  0.00  0.00    -0.138 OA
ATOM     11  O   UNL     1      -3.342  -5.087  34.193  0.00  0.00    -0.138 OA
BRANCH   9  12
ATOM     12  N   UNL     1      -2.296  -6.147  31.986  0.00  0.00    -0.190 NA
ATOM     13  H   UNL     1      -2.554  -6.459  31.050  0.00  0.00    +0.146 HD
ATOM     14  H   UNL     1      -1.902  -6.929  32.509  0.00  0.00    +0.146 HD
ENDBRANCH   9  12
ENDBRANCH   1   9
BRANCH   5  15
ATOM     15  C   UNL     1      -6.155  -2.377  32.076  0.00  0.00    +0.060 C 
ATOM     16  C   UNL     1      -6.485  -1.346  32.845  0.00  0.00    +0.005 C 
ENDBRANCH   5  15
TORSDOF 3
