REMARK  Name = =
REMARK  2 active torsions:
REMARK  status: ('A' for Active; 'I' for Inactive)
REMARK    1  A    between atoms: O_1  and  C_2
REMARK    2  A    between atoms: O_1  and  C_5
REMARK                            x       y       z     vdW  Elec       q    Type
REMARK                         _______ _______ _______ _____ _____    ______ ____
ROOT
ATOM      1  O   UNL     1      -3.624  -2.831  30.974  0.00  0.00    -0.377 OA
ENDROOT
BRANCH   1   2
ATOM      2  C   UNL     1      -3.622  -4.061  30.303  0.00  0.00    +0.383 C 
ATOM      3 BR   UNL     1      -3.777  -5.689  31.263  0.00  0.00    +0.041 Br
ATOM      4  O   UNL     1      -3.516  -4.067  29.048  0.00  0.00    -0.237 OA
ENDBRANCH   1   2
BRANCH   1   5
ATOM      5  C   UNL     1      -4.814  -2.176  31.261  0.00  0.00    +0.426 C 
ATOM      6  O   UNL     1      -5.914  -2.779  31.180  0.00  0.00    -0.237 OA
ENDBRANCH   1   5
TORSDOF 2
