REMARK  Name = =
REMARK  4 active torsions:
REMARK  status: ('A' for Active; 'I' for Inactive)
REMARK    1  A    between atoms: N_1  and  S_7
REMARK    2  A    between atoms: C_5  and  C_11
REMARK    3  A    between atoms: S_7  and  N_10
REMARK    4  A    between atoms: C_12  and  C_13
REMARK                            x       y       z     vdW  Elec       q    Type
REMARK                         _______ _______ _______ _____ _____    ______ ____
ROOT
ATOM      1  N   UNL     1      -4.000  -3.997  31.669  0.00  0.00    -0.076 N 
ATOM      2  C   UNL     1      -3.193  -3.572  30.595  0.00  0.00    +0.327 C 
ATOM      3  O   UNL     1      -2.423  -4.301  29.934  0.00  0.00    -0.251 OA
ATOM      4  N   UNL     1      -3.202  -2.195  30.161  0.00  0.00    -0.312 N 
ATOM      5  C   UNL     1      -4.012  -5.324  32.106  0.00  0.00    +0.276 C 
ATOM      6  O   UNL     1      -4.802  -5.578  33.098  0.00  0.00    -0.268 OA
ATOM      7  H   UNL     1      -3.776  -1.539  30.618  0.00  0.00    +0.147 HD
ATOM      8  H   UNL     1      -2.634  -1.912  29.408  0.00  0.00    +0.147 HD
ENDROOT
BRANCH   1   9
ATOM      9  S   UNL     1      -5.019  -2.846  32.487  0.00  0.00    +0.119 S 
ATOM     10  O   UNL     1      -4.736  -2.969  33.956  0.00  0.00    -0.138 OA
ATOM     11  O   UNL     1      -6.433  -3.273  32.268  0.00  0.00    -0.138 OA
BRANCH   9  12
ATOM     12  N   UNL     1      -4.704  -1.239  32.021  0.00  0.00    -0.190 NA
ATOM     13  H   UNL     1      -3.724  -1.019  32.199  0.00  0.00    +0.146 HD
ATOM     14  H   UNL     1      -5.297  -0.607  32.558  0.00  0.00    +0.146 HD
ENDBRANCH   9  12
ENDBRANCH   1   9
BRANCH   5  15
ATOM     15  C   UNL     1      -3.248  -6.426  31.573  0.00  0.00    +0.061 C 
ATOM     16  C   UNL     1      -3.298  -7.614  32.146  0.00  0.00    +0.012 C 
BRANCH  16  17
ATOM     17  C   UNL     1      -2.538  -8.745  31.632  0.00  0.00    +0.042 C 
ATOM     18  S   UNL     1      -1.444  -8.504  30.457  0.00  0.00    -0.050 S 
ENDBRANCH  16  17
ENDBRANCH   5  15
TORSDOF 4
