REMARK  Name = =
REMARK  3 active torsions:
REMARK  status: ('A' for Active; 'I' for Inactive)
REMARK    1  A    between atoms: C_1  and  C_3
REMARK    2  A    between atoms: C_1  and  O_5
REMARK    3  A    between atoms: O_5  and  C_6
REMARK                            x       y       z     vdW  Elec       q    Type
REMARK                         _______ _______ _______ _____ _____    ______ ____
ROOT
ATOM      1  C   UNL     1      -3.073  -4.678  30.701  0.00  0.00    +0.367 C 
ATOM      2  O   UNL     1      -4.047  -5.464  30.779  0.00  0.00    -0.243 OA
ENDROOT
BRANCH   1   3
ATOM      3  C   UNL     1      -1.707  -5.125  30.470  0.00  0.00    +0.172 C 
ATOM      4  N   UNL     1      -0.700  -4.346  30.459  0.00  0.00    -0.291 NA
ATOM      5  H   UNL     1       0.201  -4.708  30.297  0.00  0.00    +0.187 HD
ENDBRANCH   1   3
BRANCH   1   6
ATOM      6  O   UNL     1      -3.321  -3.324  30.843  0.00  0.00    -0.380 OA
BRANCH   6   7
ATOM      7  C   UNL     1      -4.606  -2.842  31.054  0.00  0.00    +0.383 C 
ATOM      8 BR   UNL     1      -4.898  -0.993  31.414  0.00  0.00    +0.041 Br
ATOM      9  O   UNL     1      -5.539  -3.687  30.991  0.00  0.00    -0.237 OA
ENDBRANCH   6   7
ENDBRANCH   1   6
TORSDOF 3
