REMARK  Name = =
REMARK  6 active torsions:
REMARK  status: ('A' for Active; 'I' for Inactive)
REMARK    1  A    between atoms: C_3  and  N_4
REMARK    2  A    between atoms: C_3  and  C_5
REMARK    3  A    between atoms: N_4  and  S_13
REMARK    4  A    between atoms: C_5  and  O_7
REMARK    5  A    between atoms: O_7  and  C_8
REMARK    6  A    between atoms: O_11  and  O_12
REMARK                            x       y       z     vdW  Elec       q    Type
REMARK                         _______ _______ _______ _____ _____    ______ ____
ROOT
ATOM      1  P   UNL     1       0.756  -5.452  30.069  0.00  0.00    +0.000 P 
ENDROOT
TORSDOF 0
REMARK  Name = =
REMARK  6 active torsions:
REMARK  status: ('A' for Active; 'I' for Inactive)
REMARK    1  A    between atoms: C_3  and  N_4
REMARK    2  A    between atoms: C_3  and  C_5
REMARK    3  A    between atoms: N_4  and  S_13
REMARK    4  A    between atoms: C_5  and  O_7
REMARK    5  A    between atoms: O_7  and  C_8
REMARK    6  A    between atoms: O_11  and  O_12
REMARK                            x       y       z     vdW  Elec       q    Type
REMARK                         _______ _______ _______ _____ _____    ______ ____
ROOT
ATOM      1  O   HOH     1       0.612  -6.479  28.964  0.00  0.00    -0.253 OA
ATOM      2  H   HOH     0       1.582  -6.479  28.964  0.00  0.00    +0.253 HD
ENDROOT
TORSDOF 0
REMARK  Name = =
REMARK  6 active torsions:
REMARK  status: ('A' for Active; 'I' for Inactive)
REMARK    1  A    between atoms: C_3  and  N_4
REMARK    2  A    between atoms: C_3  and  C_5
REMARK    3  A    between atoms: N_4  and  S_13
REMARK    4  A    between atoms: C_5  and  O_7
REMARK    5  A    between atoms: O_7  and  C_8
REMARK    6  A    between atoms: O_11  and  O_12
REMARK                            x       y       z     vdW  Elec       q    Type
REMARK                         _______ _______ _______ _____ _____    ______ ____
ROOT
ATOM      1  C   UNL     1      -3.014  -4.839  30.894  0.00  0.00    +0.343 C 
ATOM      2  O   UNL     1      -3.979  -5.589  31.170  0.00  0.00    -0.248 OA
ENDROOT
BRANCH   1   3
ATOM      3  C   UNL     1      -1.697  -5.414  30.660  0.00  0.00    +0.211 C 
BRANCH   3   4
ATOM      4  N   UNL     1      -0.723  -4.667  30.310  0.00  0.00    -0.154 NA
BRANCH   4   5
ATOM      5  S   UNL     1       0.516  -3.460  29.449  0.00  0.00    -0.077 S 
ATOM      6  H   UNL     1       1.630  -3.328  30.219  0.00  0.00    +0.121 HD
ENDBRANCH   4   5
ENDBRANCH   3   4
ENDBRANCH   1   3
BRANCH   1   7
ATOM      7  O   UNL     1      -3.233  -3.454  30.818  0.00  0.00    -0.383 OA
BRANCH   7   8
ATOM      8  C   UNL     1      -4.491  -2.903  31.027  0.00  0.00    +0.383 C 
ATOM      9 BR   UNL     1      -4.785  -1.021  31.049  0.00  0.00    +0.041 Br
ATOM     10  O   UNL     1      -5.466  -3.669  31.208  0.00  0.00    -0.237 OA
ENDBRANCH   7   8
ENDBRANCH   1   7
TORSDOF 5
REMARK  Name = =
REMARK  6 active torsions:
REMARK  status: ('A' for Active; 'I' for Inactive)
REMARK    1  A    between atoms: C_3  and  N_4
REMARK    2  A    between atoms: C_3  and  C_5
REMARK    3  A    between atoms: N_4  and  S_13
REMARK    4  A    between atoms: C_5  and  O_7
REMARK    5  A    between atoms: O_7  and  C_8
REMARK    6  A    between atoms: O_11  and  O_12
REMARK                            x       y       z     vdW  Elec       q    Type
REMARK                         _______ _______ _______ _____ _____    ______ ____
ROOT
ATOM      1  O   UNL     1       0.985  -6.557  31.359  0.00  0.00    -0.253 OA
ATOM      2  H   UNL     1       0.434  -5.807  31.634  0.00  0.00    +0.253 HD
ENDROOT
BRANCH   1   3
ATOM      3  O   UNL     1       2.256  -6.002  30.430  0.00  0.00    -0.253 OA
ATOM      4  H   UNL     1       2.807  -6.752  30.155  0.00  0.00    +0.253 HD
ENDBRANCH   1   3
TORSDOF 1
