REMARK  Name = =
REMARK  8 active torsions:
REMARK  status: ('A' for Active; 'I' for Inactive)
REMARK    1  A    between atoms: P_1  and  N_4
REMARK    2  A    between atoms: P_1  and  O_11
REMARK    3  A    between atoms: O_2  and  S_12
REMARK    4  A    between atoms: O_2  and  O_13
REMARK    5  A    between atoms: C_3  and  C_5
REMARK    6  A    between atoms: C_5  and  O_7
REMARK    7  A    between atoms: O_7  and  C_8
REMARK    8  A    between atoms: O_13  and  C_14
REMARK                            x       y       z     vdW  Elec       q    Type
REMARK                         _______ _______ _______ _____ _____    ______ ____
ROOT
ATOM      1  C   UNL     1      -1.532  -5.606  29.351  0.00  0.00    +0.181 C 
ATOM      2  N   UNL     1      -1.937  -4.684  30.159  0.00  0.00    -0.225 NA
ENDROOT
BRANCH   2   3
ATOM      3  P   UNL     1      -3.119  -3.555  29.531  0.00  0.00    +0.137 P 
ATOM      4  H   UNL     1      -2.731  -2.969  28.343  0.00  0.00    +0.113 HD
BRANCH   3   5
ATOM      5  O   UNL     1      -4.327  -4.733  29.330  0.00  0.00    -0.355 OA
ATOM      6  H   UNL     1      -4.559  -5.109  30.194  0.00  0.00    +0.216 HD
ENDBRANCH   3   5
ENDBRANCH   2   3
BRANCH   1   7
ATOM      7  C   UNL     1      -0.542  -6.546  29.886  0.00  0.00    +0.368 C 
ATOM      8  O   UNL     1       0.283  -7.108  29.099  0.00  0.00    -0.243 OA
BRANCH   7   9
ATOM      9  O   UNL     1      -0.448  -6.866  31.219  0.00  0.00    -0.380 OA
BRANCH   9  10
ATOM     10  C   UNL     1       0.723  -6.715  31.948  0.00  0.00    +0.383 C 
ATOM     11 BR   UNL     1       1.166  -8.013  33.275  0.00  0.00    +0.041 Br
ATOM     12  O   UNL     1       1.483  -5.729  31.734  0.00  0.00    -0.237 OA
ENDBRANCH   9  10
ENDBRANCH   7   9
ENDBRANCH   1   7
TORSDOF 5
REMARK  Name = =
REMARK  8 active torsions:
REMARK  status: ('A' for Active; 'I' for Inactive)
REMARK    1  A    between atoms: P_1  and  N_4
REMARK    2  A    between atoms: P_1  and  O_11
REMARK    3  A    between atoms: O_2  and  S_12
REMARK    4  A    between atoms: O_2  and  O_13
REMARK    5  A    between atoms: C_3  and  C_5
REMARK    6  A    between atoms: C_5  and  O_7
REMARK    7  A    between atoms: O_7  and  C_8
REMARK    8  A    between atoms: O_13  and  C_14
REMARK                            x       y       z     vdW  Elec       q    Type
REMARK                         _______ _______ _______ _____ _____    ______ ____
ROOT
ATOM      1  C   UNL     1      -4.934  -2.313  30.851  0.00  0.00    +0.162 C 
ATOM      2  C   UNL     1      -5.322  -0.954  31.326  0.00  0.00    +0.059 C 
ATOM      3  C   UNL     1      -6.732  -1.162  31.748  0.00  0.00    -0.023 C 
ATOM      4  C   UNL     1      -6.855  -2.479  32.139  0.00  0.00    -0.023 C 
ATOM      5  C   UNL     1      -8.070  -2.924  32.576  0.00  0.00    -0.004 C 
ATOM      6  C   UNL     1      -9.165  -2.075  32.629  0.00  0.00    -0.000 C 
ATOM      7  C   UNL     1      -9.045  -0.767  32.242  0.00  0.00    -0.000 C 
ATOM      8  C   UNL     1      -7.819  -0.315  31.800  0.00  0.00    -0.004 C 
ATOM      9  C   UNL     1      -5.526  -3.169  31.981  0.00  0.00    +0.059 C 
ENDROOT
BRANCH   1  10
ATOM     10  O   UNL     1      -3.565  -2.501  30.744  0.00  0.00    -0.211 OA
BRANCH  10  11
ATOM     11  O   UNL     1      -2.500  -2.968  30.795  0.00  0.00    -0.164 OA
BRANCH  11  12
ATOM     12  S   UNL     1      -2.321  -1.656  29.492  0.00  0.00    +0.015 S 
ATOM     13  H   UNL     1      -1.044  -1.654  29.023  0.00  0.00    +0.137 HD
ENDBRANCH  11  12
ENDBRANCH  10  11
ENDBRANCH   1  10
TORSDOF 3
