REMARK  Name = =
REMARK  7 active torsions:
REMARK  status: ('A' for Active; 'I' for Inactive)
REMARK    1  A    between atoms: C_1  and  O_17
REMARK    2  A    between atoms: C_2  and  S_10
REMARK    3  A    between atoms: S_10  and  N_13
REMARK    4  A    between atoms: O_17  and  O_19
REMARK    5  A    between atoms: C_20  and  C_22
REMARK    6  A    between atoms: C_22  and  O_24
REMARK    7  A    between atoms: O_24  and  C_25
REMARK                            x       y       z     vdW  Elec       q    Type
REMARK                         _______ _______ _______ _____ _____    ______ ____
ROOT
ATOM      1  C   UNL     1      -1.426  -4.005  30.183  0.00  0.00    +0.184 C 
ATOM      2  C   UNL     1      -0.430  -4.884  29.418  0.00  0.00    +0.201 C 
ATOM      3  C   UNL     1       0.192  -3.913  28.531  0.00  0.00    -0.000 C 
ATOM      4  C   UNL     1      -0.796  -2.986  28.209  0.00  0.00    -0.022 C 
ATOM      5  C   UNL     1      -0.560  -1.915  27.378  0.00  0.00    -0.004 C 
ATOM      6  C   UNL     1       0.693  -1.739  26.835  0.00  0.00    -0.000 C 
ATOM      7  C   UNL     1       1.694  -2.633  27.129  0.00  0.00    -0.000 C 
ATOM      8  C   UNL     1       1.423  -3.679  27.954  0.00  0.00    -0.003 C 
ATOM      9  C   UNL     1      -2.071  -3.362  28.912  0.00  0.00    +0.061 C 
ENDROOT
BRANCH   2  10
ATOM     10  S   UNL     1       0.564  -5.846  30.434  0.00  0.00    +0.062 S 
ATOM     11  O   UNL     1       1.678  -5.120  31.123  0.00  0.00    -0.154 OA
ATOM     12  O   UNL     1      -0.312  -6.432  31.539  0.00  0.00    -0.154 OA
BRANCH  10  13
ATOM     13  N   UNL     1       1.288  -7.177  29.619  0.00  0.00    -0.173 N 
ATOM     14  C   UNL     1       0.751  -7.788  28.459  0.00  0.00    +0.316 C 
ATOM     15  O   UNL     1      -0.315  -7.364  27.967  0.00  0.00    -0.251 OA
ATOM     16  N   UNL     1       1.381  -8.889  27.814  0.00  0.00    -0.312 N 
ATOM     17  H   UNL     1       2.129  -7.537  29.982  0.00  0.00    +0.178 HD
ATOM     18  H   UNL     1       2.223  -9.253  28.171  0.00  0.00    +0.147 HD
ATOM     19  H   UNL     1       0.975  -9.287  27.011  0.00  0.00    +0.147 HD
ENDBRANCH  10  13
ENDBRANCH   2  10
BRANCH   1  20
ATOM     20  O   UNL     1      -2.372  -4.711  30.867  0.00  0.00    -0.224 OA
BRANCH  20  21
ATOM     21  O   UNL     1      -3.253  -5.144  31.611  0.00  0.00    -0.249 OA
ATOM     22  H   UNL     1      -3.447  -6.066  31.380  0.00  0.00    +0.253 HD
ENDBRANCH  20  21
ENDBRANCH   1  20
TORSDOF 4
REMARK  Name = =
REMARK  7 active torsions:
REMARK  status: ('A' for Active; 'I' for Inactive)
REMARK    1  A    between atoms: C_1  and  O_17
REMARK    2  A    between atoms: C_2  and  S_10
REMARK    3  A    between atoms: S_10  and  N_13
REMARK    4  A    between atoms: O_17  and  O_19
REMARK    5  A    between atoms: C_20  and  C_22
REMARK    6  A    between atoms: C_22  and  O_24
REMARK    7  A    between atoms: O_24  and  C_25
REMARK                            x       y       z     vdW  Elec       q    Type
REMARK                         _______ _______ _______ _____ _____    ______ ____
ROOT
ATOM      1  P   UNL     1      -3.381  -3.669  31.750  0.00  0.00    +0.000 P 
ENDROOT
TORSDOF 0
REMARK  Name = =
REMARK  7 active torsions:
REMARK  status: ('A' for Active; 'I' for Inactive)
REMARK    1  A    between atoms: C_1  and  O_17
REMARK    2  A    between atoms: C_2  and  S_10
REMARK    3  A    between atoms: S_10  and  N_13
REMARK    4  A    between atoms: O_17  and  O_19
REMARK    5  A    between atoms: C_20  and  C_22
REMARK    6  A    between atoms: C_22  and  O_24
REMARK    7  A    between atoms: O_24  and  C_25
REMARK                            x       y       z     vdW  Elec       q    Type
REMARK                         _______ _______ _______ _____ _____    ______ ____
ROOT
ATOM      1  C   UNL     1      -5.955  -2.039  31.811  0.00  0.00    +0.370 C 
ATOM      2  O   UNL     1      -5.827  -2.718  32.853  0.00  0.00    -0.243 OA
ENDROOT
BRANCH   1   3
ATOM      3  C   UNL     1      -4.805  -1.569  31.088  0.00  0.00    +0.204 C 
ATOM      4  N   UNL     1      -3.667  -2.124  30.966  0.00  0.00    -0.139 NA
ENDBRANCH   1   3
BRANCH   1   5
ATOM      5  O   UNL     1      -7.266  -1.773  31.410  0.00  0.00    -0.380 OA
BRANCH   5   6
ATOM      6  C   UNL     1      -8.329  -2.270  32.186  0.00  0.00    +0.383 C 
ATOM      7 BR   UNL     1     -10.103  -2.240  31.534  0.00  0.00    +0.041 Br
ATOM      8  O   UNL     1      -8.094  -2.741  33.335  0.00  0.00    -0.237 OA
ENDBRANCH   5   6
ENDBRANCH   1   5
TORSDOF 3
REMARK  Name = =
REMARK  7 active torsions:
REMARK  status: ('A' for Active; 'I' for Inactive)
REMARK    1  A    between atoms: C_1  and  O_17
REMARK    2  A    between atoms: C_2  and  S_10
REMARK    3  A    between atoms: S_10  and  N_13
REMARK    4  A    between atoms: O_17  and  O_19
REMARK    5  A    between atoms: C_20  and  C_22
REMARK    6  A    between atoms: C_22  and  O_24
REMARK    7  A    between atoms: O_24  and  C_25
REMARK                            x       y       z     vdW  Elec       q    Type
REMARK                         _______ _______ _______ _____ _____    ______ ____
ROOT
ATOM      1  O   HOH     1      -3.627  -3.739  33.403  0.00  0.00    -0.253 OA
ATOM      2  H   HOH     0      -2.657  -3.739  33.403  0.00  0.00    +0.253 HD
ENDROOT
TORSDOF 0
REMARK  Name = =
REMARK  7 active torsions:
REMARK  status: ('A' for Active; 'I' for Inactive)
REMARK    1  A    between atoms: C_1  and  O_17
REMARK    2  A    between atoms: C_2  and  S_10
REMARK    3  A    between atoms: S_10  and  N_13
REMARK    4  A    between atoms: O_17  and  O_19
REMARK    5  A    between atoms: C_20  and  C_22
REMARK    6  A    between atoms: C_22  and  O_24
REMARK    7  A    between atoms: O_24  and  C_25
REMARK                            x       y       z     vdW  Elec       q    Type
REMARK                         _______ _______ _______ _____ _____    ______ ____
ROOT
ATOM      1  S   UNL     1      -4.735  -5.050  30.816  0.00  0.00    -0.114 S 
ATOM      2  H   UNL     1      -3.375  -5.050  30.816  0.00  0.00    +0.114 HD
ENDROOT
TORSDOF 0
