MODEL 1
REMARK VINA RESULT:    -9.907      0.000      0.000
REMARK INTER + INTRA:         -18.688
REMARK INTER:                 -16.277
REMARK INTRA:                  -2.411
REMARK UNBOUND:                -2.411
REMARK  Name = =
REMARK  11 active torsions:
REMARK  status: ('A' for Active; 'I' for Inactive)
REMARK    1  A    between atoms: N_1  and  N_28
REMARK    2  A    between atoms: C_3  and  N_7
REMARK    3  A    between atoms: N_7  and  C_10
REMARK    4  A    between atoms: C_11  and  O_22
REMARK    5  A    between atoms: C_13  and  N_16
REMARK    6  A    between atoms: O_22  and  C_23
REMARK    7  A    between atoms: C_23  and  O_25
REMARK    8  A    between atoms: O_25  and  C_26
REMARK    9  A    between atoms: N_28  and  C_29
REMARK   10  A    between atoms: C_30  and  N_35
REMARK   11  A    between atoms: N_35  and  C_36
REMARK                            x       y       z     vdW  Elec       q    Type
REMARK                         _______ _______ _______ _____ _____    ______ ____
ROOT
ATOM      1  N   UNL     1      -2.565  -3.213  29.899  0.00  0.00    -0.216 NA
ATOM      2  C   UNL     1      -2.089  -4.538  29.721  0.00  0.00    +0.125 C 
ATOM      3  C   UNL     1      -1.563  -4.936  28.405  0.00  0.00    +0.155 C 
ATOM      4  N   UNL     1      -0.964  -3.870  27.632  0.00  0.00    -0.280 NA
ATOM      5  C   UNL     1      -1.461  -2.575  27.908  0.00  0.00    +0.089 C 
ATOM      6  C   UNL     1      -1.579  -2.286  29.384  0.00  0.00    +0.106 C 
ATOM      7  H   UNL     1      -1.127  -4.067  26.644  0.00  0.00    +0.125 HD
ENDROOT
BRANCH   3   8
ATOM      8  N   UNL     1      -0.500  -5.894  28.614  0.00  0.00    -0.235 N 
ATOM      9  C   UNL     1      -0.837  -7.133  29.224  0.00  0.00    +0.308 C 
ATOM     10  O   UNL     1       0.048  -8.006  29.466  0.00  0.00    -0.265 OA
BRANCH   8  11
ATOM     11  C   UNL     1       0.827  -5.580  28.250  0.00  0.00    +0.090 C 
ATOM     12  C   UNL     1       1.690  -4.925  29.086  0.00  0.00    +0.167 C 
ATOM     13  C   UNL     1       2.976  -4.650  28.617  0.00  0.00    +0.054 C 
ATOM     14  C   UNL     1       3.363  -5.028  27.352  0.00  0.00    +0.051 C 
ATOM     15  C   UNL     1       2.501  -5.686  26.507  0.00  0.00    +0.016 C 
ATOM     16  C   UNL     1       1.233  -5.963  26.956  0.00  0.00    +0.019 C 
BRANCH  14  17
ATOM     17  N   UNL     1       4.664  -4.730  26.931  0.00  0.00    -0.304 N 
ATOM     18  C   UNL     1       4.798  -4.569  25.515  0.00  0.00    +0.110 C 
ATOM     19  C   UNL     1       6.194  -4.068  25.165  0.00  0.00    +0.110 C 
ATOM     20  N   UNL     1       6.311  -2.720  25.635  0.00  0.00    -0.214 NA
ATOM     21  C   UNL     1       5.587  -2.467  26.842  0.00  0.00    +0.110 C 
ATOM     22  C   UNL     1       5.326  -3.703  27.673  0.00  0.00    +0.110 C 
ENDBRANCH  14  17
BRANCH  12  23
ATOM     23  O   UNL     1       1.303  -4.547  30.356  0.00  0.00    -0.392 OA
BRANCH  23  24
ATOM     24  C   UNL     1       1.901  -5.143  31.448  0.00  0.00    +0.524 C 
ATOM     25  O   UNL     1       1.912  -6.392  31.516  0.00  0.00    -0.202 OA
BRANCH  24  26
ATOM     26  O   UNL     1       2.467  -4.348  32.427  0.00  0.00    -0.353 OA
BRANCH  26  27
ATOM     27  C   UNL     1       2.978  -4.972  33.557  0.00  0.00    +0.427 C 
ATOM     28  O   UNL     1       4.236  -5.087  33.665  0.00  0.00    -0.237 OA
ENDBRANCH  26  27
ENDBRANCH  24  26
ENDBRANCH  23  24
ENDBRANCH  12  23
ENDBRANCH   8  11
ENDBRANCH   3   8
BRANCH   1  29
ATOM     29  N   UNL     1      -2.619  -2.975  31.298  0.00  0.00    -0.234 NA
ATOM     30  H   UNL     1      -2.241  -2.039  31.443  0.00  0.00    +0.142 HD
BRANCH  29  31
ATOM     31  C   UNL     1      -3.831  -3.030  32.022  0.00  0.00    +0.162 C 
ATOM     32  C   UNL     1      -4.264  -3.820  33.098  0.00  0.00    +0.131 C 
ATOM     33  C   UNL     1      -5.462  -3.144  33.030  0.00  0.00    +0.217 C 
ATOM     34  O   UNL     1      -6.560  -3.206  33.689  0.00  0.00    -0.214 OA
ATOM     35  C   UNL     1      -5.032  -2.368  31.973  0.00  0.00    +0.199 C 
ATOM     36  O   UNL     1      -5.587  -1.454  31.304  0.00  0.00    -0.292 OA
BRANCH  32  37
ATOM     37  N   UNL     1      -3.649  -4.859  33.868  0.00  0.00    -0.314 N 
ATOM     38  H   UNL     1      -3.436  -4.720  34.819  0.00  0.00    +0.148 HD
BRANCH  37  39
ATOM     39  C   UNL     1      -3.354  -6.088  33.235  0.00  0.00    +0.150 C 
ATOM     40  N   UNL     1      -2.274  -6.834  33.497  0.00  0.00    -0.133 NA
ATOM     41  N   UNL     1      -1.988  -7.981  32.913  0.00  0.00    -0.145 NA
ATOM     42  C   UNL     1      -2.790  -8.506  31.972  0.00  0.00    +0.122 C 
ATOM     43  C   UNL     1      -3.926  -7.812  31.632  0.00  0.00    +0.025 C 
ATOM     44  C   UNL     1      -4.206  -6.618  32.256  0.00  0.00    +0.038 C 
ENDBRANCH  37  39
ENDBRANCH  32  37
ENDBRANCH  29  31
ENDBRANCH   1  29
TORSDOF 11
ENDMDL
