REMARK  Name = =
REMARK  0 active torsions:
REMARK  status: ('A' for Active; 'I' for Inactive)
REMARK                            x       y       z     vdW  Elec       q    Type
REMARK                         _______ _______ _______ _____ _____    ______ ____
ROOT
ATOM      1  S   UNL     1      -2.250  -3.254  29.324  0.00  0.00    +0.252 S 
ATOM      2  O   UNL     1      -1.392  -4.100  28.722  0.00  0.00    -0.126 OA
ATOM      3  O   UNL     1      -1.878  -2.681  30.495  0.00  0.00    -0.126 OA
ENDROOT
TORSDOF 0
