REMARK  Name = =
REMARK  6 active torsions:
REMARK  status: ('A' for Active; 'I' for Inactive)
REMARK    1  A    between atoms: C_1  and  N_12
REMARK    2  A    between atoms: C_4  and  O_24
REMARK    3  A    between atoms: C_5  and  N_7
REMARK    4  A    between atoms: N_12  and  S_15
REMARK    5  A    between atoms: S_15  and  C_18
REMARK    6  A    between atoms: O_24  and  N_25
REMARK                            x       y       z     vdW  Elec       q    Type
REMARK                         _______ _______ _______ _____ _____    ______ ____
ROOT
ATOM      1  C   UNL     1      -2.689  -2.710  29.800  0.00  0.00    +0.078 C 
ATOM      2  C   UNL     1      -2.630  -1.697  28.862  0.00  0.00    +0.020 C 
ATOM      3  C   UNL     1      -1.516  -1.614  28.057  0.00  0.00    +0.042 C 
ATOM      4  C   UNL     1      -0.460  -2.521  28.173  0.00  0.00    +0.179 C 
ATOM      5  C   UNL     1      -0.503  -3.537  29.105  0.00  0.00    +0.094 C 
ATOM      6  C   UNL     1      -1.649  -3.596  29.906  0.00  0.00    +0.035 C 
ENDROOT
BRANCH   5   7
ATOM      7  N   UNL     1       0.556  -4.469  29.250  0.00  0.00    -0.261 N 
ATOM      8  C   UNL     1       0.448  -5.795  28.961  0.00  0.00    +0.070 C 
ATOM      9  C   UNL     1       1.637  -6.413  29.209  0.00  0.00    +0.018 C 
ATOM     10  C   UNL     1       2.494  -5.407  29.669  0.00  0.00    +0.018 C 
ATOM     11  C   UNL     1       1.810  -4.211  29.687  0.00  0.00    +0.070 C 
ENDBRANCH   5   7
BRANCH   1  12
ATOM     12  N   UNL     1      -3.832  -2.825  30.636  0.00  0.00    -0.130 N 
ATOM     13  C   UNL     1      -4.344  -1.668  31.285  0.00  0.00    +0.327 C 
ATOM     14  O   UNL     1      -3.762  -0.571  31.096  0.00  0.00    -0.263 OA
BRANCH  12  15
ATOM     15  S   UNL     1      -4.649  -4.297  30.919  0.00  0.00    +0.082 S 
ATOM     16  O   UNL     1      -4.964  -5.067  29.684  0.00  0.00    -0.149 OA
ATOM     17  O   UNL     1      -5.977  -3.937  31.575  0.00  0.00    -0.149 OA
BRANCH  15  18
ATOM     18  C   UNL     1      -3.753  -5.241  32.116  0.00  0.00    +0.125 C 
ATOM     19  C   UNL     1      -2.319  -5.393  31.789  0.00  0.00    +0.015 C 
ATOM     20  C   UNL     1      -1.707  -6.574  31.740  0.00  0.00    +0.115 C 
ATOM     21  N   UNL     1      -2.437  -7.758  32.009  0.00  0.00    -0.328 N 
ATOM     22  C   UNL     1      -3.820  -7.718  32.333  0.00  0.00    +0.060 C 
ATOM     23  C   UNL     1      -4.403  -6.549  32.376  0.00  0.00    +0.035 C 
ATOM     24  H   UNL     1      -1.976  -8.627  31.971  0.00  0.00    +0.147 HD
ENDBRANCH  15  18
ENDBRANCH  12  15
ENDBRANCH   1  12
BRANCH   4  25
ATOM     25  O   UNL     1       0.638  -2.385  27.332  0.00  0.00    -0.400 OA
BRANCH  25  26
ATOM     26  N   UNL     1       0.802  -1.243  26.608  0.00  0.00    -0.121 NA
ATOM     27  C   UNL     1       2.014  -0.535  26.876  0.00  0.00    +0.113 C 
ATOM     28  C   UNL     1       3.166  -1.365  26.411  0.00  0.00    +0.021 C 
ATOM     29  C   UNL     1       3.078  -1.805  24.976  0.00  0.00    +0.003 C 
ATOM     30  C   UNL     1       1.712  -2.206  24.539  0.00  0.00    +0.021 C 
ATOM     31  C   UNL     1       0.601  -1.441  25.192  0.00  0.00    +0.113 C 
ENDBRANCH  25  26
ENDBRANCH   4  25
TORSDOF 6
