MODEL 1
REMARK VINA RESULT:   -10.349      0.000      0.000
REMARK INTER + INTRA:          -9.839
REMARK INTER:                 -12.466
REMARK INTRA:                   2.627
REMARK UNBOUND:                 2.627
REMARK  Name = =
REMARK  4 active torsions:
REMARK  status: ('A' for Active; 'I' for Inactive)
REMARK    1  A    between atoms: C_17  and  N_35
REMARK    2  A    between atoms: C_25  and  N_29
REMARK    3  A    between atoms: N_38  and  S_39
REMARK    4  A    between atoms: N_38  and  N_46
REMARK                            x       y       z     vdW  Elec       q    Type
REMARK                         _______ _______ _______ _____ _____    ______ ____
ROOT
ATOM      1  N   UNL     1      56.055 159.500  41.742  0.00  0.00    -0.244 NA
ATOM      2  C   UNL     1      57.399 159.401  41.576  0.00  0.00    +0.083 A 
ATOM      3  C   UNL     1      58.121 160.613  41.349  0.00  0.00    +0.033 A 
ATOM      4  C   UNL     1      57.471 161.798  41.275  0.00  0.00    +0.021 A 
ATOM      5  C   UNL     1      56.059 161.859  41.466  0.00  0.00    +0.040 A 
ATOM      6  C   UNL     1      55.414 160.662  41.696  0.00  0.00    +0.100 A 
ATOM      7  C   UNL     1      54.045 160.691  41.858  0.00  0.00    +0.100 A 
ATOM      8  N   UNL     1      53.413 159.543  42.117  0.00  0.00    -0.244 NA
ATOM      9  C   UNL     1      52.086 159.563  42.305  0.00  0.00    +0.081 A 
ATOM     10  C   UNL     1      51.320 160.724  42.246  0.00  0.00    +0.018 A 
ATOM     11  C   UNL     1      51.957 161.925  41.977  0.00  0.00    +0.006 A 
ATOM     12  C   UNL     1      53.331 161.893  41.783  0.00  0.00    +0.038 A 
ATOM     13  C   UNL     1      54.001 163.070  41.473  0.00  0.00    +0.100 A 
ATOM     14  C   UNL     1      55.372 163.027  41.316  0.00  0.00    +0.100 A 
ATOM     15  N   UNL     1      56.027 164.117  40.962  0.00  0.00    -0.241 NA
ATOM     16  C   UNL     1      57.381 164.107  40.729  0.00  0.00    +0.114 C 
ATOM     17  C   UNL     1      58.106 162.944  40.875  0.00  0.00    +0.071 C 
ATOM     18  N   UNL     1      53.312 164.221  41.366  0.00  0.00    -0.242 NA
ATOM     19  C   UNL     1      51.968 164.245  41.558  0.00  0.00    +0.099 C 
ATOM     20  C   UNL     1      51.269 163.104  41.865  0.00  0.00    +0.021 C 
ATOM     21  C   UNL     1      49.962 160.700  42.443  0.00  0.00    +0.001 C 
ATOM     22  C   UNL     1      49.320 159.480  42.712  0.00  0.00    +0.000 C 
ATOM     23  C   UNL     1      50.048 158.315  42.778  0.00  0.00    +0.002 C 
ATOM     24  C   UNL     1      51.407 158.364  42.577  0.00  0.00    +0.019 C 
ATOM     25  C   UNL     1      59.474 160.542  41.354  0.00  0.00    +0.055 C 
ATOM     26  C   UNL     1      60.135 159.312  41.512  0.00  0.00    +0.015 C 
ATOM     27  C   UNL     1      59.420 158.156  41.691  0.00  0.00    +0.003 C 
ATOM     28  C   UNL     1      58.051 158.228  41.726  0.00  0.00    +0.019 C 
ENDROOT
BRANCH  25  29
ATOM     29  N   UNL     1      60.275 161.645  41.889  0.00  0.00    -0.259 N 
ATOM     30  C   UNL     1      61.553 162.107  41.488  0.00  0.00    +0.229 C 
ATOM     31  O   UNL     1      62.199 161.760  40.487  0.00  0.00    -0.275 OA
ATOM     32  C   UNL     1      62.048 163.119  42.464  0.00  0.00    +0.087 C 
ATOM     33  C   UNL     1      60.774 163.699  43.034  0.00  0.00    +0.031 C 
ATOM     34  C   UNL     1      59.754 162.631  42.808  0.00  0.00    +0.099 C 
ENDBRANCH  25  29
BRANCH  17  35
ATOM     35  N   UNL     1      59.261 162.903  39.990  0.00  0.00    -0.265 N 
ATOM     36  C   UNL     1      59.573 163.830  38.996  0.00  0.00    +0.329 C 
ATOM     37  O   UNL     1      58.858 164.842  38.825  0.00  0.00    -0.250 OA
ATOM     38  N   UNL     1      60.686 163.717  38.107  0.00  0.00    -0.176 N 
ATOM     39  H   UNL     1      59.883 162.148  40.105  0.00  0.00    +0.157 HD
BRANCH  38  40
ATOM     40  S   UNL     1      61.048 164.904  36.964  0.00  0.00    -0.069 S 
ATOM     41  C   UNL     1      62.810 165.060  36.437  0.00  0.00    +0.148 C 
ATOM     42  C   UNL     1      62.523 165.771  35.152  0.00  0.00    +0.240 C 
ATOM     43  O   UNL     1      63.221 166.791  34.818  0.00  0.00    -0.274 OA
ATOM     44  N   UNL     1      61.467 165.175  34.461  0.00  0.00    -0.246 N 
ATOM     45  C   UNL     1      60.395 164.749  35.258  0.00  0.00    +0.276 C 
ATOM     46  O   UNL     1      59.275 164.360  34.935  0.00  0.00    -0.263 OA
ATOM     47  H   UNL     1      60.508 165.895  37.723  0.00  0.00    +0.112 HD
ATOM     48  H   UNL     1      61.474 165.061  33.483  0.00  0.00    +0.158 HD
ENDBRANCH  38  40
BRANCH  38  49
ATOM     49  N   UNL     1      61.489 162.582  38.115  0.00  0.00    -0.241 NA
ATOM     50  H   UNL     1      61.436 162.123  37.205  0.00  0.00    +0.142 HD
ATOM     51  H   UNL     1      61.164 161.940  38.839  0.00  0.00    +0.142 HD
ENDBRANCH  38  49
ENDBRANCH  17  35
TORSDOF 4
ENDMDL
