REMARK  Name = =
REMARK  1 active torsions:
REMARK  status: ('A' for Active; 'I' for Inactive)
REMARK    1  A    between atoms: C_2  and  C_3
REMARK                            x       y       z     vdW  Elec       q    Type
REMARK                         _______ _______ _______ _____ _____    ______ ____
ROOT
ATOM      1  C   UNL     1      -0.123  -4.403  29.255  0.00  0.00    -0.014 C 
ATOM      2  C   UNL     1       0.939  -4.116  29.065  0.00  0.00    -0.078 C 
ENDROOT
BRANCH   2   3
ATOM      3  C   UNL     1       2.410  -3.726  28.812  0.00  0.00    +0.077 C 
ATOM      4  C   UNL     1       3.017  -4.793  29.167  0.00  0.00    +0.015 C 
ENDBRANCH   2   3
TORSDOF 1
