REMARK  Name = =
REMARK  4 active torsions:
REMARK  status: ('A' for Active; 'I' for Inactive)
REMARK    1  A    between atoms: S_1  and  N_4
REMARK    2  A    between atoms: S_1  and  O_7
REMARK    3  A    between atoms: O_7  and  C_8
REMARK    4  A    between atoms: C_9  and  C_10
REMARK                            x       y       z     vdW  Elec       q    Type
REMARK                         _______ _______ _______ _____ _____    ______ ____
ROOT
ATOM      1  S   UNL     1      -2.485  -4.361  30.370  0.00  0.00    +0.077 S 
ATOM      2  O   UNL     1      -2.130  -5.325  31.447  0.00  0.00    -0.051 OA
ATOM      3  O   UNL     1      -1.689  -3.093  30.619  0.00  0.00    -0.051 OA
ENDROOT
BRANCH   1   4
ATOM      4  N   UNL     1      -4.118  -3.903  30.305  0.00  0.00    -0.177 N 
ATOM      5  C   UNL     1      -4.746  -3.285  31.408  0.00  0.00    +0.319 C 
ATOM      6  O   UNL     1      -4.100  -3.071  32.465  0.00  0.00    -0.264 OA
ATOM      7  H   UNL     1      -4.636  -4.071  29.485  0.00  0.00    +0.177 HD
ENDBRANCH   1   4
BRANCH   1   8
ATOM      8  O   UNL     1      -2.054  -5.063  28.837  0.00  0.00    -0.149 OA
BRANCH   8   9
ATOM      9  C   UNL     1      -0.727  -5.411  28.740  0.00  0.00    +0.085 C 
ATOM     10  C   UNL     1       0.457  -5.746  28.656  0.00  0.00    -0.060 C 
BRANCH  10  11
ATOM     11  C   UNL     1       1.865  -6.119  28.546  0.00  0.00    +0.078 C 
ATOM     12  C   UNL     1       2.052  -7.432  28.543  0.00  0.00    +0.015 C 
ENDBRANCH  10  11
ENDBRANCH   8   9
ENDBRANCH   1   8
TORSDOF 4
