REMARK  Name = =
REMARK  7 active torsions:
REMARK  status: ('A' for Active; 'I' for Inactive)
REMARK    1  A    between atoms: C_1  and  N_18
REMARK    2  A    between atoms: C_7  and  C_29
REMARK    3  A    between atoms: N_18  and  S_21
REMARK    4  A    between atoms: S_21  and  O_24
REMARK    5  A    between atoms: O_24  and  C_25
REMARK    6  A    between atoms: C_26  and  C_27
REMARK    7  A    between atoms: C_29  and  O_31
REMARK                            x       y       z     vdW  Elec       q    Type
REMARK                         _______ _______ _______ _____ _____    ______ ____
ROOT
ATOM      1  C   UNL     1      -1.773  -4.488  30.135  0.00  0.00    +0.083 C 
ATOM      2  C   UNL     1      -1.928  -5.863  30.746  0.00  0.00    +0.023 C 
ATOM      3  C   UNL     1      -3.000  -6.108  31.663  0.00  0.00    +0.006 C 
ATOM      4  C   UNL     1      -3.671  -7.445  31.626  0.00  0.00    +0.022 C 
ATOM      5  C   UNL     1      -5.012  -7.461  32.277  0.00  0.00    +0.009 C 
ATOM      6  C   UNL     1      -5.493  -8.916  32.344  0.00  0.00    +0.033 C 
ATOM      7  C   UNL     1      -5.747  -9.303  30.932  0.00  0.00    +0.053 C 
ATOM      8  C   UNL     1      -4.945  -8.872  29.998  0.00  0.00    -0.002 C 
ATOM      9  C   UNL     1      -3.786  -8.008  30.281  0.00  0.00    -0.027 C 
ATOM     10  C   UNL     1      -2.868  -7.739  29.373  0.00  0.00    -0.030 C 
ATOM     11  C   UNL     1      -1.713  -6.886  29.655  0.00  0.00    +0.027 C 
ATOM     12  C   UNL     1      -3.914  -5.014  32.086  0.00  0.00    +0.000 C 
ATOM     13  C   UNL     1      -3.369  -3.654  31.958  0.00  0.00    +0.002 C 
ATOM     14  C   UNL     1      -2.366  -3.406  30.933  0.00  0.00    +0.019 C 
ATOM     15  C   UNL     1      -2.794  -2.350  29.953  0.00  0.00    +0.002 C 
ATOM     16  C   UNL     1      -3.112  -3.103  28.704  0.00  0.00    +0.002 C 
ATOM     17  C   UNL     1      -2.334  -4.395  28.769  0.00  0.00    +0.020 C 
ENDROOT
BRANCH   1  18
ATOM     18  N   UNL     1      -0.316  -4.231  30.145  0.00  0.00    -0.155 N 
ATOM     19  C   UNL     1       0.299  -3.313  29.287  0.00  0.00    +0.323 C 
ATOM     20  O   UNL     1      -0.192  -2.667  28.366  0.00  0.00    -0.263 OA
BRANCH  18  21
ATOM     21  S   UNL     1       0.662  -5.029  31.372  0.00  0.00    +0.080 S 
ATOM     22  O   UNL     1      -0.027  -6.195  31.972  0.00  0.00    -0.051 OA
ATOM     23  O   UNL     1       0.925  -4.026  32.497  0.00  0.00    -0.051 OA
BRANCH  21  24
ATOM     24  O   UNL     1       2.123  -5.485  30.719  0.00  0.00    -0.149 OA
BRANCH  24  25
ATOM     25  C   UNL     1       2.457  -5.679  29.432  0.00  0.00    +0.090 C 
ATOM     26  C   UNL     1       2.756  -5.857  28.299  0.00  0.00    -0.032 C 
BRANCH  26  27
ATOM     27  C   UNL     1       3.103  -6.079  26.890  0.00  0.00    +0.052 C 
ATOM     28  C   UNL     1       2.604  -5.346  25.945  0.00  0.00    +0.010 C 
ENDBRANCH  26  27
ENDBRANCH  24  25
ENDBRANCH  21  24
ENDBRANCH  18  21
ENDBRANCH   1  18
BRANCH   7  29
ATOM     29  C   UNL     1      -6.898 -10.159  30.659  0.00  0.00    +0.334 C 
ATOM     30  O   UNL     1      -7.782  -9.738  29.876  0.00  0.00    -0.245 OA
BRANCH  29  31
ATOM     31  O   UNL     1      -7.062 -11.406  31.222  0.00  0.00    -0.477 OA
ATOM     32  H   UNL     1      -6.415 -11.743  31.810  0.00  0.00    +0.295 HD
ENDBRANCH  29  31
ENDBRANCH   7  29
TORSDOF 7
