REMARK  Name = =
REMARK  8 active torsions:
REMARK  status: ('A' for Active; 'I' for Inactive)
REMARK    1  A    between atoms: C_1  and  N_22
REMARK    2  A    between atoms: C_7  and  C_33
REMARK    3  A    between atoms: C_11  and  C_18
REMARK    4  A    between atoms: N_22  and  S_25
REMARK    5  A    between atoms: S_25  and  O_28
REMARK    6  A    between atoms: O_28  and  C_29
REMARK    7  A    between atoms: C_30  and  C_31
REMARK    8  A    between atoms: C_33  and  O_35
REMARK                            x       y       z     vdW  Elec       q    Type
REMARK                         _______ _______ _______ _____ _____    ______ ____
ROOT
ATOM      1  C   UNL     1       1.538  -5.479  28.577  0.00  0.00    +0.083 C 
ATOM      2  C   UNL     1       0.790  -6.650  28.990  0.00  0.00    +0.023 C 
ATOM      3  C   UNL     1       0.870  -7.256  30.299  0.00  0.00    +0.002 C 
ATOM      4  C   UNL     1      -0.479  -7.757  30.769  0.00  0.00    +0.004 C 
ATOM      5  C   UNL     1      -0.586  -8.019  32.224  0.00  0.00    +0.005 C 
ATOM      6  C   UNL     1      -2.025  -8.280  32.633  0.00  0.00    +0.033 C 
ATOM      7  C   UNL     1      -2.924  -7.190  32.197  0.00  0.00    +0.049 C 
ATOM      8  C   UNL     1      -2.695  -6.599  31.038  0.00  0.00    -0.024 C 
ATOM      9  C   UNL     1      -1.594  -6.987  30.192  0.00  0.00    +0.022 C 
ATOM     10  C   UNL     1      -1.601  -6.624  28.910  0.00  0.00    +0.009 C 
ATOM     11  C   UNL     1      -0.375  -7.078  28.156  0.00  0.00    +0.026 C 
ATOM     12  C   UNL     1       1.339  -6.319  31.373  0.00  0.00    +0.000 C 
ATOM     13  C   UNL     1       2.480  -5.489  30.904  0.00  0.00    +0.002 C 
ATOM     14  C   UNL     1       2.153  -4.671  29.703  0.00  0.00    +0.019 C 
ATOM     15  C   UNL     1       1.205  -3.586  30.059  0.00  0.00    +0.002 C 
ATOM     16  C   UNL     1       0.496  -3.262  28.766  0.00  0.00    +0.002 C 
ATOM     17  C   UNL     1       0.597  -4.488  27.903  0.00  0.00    +0.020 C 
ENDROOT
BRANCH  11  18
ATOM     18  C   UNL     1      -0.554  -8.542  28.006  0.00  0.00    -0.003 C 
ATOM     19  C   UNL     1       0.455  -9.341  27.616  0.00  0.00    +0.111 C 
ATOM     20 CL   UNL     1       1.998  -8.607  27.286  0.00  0.00    -0.070 Cl
ATOM     21 CL   UNL     1       0.264 -11.059  27.436  0.00  0.00    -0.070 Cl
ENDBRANCH  11  18
BRANCH   1  22
ATOM     22  N   UNL     1       2.661  -5.690  27.670  0.00  0.00    -0.155 N 
ATOM     23  C   UNL     1       3.829  -6.297  28.213  0.00  0.00    +0.323 C 
ATOM     24  O   UNL     1       4.863  -6.559  27.565  0.00  0.00    -0.263 OA
BRANCH  22  25
ATOM     25  S   UNL     1       2.724  -5.318  26.010  0.00  0.00    +0.080 S 
ATOM     26  O   UNL     1       3.980  -4.766  25.496  0.00  0.00    -0.051 OA
ATOM     27  O   UNL     1       2.466  -6.625  25.267  0.00  0.00    -0.051 OA
BRANCH  25  28
ATOM     28  O   UNL     1       1.476  -4.214  25.640  0.00  0.00    -0.149 OA
BRANCH  28  29
ATOM     29  C   UNL     1       1.666  -2.879  25.663  0.00  0.00    +0.090 C 
ATOM     30  C   UNL     1       1.817  -1.682  25.693  0.00  0.00    -0.032 C 
BRANCH  30  31
ATOM     31  C   UNL     1       1.969  -0.275  25.733  0.00  0.00    +0.052 C 
ATOM     32  C   UNL     1       1.618   0.397  26.808  0.00  0.00    +0.010 C 
ENDBRANCH  30  31
ENDBRANCH  28  29
ENDBRANCH  25  28
ENDBRANCH  22  25
ENDBRANCH   1  22
BRANCH   7  33
ATOM     33  C   UNL     1      -4.055  -6.742  33.012  0.00  0.00    +0.334 C 
ATOM     34  O   UNL     1      -4.393  -5.541  33.051  0.00  0.00    -0.245 OA
BRANCH  33  35
ATOM     35  O   UNL     1      -4.763  -7.666  33.751  0.00  0.00    -0.477 OA
ATOM     36  H   UNL     1      -4.518  -8.570  33.729  0.00  0.00    +0.295 HD
ENDBRANCH  33  35
ENDBRANCH   7  33
TORSDOF 8
