REMARK  Name = =
REMARK  0 active torsions:
REMARK  status: ('A' for Active; 'I' for Inactive)
REMARK                            x       y       z     vdW  Elec       q    Type
REMARK                         _______ _______ _______ _____ _____    ______ ____
ROOT
ATOM      1  C   UNL     1      52.020 155.869  28.305  0.00  0.00    +0.003 C 
ATOM      2  C   UNL     1      51.720 154.789  29.104  0.00  0.00    +0.021 C 
ATOM      3  C   UNL     1      52.118 153.516  28.740  0.00  0.00    +0.099 C 
ATOM      4  N   UNL     1      52.790 153.365  27.611  0.00  0.00    -0.242 NA
ATOM      5  C   UNL     1      53.108 154.370  26.799  0.00  0.00    +0.099 C 
ATOM      6  C   UNL     1      52.722 155.648  27.141  0.00  0.00    +0.021 C 
ENDROOT
TORSDOF 0
