REMARK  Name = =
REMARK  0 active torsions:
REMARK  status: ('A' for Active; 'I' for Inactive)
REMARK                            x       y       z     vdW  Elec       q    Type
REMARK                         _______ _______ _______ _____ _____    ______ ____
ROOT
ATOM      1  C   UNL     1      61.755 160.465  39.435  0.00  0.00    +0.000 C 
ATOM      2  C   UNL     1      62.959 161.379  39.534  0.00  0.00    +0.000 C 
ATOM      3  C   UNL     1      62.557 162.809  39.839  0.00  0.00    +0.004 C 
ATOM      4  C   UNL     1      61.799 163.320  38.646  0.00  0.00    +0.018 C 
ATOM      5  C   UNL     1      60.896 162.325  38.026  0.00  0.00    +0.004 C 
ATOM      6  C   UNL     1      59.679 162.948  37.435  0.00  0.00    +0.005 C 
ATOM      7  C   UNL     1      60.079 164.249  36.721  0.00  0.00    +0.021 C 
ATOM      8  C   UNL     1      60.456 165.149  37.877  0.00  0.00    -0.052 C 
ATOM      9  C   UNL     1      61.289 164.683  38.800  0.00  0.00    -0.052 C 
ATOM     10  C   UNL     1      61.669 165.576  39.959  0.00  0.00    +0.021 C 
ATOM     11  C   UNL     1      60.478 166.307  40.494  0.00  0.00    +0.005 C 
ATOM     12  C   UNL     1      59.543 166.811  39.439  0.00  0.00    +0.004 C 
ATOM     13  C   UNL     1      59.949 166.527  38.042  0.00  0.00    +0.018 C 
ATOM     14  C   UNL     1      60.957 167.592  37.687  0.00  0.00    +0.004 C 
ATOM     15  C   UNL     1      60.770 168.685  38.745  0.00  0.00    +0.000 C 
ATOM     16  C   UNL     1      59.453 168.333  39.442  0.00  0.00    +0.000 C 
ATOM     17  C   UNL     1      60.521 161.230  38.973  0.00  0.00    +0.000 C 
ENDROOT
TORSDOF 0
