REMARK  Name = =
REMARK  0 active torsions:
REMARK  status: ('A' for Active; 'I' for Inactive)
REMARK                            x       y       z     vdW  Elec       q    Type
REMARK                         _______ _______ _______ _____ _____    ______ ____
ROOT
ATOM      1  C   UNL     1      51.421 155.031  28.597  0.00  0.00    -0.009 C 
ATOM      2  S   UNL     1      52.430 154.727  27.639  0.00  0.00    +0.009 S 
ENDROOT
TORSDOF 0
