REMARK  Name = =
REMARK  1 active torsions:
REMARK  status: ('A' for Active; 'I' for Inactive)
REMARK    1  A    between atoms: N_1  and  C_7
REMARK                            x       y       z     vdW  Elec       q    Type
REMARK                         _______ _______ _______ _____ _____    ______ ____
ROOT
ATOM      1  N   UNL     1      51.080 155.571  28.889  0.00  0.00    -0.252 N 
ATOM      2  C   UNL     1      51.993 156.660  28.942  0.00  0.00    +0.230 C 
ATOM      3  O   UNL     1      53.196 156.557  28.587  0.00  0.00    -0.275 OA
ATOM      4  C   UNL     1      51.287 157.862  29.464  0.00  0.00    +0.087 C 
ATOM      5  C   UNL     1      50.206 157.209  30.310  0.00  0.00    +0.031 C 
ATOM      6  C   UNL     1      49.812 156.029  29.421  0.00  0.00    +0.099 C 
ENDROOT
BRANCH   1   7
ATOM      7  C   UNL     1      51.365 154.267  28.401  0.00  0.00    +0.111 C 
ATOM      8  S   UNL     1      52.823 153.906  27.761  0.00  0.00    -0.032 S 
ENDBRANCH   1   7
TORSDOF 1
