REMARK  Name = =
REMARK  1 active torsions:
REMARK  status: ('A' for Active; 'I' for Inactive)
REMARK    1  A    between atoms: C_1  and  C_7
REMARK                            x       y       z     vdW  Elec       q    Type
REMARK                         _______ _______ _______ _____ _____    ______ ____
ROOT
ATOM      1  C   UNL     1      52.084 155.533  27.928  0.00  0.00    +0.010 C 
ATOM      2  C   UNL     1      51.704 154.233  27.736  0.00  0.00    +0.021 C 
ATOM      3  C   UNL     1      52.078 153.603  26.567  0.00  0.00    +0.099 C 
ATOM      4  N   UNL     1      52.800 154.241  25.629  0.00  0.00    -0.242 NA
ATOM      5  C   UNL     1      53.184 155.520  25.800  0.00  0.00    +0.099 C 
ATOM      6  C   UNL     1      52.823 156.175  26.960  0.00  0.00    +0.021 C 
ENDROOT
BRANCH   1   7
ATOM      7  C   UNL     1      51.701 156.221  29.154  0.00  0.00    +0.042 C 
ATOM      8  S   UNL     1      52.080 157.782  29.412  0.00  0.00    -0.050 S 
ENDBRANCH   1   7
TORSDOF 1
