REMARK  Name = =
REMARK  6 active torsions:
REMARK  status: ('A' for Active; 'I' for Inactive)
REMARK    1  A    between atoms: C_1  and  O_7
REMARK    2  A    between atoms: C_2  and  C_12
REMARK    3  A    between atoms: C_3  and  O_11
REMARK    4  A    between atoms: C_5  and  O_10
REMARK    5  A    between atoms: C_6  and  C_8
REMARK    6  A    between atoms: C_12  and  N_14
REMARK                            x       y       z     vdW  Elec       q    Type
REMARK                         _______ _______ _______ _____ _____    ______ ____
ROOT
ATOM      1  C   UNL     1      50.728 159.315  30.860  0.00  0.00    +0.144 C 
ATOM      2  C   UNL     1      50.059 160.426  31.394  0.00  0.00    +0.088 C 
ATOM      3  C   UNL     1      48.699 160.489  31.202  0.00  0.00    +0.141 C 
ATOM      4  C   UNL     1      48.000 159.515  30.519  0.00  0.00    +0.074 C 
ATOM      5  C   UNL     1      48.674 158.438  30.007  0.00  0.00    +0.143 C 
ATOM      6  C   UNL     1      50.063 158.322  30.173  0.00  0.00    +0.110 C 
ENDROOT
BRANCH   1   7
ATOM      7  O   UNL     1      52.102 159.210  31.031  0.00  0.00    -0.505 OA
ATOM      8  H   UNL     1      52.569 159.877  31.496  0.00  0.00    +0.292 HD
ENDBRANCH   1   7
BRANCH   6   9
ATOM      9  C   UNL     1      50.722 157.153  29.604  0.00  0.00    +0.240 C 
ATOM     10  O   UNL     1      50.257 155.991  29.812  0.00  0.00    -0.283 OA
ENDBRANCH   6   9
BRANCH   5  11
ATOM     11  O   UNL     1      48.013 157.437  29.315  0.00  0.00    -0.505 OA
ATOM     12  H   UNL     1      48.493 156.709  28.973  0.00  0.00    +0.292 HD
ENDBRANCH   5  11
BRANCH   3  13
ATOM     13  O   UNL     1      48.001 161.590  31.724  0.00  0.00    -0.505 OA
ATOM     14  H   UNL     1      48.463 162.259  32.190  0.00  0.00    +0.292 HD
ENDBRANCH   3  13
BRANCH   2  15
ATOM     15  C   UNL     1      50.848 161.405  32.094  0.00  0.00    +0.096 C 
ATOM     16  S   UNL     1      50.271 162.094  33.460  0.00  0.00    -0.034 S 
BRANCH  15  17
ATOM     17  N   UNL     1      52.143 161.820  31.652  0.00  0.00    -0.253 N 
ATOM     18  C   UNL     1      52.576 161.999  30.291  0.00  0.00    +0.230 C 
ATOM     19  O   UNL     1      51.744 162.279  29.363  0.00  0.00    -0.275 OA
ATOM     20  C   UNL     1      54.043 161.812  30.194  0.00  0.00    +0.087 C 
ATOM     21  C   UNL     1      54.463 161.671  31.634  0.00  0.00    +0.031 C 
ATOM     22  C   UNL     1      53.286 162.146  32.465  0.00  0.00    +0.099 C 
ENDBRANCH  15  17
ENDBRANCH   2  15
TORSDOF 6
