REMARK  Name = =
REMARK  2 active torsions:
REMARK  status: ('A' for Active; 'I' for Inactive)
REMARK    1  A    between atoms: C_1  and  C_12
REMARK    2  A    between atoms: C_3  and  N_4
REMARK                            x       y       z     vdW  Elec       q    Type
REMARK                         _______ _______ _______ _____ _____    ______ ____
ROOT
ATOM      1  C   UNL     1      52.215 154.638  28.492  0.00  0.00    +0.011 C 
ATOM      2  C   UNL     1      52.837 154.624  27.252  0.00  0.00    +0.035 C 
ATOM      3  C   UNL     1      53.278 155.759  26.625  0.00  0.00    +0.132 C 
ATOM      4  N   UNL     1      53.083 156.934  27.270  0.00  0.00    -0.229 NA
ATOM      5  C   UNL     1      52.496 157.032  28.459  0.00  0.00    +0.100 C 
ATOM      6  C   UNL     1      52.053 155.871  29.085  0.00  0.00    +0.021 C 
ENDROOT
BRANCH   3   7
ATOM      7  N   UNL     1      53.916 155.752  25.354  0.00  0.00    -0.293 N 
ATOM      8  C   UNL     1      54.165 154.532  24.592  0.00  0.00    +0.092 C 
ATOM      9  C   UNL     1      55.008 154.919  23.425  0.00  0.00    +0.023 C 
ATOM     10  C   UNL     1      55.504 156.318  23.710  0.00  0.00    +0.023 C 
ATOM     11  C   UNL     1      54.416 156.873  24.605  0.00  0.00    +0.092 C 
ENDBRANCH   3   7
BRANCH   1  12
ATOM     12  C   UNL     1      51.750 153.443  29.154  0.00  0.00    +0.042 C 
ATOM     13  S   UNL     1      51.765 152.041  28.347  0.00  0.00    -0.050 S 
ENDBRANCH   1  12
TORSDOF 2
