REMARK  Name = =
REMARK  10 active torsions:
REMARK  status: ('A' for Active; 'I' for Inactive)
REMARK    1  A    between atoms: C_1  and  O_19
REMARK    2  A    between atoms: C_2  and  C_11
REMARK    3  A    between atoms: C_3  and  O_10
REMARK    4  A    between atoms: C_5  and  O_9
REMARK    5  A    between atoms: C_6  and  C_7
REMARK    6  A    between atoms: C_11  and  N_13
REMARK    7  A    between atoms: O_19  and  O_20
REMARK    8  A    between atoms: O_20  and  P_21
REMARK    9  A    between atoms: P_21  and  O_23
REMARK   10  A    between atoms: P_21  and  O_24
REMARK                            x       y       z     vdW  Elec       q    Type
REMARK                         _______ _______ _______ _____ _____    ______ ____
ROOT
ATOM      1  C   UNL     1      50.192 158.446  30.348  0.00  0.00    +0.194 C 
ATOM      2  C   UNL     1      51.467 159.067  30.306  0.00  0.00    +0.092 C 
ATOM      3  C   UNL     1      52.526 158.416  29.748  0.00  0.00    +0.141 C 
ATOM      4  C   UNL     1      52.403 157.162  29.215  0.00  0.00    +0.074 C 
ATOM      5  C   UNL     1      51.144 156.530  29.249  0.00  0.00    +0.143 C 
ATOM      6  C   UNL     1      50.039 157.183  29.820  0.00  0.00    +0.114 C 
ENDROOT
BRANCH   6   7
ATOM      7  C   UNL     1      48.767 156.493  29.831  0.00  0.00    +0.240 C 
ATOM      8  O   UNL     1      48.552 155.454  29.147  0.00  0.00    -0.283 OA
ENDBRANCH   6   7
BRANCH   5   9
ATOM      9  O   UNL     1      51.077 155.286  28.708  0.00  0.00    -0.505 OA
ATOM     10  H   UNL     1      51.844 154.894  28.339  0.00  0.00    +0.292 HD
ENDBRANCH   5   9
BRANCH   3  11
ATOM     11  O   UNL     1      53.751 159.081  29.737  0.00  0.00    -0.505 OA
ATOM     12  H   UNL     1      53.821 159.940  30.105  0.00  0.00    +0.292 HD
ENDBRANCH   3  11
BRANCH   2  13
ATOM     13  C   UNL     1      51.595 160.404  30.874  0.00  0.00    +0.096 C 
ATOM     14  S   UNL     1      53.089 161.045  30.941  0.00  0.00    -0.034 S 
BRANCH  13  15
ATOM     15  N   UNL     1      50.508 161.152  31.356  0.00  0.00    -0.253 N 
ATOM     16  C   UNL     1      49.470 161.670  30.536  0.00  0.00    +0.230 C 
ATOM     17  O   UNL     1      49.144 161.319  29.355  0.00  0.00    -0.275 OA
ATOM     18  C   UNL     1      48.787 162.743  31.314  0.00  0.00    +0.087 C 
ATOM     19  C   UNL     1      49.011 162.302  32.756  0.00  0.00    +0.031 C 
ATOM     20  C   UNL     1      50.294 161.499  32.739  0.00  0.00    +0.099 C 
ENDBRANCH  13  15
ENDBRANCH   2  13
BRANCH   1  21
ATOM     21  O   UNL     1      49.165 159.134  30.916  0.00  0.00    -0.324 OA
BRANCH  21  22
ATOM     22  O   UNL     1      48.402 158.837  31.879  0.00  0.00    -0.074 OA
BRANCH  22  23
ATOM     23  P   UNL     1      46.914 159.587  31.935  0.00  0.00    +0.508 P 
ATOM     24  O   UNL     1      46.918 160.765  32.879  0.00  0.00    -0.224 OA
BRANCH  23  25
ATOM     25  O   UNL     1      45.763 158.427  32.442  0.00  0.00    -0.301 OA
ATOM     26  H   UNL     1      45.984 158.121  33.336  0.00  0.00    +0.222 HD
ENDBRANCH  23  25
BRANCH  23  27
ATOM     27  O   UNL     1      46.486 160.091  30.371  0.00  0.00    -0.301 OA
ATOM     28  H   UNL     1      46.487 159.327  29.774  0.00  0.00    +0.222 HD
ENDBRANCH  23  27
ENDBRANCH  22  23
ENDBRANCH  21  22
ENDBRANCH   1  21
TORSDOF 10
