REMARK  Name = =
REMARK  2 active torsions:
REMARK  status: ('A' for Active; 'I' for Inactive)
REMARK    1  A    between atoms: N_1  and  C_16
REMARK    2  A    between atoms: C_16  and  C_18
REMARK                            x       y       z     vdW  Elec       q    Type
REMARK                         _______ _______ _______ _____ _____    ______ ____
ROOT
ATOM      1  N   UNL     1      52.697 154.757  26.081  0.00  0.00    -0.195 N 
ATOM      2  C   UNL     1      51.975 154.068  27.131  0.00  0.00    +0.259 C 
ATOM      3  O   UNL     1      51.329 154.700  28.001  0.00  0.00    -0.269 OA
ATOM      4  C   UNL     1      52.017 152.615  27.156  0.00  0.00    +0.054 C 
ATOM      5  C   UNL     1      52.727 151.912  26.203  0.00  0.00    +0.009 C 
ATOM      6  C   UNL     1      52.722 150.548  26.290  0.00  0.00    +0.000 C 
ATOM      7  C   UNL     1      53.426 149.808  25.346  0.00  0.00    +0.000 C 
ATOM      8  C   UNL     1      54.111 150.439  24.350  0.00  0.00    +0.000 C 
ATOM      9  C   UNL     1      54.107 151.805  24.277  0.00  0.00    +0.005 C 
ATOM     10  C   UNL     1      53.425 152.577  25.189  0.00  0.00    +0.054 C 
ATOM     11  C   UNL     1      53.420 154.023  25.111  0.00  0.00    +0.259 C 
ATOM     12  O   UNL     1      54.043 154.595  24.205  0.00  0.00    -0.269 OA
ATOM     13  C   UNL     1      52.034 149.882  27.291  0.00  0.00    +0.000 C 
ATOM     14  C   UNL     1      51.323 150.578  28.246  0.00  0.00    +0.000 C 
ATOM     15  C   UNL     1      51.323 151.955  28.168  0.00  0.00    +0.005 C 
ENDROOT
BRANCH   1  16
ATOM     16  C   UNL     1      52.677 156.159  26.028  0.00  0.00    +0.097 C 
ATOM     17  S   UNL     1      52.503 156.906  24.592  0.00  0.00    -0.034 S 
BRANCH  16  18
ATOM     18  C   UNL     1      52.812 156.935  27.252  0.00  0.00    +0.025 C 
ATOM     19  C   UNL     1      51.722 157.361  27.984  0.00  0.00    +0.036 C 
ATOM     20  C   UNL     1      51.845 158.101  29.151  0.00  0.00    +0.132 C 
ATOM     21  N   UNL     1      50.704 158.528  29.888  0.00  0.00    -0.293 N 
ATOM     22  C   UNL     1      49.328 158.256  29.527  0.00  0.00    +0.092 C 
ATOM     23  C   UNL     1      48.531 158.626  30.784  0.00  0.00    +0.023 C 
ATOM     24  C   UNL     1      49.338 159.792  31.306  0.00  0.00    +0.023 C 
ATOM     25  C   UNL     1      50.757 159.302  31.113  0.00  0.00    +0.092 C 
ATOM     26  N   UNL     1      53.101 158.386  29.537  0.00  0.00    -0.229 NA
ATOM     27  C   UNL     1      54.187 157.988  28.851  0.00  0.00    +0.100 C 
ATOM     28  C   UNL     1      54.081 157.253  27.689  0.00  0.00    +0.023 C 
ENDBRANCH  16  18
ENDBRANCH   1  16
TORSDOF 2
