REMARK  Name = =
REMARK  21 active torsions:
REMARK  status: ('A' for Active; 'I' for Inactive)
REMARK    1  A    between atoms: P_1  and  O_2
REMARK    2  A    between atoms: P_1  and  O_4
REMARK    3  A    between atoms: P_1  and  O_6
REMARK    4  A    between atoms: P_1  and  O_19
REMARK    5  A    between atoms: O_2  and  O_5
REMARK    6  A    between atoms: O_6  and  P_7
REMARK    7  A    between atoms: P_7  and  O_9
REMARK    8  A    between atoms: P_7  and  O_14
REMARK    9  A    between atoms: O_9  and  P_10
REMARK   10  A    between atoms: P_10  and  O_12
REMARK   11  A    between atoms: P_10  and  O_13
REMARK   12  A    between atoms: O_14  and  P_15
REMARK   13  A    between atoms: P_15  and  O_17
REMARK   14  A    between atoms: P_15  and  O_18
REMARK   15  A    between atoms: O_19  and  O_20
REMARK   16  A    between atoms: O_20  and  C_21
REMARK   17  A    between atoms: C_22  and  C_27
REMARK   18  A    between atoms: C_23  and  O_35
REMARK   19  A    between atoms: C_25  and  O_36
REMARK   20  A    between atoms: C_26  and  C_37
REMARK   21  A    between atoms: C_27  and  N_29
REMARK                            x       y       z     vdW  Elec       q    Type
REMARK                         _______ _______ _______ _____ _____    ______ ____
ROOT
ATOM      1  P   UNL     1      52.176 156.790  29.112  0.00  0.00    +0.336 P 
ATOM      2  H   UNL     1      53.235 156.967  28.235  0.00  0.00    +0.168 HD
ENDROOT
BRANCH   1   3
ATOM      3  O   UNL     1      53.720 156.127  29.432  0.00  0.00    -0.321 OA
ATOM      4  H   UNL     1      54.023 156.421  30.305  0.00  0.00    +0.220 HD
ENDBRANCH   1   3
BRANCH   1   5
ATOM      5  O   UNL     1      51.734 158.419  29.150  0.00  0.00    -0.099 OA
BRANCH   5   6
ATOM      6  O   UNL     1      51.999 158.876  30.370  0.00  0.00    -0.325 OA
BRANCH   6   7
ATOM      7  C   UNL     1      52.344 160.192  30.541  0.00  0.00    +0.194 C 
ATOM      8  C   UNL     1      51.407 161.102  30.916  0.00  0.00    +0.092 C 
ATOM      9  C   UNL     1      51.775 162.421  31.083  0.00  0.00    +0.141 C 
ATOM     10  C   UNL     1      53.082 162.793  30.868  0.00  0.00    +0.074 C 
ATOM     11  C   UNL     1      54.032 161.849  30.484  0.00  0.00    +0.143 C 
ATOM     12  C   UNL     1      53.681 160.527  30.313  0.00  0.00    +0.114 C 
BRANCH  12  13
ATOM     13  C   UNL     1      54.640 159.505  29.913  0.00  0.00    +0.240 C 
ATOM     14  O   UNL     1      55.811 159.850  29.627  0.00  0.00    -0.283 OA
ENDBRANCH  12  13
BRANCH  11  15
ATOM     15  O   UNL     1      55.334 162.259  30.279  0.00  0.00    -0.505 OA
ATOM     16  H   UNL     1      55.566 163.159  30.397  0.00  0.00    +0.292 HD
ENDBRANCH  11  15
BRANCH   9  17
ATOM     17  O   UNL     1      50.816 163.367  31.468  0.00  0.00    -0.505 OA
ATOM     18  H   UNL     1      49.929 163.103  31.612  0.00  0.00    +0.292 HD
ENDBRANCH   9  17
BRANCH   8  19
ATOM     19  C   UNL     1      50.031 160.670  31.134  0.00  0.00    +0.096 C 
ATOM     20  S   UNL     1      49.147 159.977  29.937  0.00  0.00    -0.034 S 
BRANCH  19  21
ATOM     21  N   UNL     1      49.437 160.853  32.414  0.00  0.00    -0.253 N 
ATOM     22  C   UNL     1      48.048 160.817  32.749  0.00  0.00    +0.230 C 
ATOM     23  O   UNL     1      47.169 160.313  32.012  0.00  0.00    -0.275 OA
ATOM     24  C   UNL     1      47.785 161.441  34.054  0.00  0.00    +0.087 C 
ATOM     25  C   UNL     1      49.155 161.670  34.618  0.00  0.00    +0.031 C 
ATOM     26  C   UNL     1      50.138 161.113  33.634  0.00  0.00    +0.099 C 
ENDBRANCH  19  21
ENDBRANCH   8  19
ENDBRANCH   6   7
ENDBRANCH   5   6
ENDBRANCH   1   5
BRANCH   1  27
ATOM     27  O   UNL     1      51.845 156.168  27.582  0.00  0.00    -0.204 OA
BRANCH  27  28
ATOM     28  P   UNL     1      52.821 154.866  27.198  0.00  0.00    +0.502 P 
ATOM     29  O   UNL     1      53.208 154.195  28.518  0.00  0.00    -0.226 OA
BRANCH  28  30
ATOM     30  O   UNL     1      51.970 153.722  26.297  0.00  0.00    -0.186 OA
BRANCH  30  31
ATOM     31  P   UNL     1      52.886 152.304  26.192  0.00  0.00    +0.481 P 
ATOM     32  O   UNL     1      54.195 152.419  26.927  0.00  0.00    -0.227 OA
BRANCH  31  33
ATOM     33  O   UNL     1      53.219 152.018  24.547  0.00  0.00    -0.302 OA
ATOM     34  H   UNL     1      52.385 151.941  24.057  0.00  0.00    +0.222 HD
ENDBRANCH  31  33
BRANCH  31  35
ATOM     35  O   UNL     1      51.949 151.020  26.743  0.00  0.00    -0.302 OA
ATOM     36  H   UNL     1      51.740 151.151  27.681  0.00  0.00    +0.222 HD
ENDBRANCH  31  35
ENDBRANCH  30  31
ENDBRANCH  28  30
BRANCH  28  37
ATOM     37  O   UNL     1      54.232 155.273  26.415  0.00  0.00    -0.186 OA
BRANCH  37  38
ATOM     38  P   UNL     1      54.079 155.524  24.780  0.00  0.00    +0.481 P 
ATOM     39  O   UNL     1      52.678 155.697  24.302  0.00  0.00    -0.227 OA
BRANCH  38  40
ATOM     40  O   UNL     1      54.963 156.930  24.382  0.00  0.00    -0.302 OA
ATOM     41  H   UNL     1      54.557 157.699  24.811  0.00  0.00    +0.222 HD
ENDBRANCH  38  40
BRANCH  38  42
ATOM     42  O   UNL     1      54.865 154.232  23.983  0.00  0.00    -0.302 OA
ATOM     43  H   UNL     1      54.401 153.403  24.176  0.00  0.00    +0.222 HD
ENDBRANCH  38  42
ENDBRANCH  37  38
ENDBRANCH  28  37
ENDBRANCH  27  28
ENDBRANCH   1  27
BRANCH   1  44
ATOM     44  O   UNL     1      50.721 156.790  28.838  0.00  0.00    -0.150 OA
BRANCH  44  45
ATOM     45  O   UNL     1      51.050 155.892  30.037  0.00  0.00    -0.242 OA
ATOM     46  H   UNL     1      50.232 155.499  30.381  0.00  0.00    +0.254 HD
ENDBRANCH  44  45
ENDBRANCH   1  44
TORSDOF 21
