REMARK  Name = =
REMARK  0 active torsions:
REMARK  status: ('A' for Active; 'I' for Inactive)
REMARK                            x       y       z     vdW  Elec       q    Type
REMARK                         _______ _______ _______ _____ _____    ______ ____
ROOT
ATOM      1  N   UNL     1      52.680 155.372  27.734  0.00  0.00    -0.290 NA
ATOM      2  C   UNL     1      53.076 156.171  26.593  0.00  0.00    +0.096 C 
ATOM      3  C   UNL     1      53.641 155.148  25.666  0.00  0.00    -0.009 C 
ATOM      4  C   UNL     1      53.027 153.962  25.982  0.00  0.00    -0.009 C 
ATOM      5  C   UNL     1      52.059 154.181  27.123  0.00  0.00    +0.096 C 
ATOM      6  C   UNL     1      53.361 152.827  25.266  0.00  0.00    -0.003 C 
ATOM      7  C   UNL     1      54.292 152.877  24.256  0.00  0.00    -0.000 C 
ATOM      8  C   UNL     1      54.901 154.074  23.949  0.00  0.00    -0.000 C 
ATOM      9  C   UNL     1      54.586 155.216  24.645  0.00  0.00    -0.003 C 
ATOM     10  H   UNL     1      52.010 155.875  28.316  0.00  0.00    +0.124 HD
ENDROOT
TORSDOF 0
