REMARK  Name = =
REMARK  5 active torsions:
REMARK  status: ('A' for Active; 'I' for Inactive)
REMARK    1  A    between atoms: N_1  and  N_7
REMARK    2  A    between atoms: C_3  and  C_19
REMARK    3  A    between atoms: C_5  and  C_16
REMARK    4  A    between atoms: C_16  and  O_18
REMARK    5  A    between atoms: C_19  and  O_21
REMARK                            x       y       z     vdW  Elec       q    Type
REMARK                         _______ _______ _______ _____ _____    ______ ____
ROOT
ATOM      1  N   UNL     1      52.850 155.382  28.350  0.00  0.00    -0.244 N 
ATOM      2  C   UNL     1      52.325 156.464  29.111  0.00  0.00    +0.142 C 
ATOM      3  C   UNL     1      52.324 157.718  28.718  0.00  0.00    +0.075 C 
ATOM      4  C   UNL     1      52.901 158.055  27.397  0.00  0.00    +0.012 C 
ATOM      5  C   UNL     1      53.428 156.925  26.647  0.00  0.00    +0.091 C 
ATOM      6  C   UNL     1      53.403 155.684  27.093  0.00  0.00    +0.084 C 
ENDROOT
BRANCH   1   7
ATOM      7  N   UNL     1      52.784 154.124  28.890  0.00  0.00    -0.196 NA
ATOM      8  C   UNL     1      53.914 153.299  28.598  0.00  0.00    +0.118 C 
ATOM      9  C   UNL     1      53.432 152.297  27.611  0.00  0.00    -0.007 C 
ATOM     10  C   UNL     1      52.057 152.341  27.597  0.00  0.00    -0.007 C 
ATOM     11  C   UNL     1      51.606 153.380  28.581  0.00  0.00    +0.118 C 
ATOM     12  C   UNL     1      51.330 151.511  26.764  0.00  0.00    -0.003 C 
ATOM     13  C   UNL     1      51.984 150.635  25.946  0.00  0.00    -0.000 C 
ATOM     14  C   UNL     1      53.347 150.570  25.938  0.00  0.00    -0.000 C 
ATOM     15  C   UNL     1      54.068 151.400  26.769  0.00  0.00    -0.003 C 
ENDBRANCH   1   7
BRANCH   5  16
ATOM     16  C   UNL     1      54.011 157.178  25.342  0.00  0.00    +0.339 C 
ATOM     17  O   UNL     1      54.957 156.460  24.953  0.00  0.00    -0.245 OA
BRANCH  16  18
ATOM     18  O   UNL     1      53.541 158.190  24.526  0.00  0.00    -0.477 OA
ATOM     19  H   UNL     1      52.832 158.732  24.812  0.00  0.00    +0.295 HD
ENDBRANCH  16  18
ENDBRANCH   5  16
BRANCH   3  20
ATOM     20  C   UNL     1      51.760 158.741  29.579  0.00  0.00    +0.336 C 
ATOM     21  O   UNL     1      52.170 159.915  29.499  0.00  0.00    -0.245 OA
BRANCH  20  22
ATOM     22  O   UNL     1      50.776 158.423  30.481  0.00  0.00    -0.477 OA
ATOM     23  H   UNL     1      50.465 157.541  30.544  0.00  0.00    +0.295 HD
ENDBRANCH  20  22
ENDBRANCH   3  20
TORSDOF 5
