REMARK  Name = =
REMARK  6 active torsions:
REMARK  status: ('A' for Active; 'I' for Inactive)
REMARK    1  A    between atoms: N_1  and  N_10
REMARK    2  A    between atoms: C_7  and  S_22
REMARK    3  A    between atoms: C_12  and  C_19
REMARK    4  A    between atoms: C_14  and  C_16
REMARK    5  A    between atoms: C_16  and  O_18
REMARK    6  A    between atoms: C_19  and  O_21
REMARK                            x       y       z     vdW  Elec       q    Type
REMARK                         _______ _______ _______ _____ _____    ______ ____
ROOT
ATOM      1  N   UNL     1      53.097 154.140  25.235  0.00  0.00    -0.196 NA
ATOM      2  C   UNL     1      51.764 153.918  25.694  0.00  0.00    +0.118 C 
ATOM      3  C   UNL     1      51.568 155.033  26.652  0.00  0.00    -0.007 C 
ATOM      4  C   UNL     1      52.433 156.043  26.291  0.00  0.00    -0.007 C 
ATOM      5  C   UNL     1      53.176 155.559  25.099  0.00  0.00    +0.118 C 
ATOM      6  C   UNL     1      52.458 157.215  27.025  0.00  0.00    +0.001 C 
ATOM      7  C   UNL     1      51.640 157.418  28.122  0.00  0.00    +0.007 C 
ATOM      8  C   UNL     1      50.779 156.393  28.468  0.00  0.00    +0.004 C 
ATOM      9  C   UNL     1      50.742 155.208  27.738  0.00  0.00    -0.003 C 
ENDROOT
BRANCH   1  10
ATOM     10  N   UNL     1      54.097 153.556  25.964  0.00  0.00    -0.244 N 
ATOM     11  C   UNL     1      53.910 153.243  27.332  0.00  0.00    +0.142 C 
ATOM     12  C   UNL     1      54.865 152.672  28.077  0.00  0.00    +0.075 C 
ATOM     13  C   UNL     1      56.169 152.335  27.518  0.00  0.00    +0.012 C 
ATOM     14  C   UNL     1      56.334 152.675  26.089  0.00  0.00    +0.091 C 
ATOM     15  C   UNL     1      55.360 153.234  25.411  0.00  0.00    +0.084 C 
BRANCH  14  16
ATOM     16  C   UNL     1      57.618 152.380  25.411  0.00  0.00    +0.339 C 
ATOM     17  O   UNL     1      58.518 151.791  26.031  0.00  0.00    -0.245 OA
BRANCH  16  18
ATOM     18  O   UNL     1      57.770 152.775  24.099  0.00  0.00    -0.477 OA
ATOM     19  H   UNL     1      57.071 153.218  23.659  0.00  0.00    +0.295 HD
ENDBRANCH  16  18
ENDBRANCH  14  16
BRANCH  12  20
ATOM     20  C   UNL     1      54.599 152.374  29.490  0.00  0.00    +0.336 C 
ATOM     21  O   UNL     1      55.568 152.161  30.245  0.00  0.00    -0.245 OA
BRANCH  20  22
ATOM     22  O   UNL     1      53.318 152.324  30.003  0.00  0.00    -0.477 OA
ATOM     23  H   UNL     1      52.583 152.483  29.444  0.00  0.00    +0.295 HD
ENDBRANCH  20  22
ENDBRANCH  12  20
ENDBRANCH   1  10
BRANCH   7  24
ATOM     24  S   UNL     1      51.676 158.844  29.006  0.00  0.00    -0.191 S 
ATOM     25  C   UNL     1      52.317 158.699  30.832  0.00  0.00    +0.061 C 
ATOM     26  C   UNL     1      51.821 160.065  31.186  0.00  0.00    +0.100 C 
ATOM     27  N   UNL     1      50.450 160.159  30.842  0.00  0.00    -0.207 NA
ATOM     28  C   UNL     1      50.226 159.725  29.508  0.00  0.00    +0.130 C 
ATOM     29  H   UNL     1      52.396 159.446  28.022  0.00  0.00    +0.089 HD
ENDBRANCH   7  24
TORSDOF 6
