REMARK  Name = =
REMARK  7 active torsions:
REMARK  status: ('A' for Active; 'I' for Inactive)
REMARK    1  A    between atoms: N_1  and  N_7
REMARK    2  A    between atoms: C_2  and  N_21
REMARK    3  A    between atoms: C_3  and  C_29
REMARK    4  A    between atoms: C_5  and  C_26
REMARK    5  A    between atoms: C_13  and  S_16
REMARK    6  A    between atoms: C_26  and  O_28
REMARK    7  A    between atoms: C_29  and  O_31
REMARK                            x       y       z     vdW  Elec       q    Type
REMARK                         _______ _______ _______ _____ _____    ______ ____
ROOT
ATOM      1  N   UNL     1      49.846 160.730  30.343  0.00  0.00    -0.231 N 
ATOM      2  C   UNL     1      48.941 159.731  30.856  0.00  0.00    +0.178 C 
ATOM      3  C   UNL     1      47.968 160.097  31.652  0.00  0.00    +0.088 C 
ATOM      4  C   UNL     1      47.722 161.497  32.078  0.00  0.00    +0.013 C 
ATOM      5  C   UNL     1      48.688 162.419  31.506  0.00  0.00    +0.091 C 
ATOM      6  C   UNL     1      49.667 162.074  30.707  0.00  0.00    +0.085 C 
ENDROOT
BRANCH   1   7
ATOM      7  N   UNL     1      50.877 160.323  29.494  0.00  0.00    -0.194 NA
ATOM      8  C   UNL     1      52.001 159.858  30.272  0.00  0.00    +0.118 C 
ATOM      9  C   UNL     1      52.559 158.724  29.465  0.00  0.00    -0.007 C 
ATOM     10  C   UNL     1      51.659 158.353  28.494  0.00  0.00    -0.007 C 
ATOM     11  C   UNL     1      50.482 159.235  28.636  0.00  0.00    +0.119 C 
ATOM     12  C   UNL     1      51.955 157.324  27.624  0.00  0.00    +0.001 C 
ATOM     13  C   UNL     1      53.128 156.621  27.664  0.00  0.00    +0.007 C 
ATOM     14  C   UNL     1      54.020 157.004  28.643  0.00  0.00    +0.004 C 
ATOM     15  C   UNL     1      53.747 158.026  29.521  0.00  0.00    -0.003 C 
BRANCH  13  16
ATOM     16  S   UNL     1      53.495 155.311  26.552  0.00  0.00    -0.191 S 
ATOM     17  C   UNL     1      52.926 153.627  27.006  0.00  0.00    +0.061 C 
ATOM     18  C   UNL     1      52.238 153.173  25.764  0.00  0.00    +0.100 C 
ATOM     19  N   UNL     1      52.678 153.941  24.652  0.00  0.00    -0.207 NA
ATOM     20  C   UNL     1      52.492 155.337  24.965  0.00  0.00    +0.130 C 
ATOM     21  H   UNL     1      54.839 155.513  26.507  0.00  0.00    +0.089 HD
ENDBRANCH  13  16
ENDBRANCH   1   7
BRANCH   2  22
ATOM     22  N   UNL     1      49.157 158.376  30.461  0.00  0.00    -0.254 NA
ATOM     23  C   UNL     1      48.334 157.641  29.510  0.00  0.00    +0.074 C 
ATOM     24  C   UNL     1      48.893 156.260  29.459  0.00  0.00    +0.019 C 
ATOM     25  C   UNL     1      49.815 156.161  30.629  0.00  0.00    +0.019 C 
ATOM     26  C   UNL     1      50.231 157.559  30.930  0.00  0.00    +0.074 C 
ENDBRANCH   2  22
BRANCH   5  27
ATOM     27  C   UNL     1      48.555 163.850  31.850  0.00  0.00    +0.339 C 
ATOM     28  O   UNL     1      47.451 164.408  31.855  0.00  0.00    -0.245 OA
BRANCH  27  29
ATOM     29  O   UNL     1      49.671 164.599  32.175  0.00  0.00    -0.477 OA
ATOM     30  H   UNL     1      50.519 164.200  32.178  0.00  0.00    +0.295 HD
ENDBRANCH  27  29
ENDBRANCH   5  27
BRANCH   3  31
ATOM     31  C   UNL     1      47.050 159.080  32.172  0.00  0.00    +0.337 C 
ATOM     32  O   UNL     1      47.440 158.110  32.847  0.00  0.00    -0.245 OA
BRANCH  31  33
ATOM     33  O   UNL     1      45.691 159.206  31.900  0.00  0.00    -0.477 OA
ATOM     34  H   UNL     1      45.380 159.930  31.393  0.00  0.00    +0.295 HD
ENDBRANCH  31  33
ENDBRANCH   3  31
TORSDOF 7
