REMARK  Name = =
REMARK  9 active torsions:
REMARK  status: ('A' for Active; 'I' for Inactive)
REMARK    1  A    between atoms: C_3  and  C_29
REMARK    2  A    between atoms: C_5  and  C_26
REMARK    3  A    between atoms: C_6  and  S_32
REMARK    4  A    between atoms: C_13  and  S_16
REMARK    5  A    between atoms: C_26  and  O_28
REMARK    6  A    between atoms: C_29  and  O_31
REMARK    7  A    between atoms: S_32  and  P_33
REMARK    8  A    between atoms: P_33  and  O_35
REMARK    9  A    between atoms: P_33  and  O_36
REMARK                            x       y       z     vdW  Elec       q    Type
REMARK                         _______ _______ _______ _____ _____    ______ ____
ROOT
ATOM      1  N   UNL     1      51.705 159.008  30.311  0.00  0.00    -0.226 N 
ATOM      2  C   UNL     1      52.936 159.774  30.291  0.00  0.00    +0.179 C 
ATOM      3  C   UNL     1      53.009 160.884  31.001  0.00  0.00    +0.088 C 
ATOM      4  C   UNL     1      51.906 161.406  31.841  0.00  0.00    +0.013 C 
ATOM      5  C   UNL     1      50.702 160.609  31.831  0.00  0.00    +0.096 C 
ATOM      6  C   UNL     1      50.606 159.502  31.121  0.00  0.00    +0.103 C 
ATOM      7  N   UNL     1      51.570 157.880  29.577  0.00  0.00    -0.194 NA
ATOM      8  C   UNL     1      51.800 156.662  30.292  0.00  0.00    +0.119 C 
ATOM      9  C   UNL     1      51.970 155.599  29.223  0.00  0.00    -0.007 C 
ATOM     10  C   UNL     1      52.278 156.247  28.081  0.00  0.00    -0.007 C 
ATOM     11  C   UNL     1      52.261 157.745  28.346  0.00  0.00    +0.113 C 
ATOM     12  C   UNL     1      52.512 155.487  26.960  0.00  0.00    +0.001 C 
ATOM     13  C   UNL     1      52.427 154.115  27.026  0.00  0.00    +0.007 C 
ATOM     14  C   UNL     1      52.110 153.459  28.198  0.00  0.00    +0.004 C 
ATOM     15  C   UNL     1      51.875 154.230  29.322  0.00  0.00    -0.003 C 
ATOM     16  N   UNL     1      54.082 159.350  29.525  0.00  0.00    -0.253 NA
ATOM     17  C   UNL     1      55.482 159.498  29.755  0.00  0.00    +0.074 C 
ATOM     18  C   UNL     1      56.156 159.199  28.430  0.00  0.00    +0.019 C 
ATOM     19  C   UNL     1      55.202 158.317  27.677  0.00  0.00    +0.019 C 
ATOM     20  C   UNL     1      53.883 158.680  28.258  0.00  0.00    +0.080 C 
ENDROOT
BRANCH  13  21
ATOM     21  S   UNL     1      52.741 153.128  25.534  0.00  0.00    -0.191 S 
ATOM     22  C   UNL     1      53.543 154.122  24.172  0.00  0.00    +0.061 C 
ATOM     23  C   UNL     1      54.970 153.836  24.595  0.00  0.00    +0.100 C 
ATOM     24  N   UNL     1      55.072 152.419  24.729  0.00  0.00    -0.207 NA
ATOM     25  C   UNL     1      54.103 151.944  25.663  0.00  0.00    +0.130 C 
ATOM     26  H   UNL     1      51.500 152.610  25.333  0.00  0.00    +0.089 HD
ENDBRANCH  13  21
BRANCH   5  27
ATOM     27  C   UNL     1      49.602 161.005  32.718  0.00  0.00    +0.340 C 
ATOM     28  O   UNL     1      48.988 162.110  32.552  0.00  0.00    -0.245 OA
BRANCH  27  29
ATOM     29  O   UNL     1      49.160 160.239  33.773  0.00  0.00    -0.477 OA
ATOM     30  H   UNL     1      49.565 159.414  33.955  0.00  0.00    +0.295 HD
ENDBRANCH  27  29
ENDBRANCH   5  27
BRANCH   3  31
ATOM     31  C   UNL     1      54.198 161.769  30.939  0.00  0.00    +0.337 C 
ATOM     32  O   UNL     1      54.332 162.549  29.940  0.00  0.00    -0.245 OA
BRANCH  31  33
ATOM     33  O   UNL     1      55.173 161.807  31.880  0.00  0.00    -0.477 OA
ATOM     34  H   UNL     1      55.119 161.252  32.633  0.00  0.00    +0.295 HD
ENDBRANCH  31  33
ENDBRANCH   3  31
BRANCH   6  35
ATOM     35  S   UNL     1      49.008 158.708  31.171  0.00  0.00    -0.021 S 
BRANCH  35  36
ATOM     36  P   UNL     1      47.728 159.794  29.851  0.00  0.00    +0.230 P 
ATOM     37  S   UNL     1      46.416 160.503  30.673  0.00  0.00    +0.003 S 
BRANCH  36  38
ATOM     38  O   UNL     1      47.115 158.701  28.674  0.00  0.00    -0.339 OA
ATOM     39  H   UNL     1      46.615 157.997  29.116  0.00  0.00    +0.218 HD
ENDBRANCH  36  38
BRANCH  36  40
ATOM     40  O   UNL     1      48.571 160.964  28.992  0.00  0.00    -0.339 OA
ATOM     41  H   UNL     1      48.942 161.613  29.609  0.00  0.00    +0.218 HD
ENDBRANCH  36  40
ENDBRANCH  35  36
ENDBRANCH   6  35
TORSDOF 9
