REMARK  Name = =
REMARK  2 active torsions:
REMARK  status: ('A' for Active; 'I' for Inactive)
REMARK    1  A    between atoms: C_2  and  C_7
REMARK    2  A    between atoms: C_7  and  C_9
REMARK                            x       y       z     vdW  Elec       q    Type
REMARK                         _______ _______ _______ _____ _____    ______ ____
ROOT
ATOM      1  N   UNL     1      53.068 156.453  26.635  0.00  0.00    -0.202 NA
ATOM      2  C   UNL     1      52.454 155.804  27.638  0.00  0.00    +0.208 C 
ATOM      3  N   UNL     1      52.221 154.490  27.482  0.00  0.00    -0.202 NA
ATOM      4  C   UNL     1      52.591 153.847  26.359  0.00  0.00    +0.202 C 
ATOM      5  N   UNL     1      53.203 154.530  25.378  0.00  0.00    -0.202 NA
ATOM      6  C   UNL     1      53.453 155.838  25.495  0.00  0.00    +0.202 C 
ENDROOT
BRANCH   2   7
ATOM      7  C   UNL     1      52.048 156.511  28.870  0.00  0.00    +0.273 C 
ATOM      8  O   UNL     1      51.228 155.973  29.654  0.00  0.00    -0.280 OA
BRANCH   7   9
ATOM      9  C   UNL     1      52.573 157.817  29.202  0.00  0.00    +0.279 C 
ATOM     10  O   UNL     1      53.764 158.088  28.857  0.00  0.00    -0.279 OA
ENDBRANCH   7   9
ENDBRANCH   2   7
TORSDOF 2
