REMARK  Name = =
REMARK  5 active torsions:
REMARK  status: ('A' for Active; 'I' for Inactive)
REMARK    1  A    between atoms: C_1  and  C_4
REMARK    2  A    between atoms: C_1  and  C_9
REMARK    3  A    between atoms: C_9  and  P_11
REMARK    4  A    between atoms: P_11  and  O_13
REMARK    5  A    between atoms: P_11  and  O_14
REMARK                            x       y       z     vdW  Elec       q    Type
REMARK                         _______ _______ _______ _____ _____    ______ ____
ROOT
ATOM      1  C   UNL     1      51.190 156.708  29.241  0.00  0.00    +0.277 C 
ATOM      2  O   UNL     1      50.135 156.324  29.815  0.00  0.00    -0.280 OA
ENDROOT
BRANCH   1   4
ATOM      3  N   UNL     1      51.872 154.470  28.451  0.00  0.00    -0.202 NA
ATOM      4  C   UNL     1      51.896 155.802  28.302  0.00  0.00    +0.209 C 
ATOM      5  N   UNL     1      52.590 156.292  27.261  0.00  0.00    -0.202 NA
ATOM      6  C   UNL     1      53.244 155.484  26.389  0.00  0.00    +0.202 C 
ATOM      7  N   UNL     1      53.190 154.144  26.580  0.00  0.00    -0.202 NA
ATOM      8  C   UNL     1      52.497 153.615  27.624  0.00  0.00    +0.202 C 
ENDBRANCH   1   4
BRANCH   1   9
ATOM      9  C   UNL     1      51.693 158.035  29.513  0.00  0.00    +0.316 C 
ATOM     10  O   UNL     1      52.913 158.249  29.374  0.00  0.00    -0.275 OA
BRANCH   9  11
ATOM     11  P   UNL     1      50.567 159.305  30.032  0.00  0.00    +0.401 P 
ATOM     12  O   UNL     1      51.396 160.564  30.277  0.00  0.00    -0.250 OA
BRANCH  11  13
ATOM     13  O   UNL     1      49.383 159.622  28.861  0.00  0.00    -0.319 OA
ATOM     14  H   UNL     1      49.812 159.858  28.023  0.00  0.00    +0.220 HD
ENDBRANCH  11  13
BRANCH  11  15
ATOM     15  O   UNL     1      49.816 158.895  31.489  0.00  0.00    -0.319 OA
ATOM     16  H   UNL     1      50.491 158.713  32.161  0.00  0.00    +0.220 HD
ENDBRANCH  11  15
ENDBRANCH   9  11
ENDBRANCH   1   9
TORSDOF 5
