REMARK  Name = =
REMARK  15 active torsions:
REMARK  status: ('A' for Active; 'I' for Inactive)
REMARK    1  A    between atoms: C_1  and  S_3
REMARK    2  A    between atoms: C_1  and  O_18
REMARK    3  A    between atoms: P_4  and  O_5
REMARK    4  A    between atoms: P_4  and  C_6
REMARK    5  A    between atoms: P_4  and  O_16
REMARK    6  A    between atoms: O_5  and  O_17
REMARK    7  A    between atoms: C_6  and  C_8
REMARK    8  A    between atoms: C_8  and  C_11
REMARK    9  A    between atoms: O_18  and  P_19
REMARK   10  A    between atoms: P_19  and  O_21
REMARK   11  A    between atoms: P_19  and  O_26
REMARK   12  A    between atoms: O_21  and  P_22
REMARK   13  A    between atoms: P_22  and  O_24
REMARK   14  A    between atoms: P_22  and  O_25
REMARK   15  A    between atoms: O_26  and  C_27
REMARK                            x       y       z     vdW  Elec       q    Type
REMARK                         _______ _______ _______ _____ _____    ______ ____
ROOT
ATOM      1  P   UNL     1      51.587 160.170  30.592  0.00  0.00    +0.603 P 
ATOM      2  O   UNL     1      51.214 161.067  29.435  0.00  0.00    -0.204 OA
ENDROOT
BRANCH   1   3
ATOM      3  O   UNL     1      52.660 158.952  30.112  0.00  0.00    -0.353 OA
BRANCH   3   4
ATOM      4  C   UNL     1      52.387 158.123  29.044  0.00  0.00    +0.374 C 
ATOM      5  O   UNL     1      53.256 157.987  28.133  0.00  0.00    -0.237 OA
BRANCH   4   6
ATOM      6  S   UNL     1      50.826 157.221  28.903  0.00  0.00    -0.061 S 
ATOM      7  H   UNL     1      50.040 157.505  29.976  0.00  0.00    +0.113 HD
ENDBRANCH   4   6
ENDBRANCH   3   4
ENDBRANCH   1   3
BRANCH   1   8
ATOM      8  O   UNL     1      52.255 161.084  31.846  0.00  0.00    -0.166 OA
BRANCH   8   9
ATOM      9  P   UNL     1      53.564 161.994  31.338  0.00  0.00    +0.482 P 
ATOM     10  O   UNL     1      54.163 161.400  30.078  0.00  0.00    -0.227 OA
BRANCH   9  11
ATOM     11  O   UNL     1      54.702 162.013  32.591  0.00  0.00    -0.302 OA
ATOM     12  H   UNL     1      54.967 161.104  32.801  0.00  0.00    +0.222 HD
ENDBRANCH   9  11
BRANCH   9  13
ATOM     13  O   UNL     1      53.125 163.603  31.001  0.00  0.00    -0.302 OA
ATOM     14  H   UNL     1      52.738 164.006  31.794  0.00  0.00    +0.222 HD
ENDBRANCH   9  13
ENDBRANCH   8   9
ENDBRANCH   1   8
BRANCH   1  15
ATOM     15  O   UNL     1      50.100 159.522  31.200  0.00  0.00    -0.374 OA
BRANCH  15  16
ATOM     16  C   UNL     1      49.381 160.378  32.041  0.00  0.00    +0.254 C 
ATOM     17  N   UNL     1      48.508 161.292  31.574  0.00  0.00    -0.207 NA
ATOM     18  C   UNL     1      47.825 162.107  32.401  0.00  0.00    +0.123 C 
ATOM     19  C   UNL     1      47.994 162.035  33.769  0.00  0.00    +0.120 C 
ATOM     20  N   UNL     1      48.868 161.122  34.259  0.00  0.00    -0.236 NA
ATOM     21  C   UNL     1      49.537 160.321  33.411  0.00  0.00    +0.157 C 
ENDBRANCH  15  16
ENDBRANCH   1  15
TORSDOF 9
REMARK  Name = =
REMARK  15 active torsions:
REMARK  status: ('A' for Active; 'I' for Inactive)
REMARK    1  A    between atoms: C_1  and  S_3
REMARK    2  A    between atoms: C_1  and  O_18
REMARK    3  A    between atoms: P_4  and  O_5
REMARK    4  A    between atoms: P_4  and  C_6
REMARK    5  A    between atoms: P_4  and  O_16
REMARK    6  A    between atoms: O_5  and  O_17
REMARK    7  A    between atoms: C_6  and  C_8
REMARK    8  A    between atoms: C_8  and  C_11
REMARK    9  A    between atoms: O_18  and  P_19
REMARK   10  A    between atoms: P_19  and  O_21
REMARK   11  A    between atoms: P_19  and  O_26
REMARK   12  A    between atoms: O_21  and  P_22
REMARK   13  A    between atoms: P_22  and  O_24
REMARK   14  A    between atoms: P_22  and  O_25
REMARK   15  A    between atoms: O_26  and  C_27
REMARK                            x       y       z     vdW  Elec       q    Type
REMARK                         _______ _______ _______ _____ _____    ______ ____
ROOT
ATOM      1  C   UNL     1      52.413 154.400  28.146  0.00  0.00    +0.285 C 
ATOM      2  O   UNL     1      53.466 155.072  27.919  0.00  0.00    -0.278 OA
ENDROOT
BRANCH   1   3
ATOM      3  C   UNL     1      52.333 153.102  27.539  0.00  0.00    +0.274 C 
ATOM      4  O   UNL     1      51.723 152.124  28.072  0.00  0.00    -0.280 OA
BRANCH   3   6
ATOM      5  N   UNL     1      53.550 151.658  26.001  0.00  0.00    -0.202 NA
ATOM      6  C   UNL     1      52.973 152.843  26.244  0.00  0.00    +0.208 C 
ATOM      7  N   UNL     1      52.974 153.803  25.311  0.00  0.00    -0.202 NA
ATOM      8  C   UNL     1      53.554 153.568  24.135  0.00  0.00    +0.202 C 
ATOM      9  N   UNL     1      54.140 152.370  23.882  0.00  0.00    -0.202 NA
ATOM     10  C   UNL     1      54.136 151.413  24.823  0.00  0.00    +0.202 C 
ENDBRANCH   3   6
ENDBRANCH   1   3
BRANCH   1  11
ATOM     11  P   UNL     1      51.216 155.167  29.173  0.00  0.00    +0.285 P 
BRANCH  11  12
ATOM     12  O   UNL     1      49.612 155.505  28.802  0.00  0.00    -0.342 OA
ATOM     13  H   UNL     1      49.576 156.131  28.062  0.00  0.00    +0.217 HD
ENDBRANCH  11  12
BRANCH  11  14
ATOM     14  O   UNL     1      50.945 154.203  30.320  0.00  0.00    -0.178 OA
BRANCH  14  15
ATOM     15  O   UNL     1      52.033 155.186  30.663  0.00  0.00    -0.244 OA
ATOM     16  H   UNL     1      52.355 155.012  31.561  0.00  0.00    +0.253 HD
ENDBRANCH  14  15
ENDBRANCH  11  14
ENDBRANCH   1  11
TORSDOF 6
