REMARK  Name = =
REMARK  7 active torsions:
REMARK  status: ('A' for Active; 'I' for Inactive)
REMARK    1  A    between atoms: C_1  and  C_3
REMARK    2  A    between atoms: C_2  and  C_10
REMARK    3  A    between atoms: N_5  and  C_6
REMARK    4  A    between atoms: N_5  and  O_9
REMARK    5  A    between atoms: C_10  and  P_12
REMARK    6  A    between atoms: P_12  and  O_14
REMARK    7  A    between atoms: P_12  and  O_15
REMARK                            x       y       z     vdW  Elec       q    Type
REMARK                         _______ _______ _______ _____ _____    ______ ____
ROOT
ATOM      1  C   UNL     1      53.224 154.808  26.473  0.00  0.00    +0.061 C 
ATOM      2  C   UNL     1      53.693 155.902  25.933  0.00  0.00    +0.012 C 
ENDROOT
BRANCH   1   3
ATOM      3  C   UNL     1      52.361 154.869  27.647  0.00  0.00    +0.275 C 
ATOM      4  O   UNL     1      52.045 156.004  28.083  0.00  0.00    -0.267 OA
ATOM      5  N   UNL     1      51.877 153.713  28.303  0.00  0.00    -0.144 N 
BRANCH   5   6
ATOM      6  C   UNL     1      52.197 152.392  27.862  0.00  0.00    +0.103 C 
ATOM      7  C   UNL     1      52.066 152.086  26.597  0.00  0.00    +0.054 C 
ATOM      8  I   UNL     1      52.505 150.179  25.826  0.00  0.00    -0.041 I 
ENDBRANCH   5   6
BRANCH   5   9
ATOM      9  O   UNL     1      51.085 153.875  29.384  0.00  0.00    -0.287 OA
ATOM     10  H   UNL     1      50.962 154.822  29.555  0.00  0.00    +0.242 HD
ENDBRANCH   5   9
ENDBRANCH   1   3
BRANCH   2  11
ATOM     11  C   UNL     1      54.548 155.826  24.766  0.00  0.00    +0.080 C 
ATOM     12  C   UNL     1      55.007 156.937  24.228  0.00  0.00    +0.008 C 
BRANCH  11  13
ATOM     13  P   UNL     1      54.949 154.218  24.098  0.00  0.00    +0.359 P 
ATOM     14  O   UNL     1      55.607 154.414  22.732  0.00  0.00    -0.253 OA
BRANCH  13  15
ATOM     15  O   UNL     1      56.103 153.518  25.110  0.00  0.00    -0.321 OA
ATOM     16  H   UNL     1      56.874 154.103  25.174  0.00  0.00    +0.220 HD
ENDBRANCH  13  15
BRANCH  13  17
ATOM     17  O   UNL     1      53.593 153.234  23.960  0.00  0.00    -0.321 OA
ATOM     18  H   UNL     1      53.187 153.119  24.833  0.00  0.00    +0.220 HD
ENDBRANCH  13  17
ENDBRANCH  11  13
ENDBRANCH   2  11
TORSDOF 7
