REMARK  Name = =
REMARK  10 active torsions:
REMARK  status: ('A' for Active; 'I' for Inactive)
REMARK    1  A    between atoms: C_1  and  C_14
REMARK    2  A    between atoms: C_1  and  N_20
REMARK    3  A    between atoms: C_2  and  C_4
REMARK    4  A    between atoms: N_16  and  O_17
REMARK    5  A    between atoms: C_18  and  C_21
REMARK    6  A    between atoms: N_20  and  O_29
REMARK    7  A    between atoms: C_22  and  C_23
REMARK    8  A    between atoms: C_23  and  P_25
REMARK    9  A    between atoms: P_25  and  O_27
REMARK   10  A    between atoms: P_25  and  O_28
REMARK                            x       y       z     vdW  Elec       q    Type
REMARK                         _______ _______ _______ _____ _____    ______ ____
ROOT
ATOM      1  C   UNL     1      52.139 157.192  29.101  0.00  0.00    +0.141 C 
ATOM      2  C   UNL     1      50.875 157.100  29.504  0.00  0.00    +0.047 C 
ATOM      3  I   UNL     1      49.714 155.399  28.907  0.00  0.00    -0.041 I 
ENDROOT
BRANCH   2   4
ATOM      4  C   UNL     1      50.161 158.027  30.330  0.00  0.00    -0.011 C 
ATOM      5  C   UNL     1      50.747 159.140  30.894  0.00  0.00    +0.056 C 
ATOM      6  C   UNL     1      50.053 160.086  31.602  0.00  0.00    +0.017 C 
ATOM      7  C   UNL     1      48.695 159.916  31.761  0.00  0.00    +0.142 C 
ATOM      8  C   UNL     1      48.098 158.802  31.198  0.00  0.00    +0.037 C 
ATOM      9  C   UNL     1      48.781 157.847  30.487  0.00  0.00    -0.000 C 
ATOM     10  O   UNL     1      47.974 160.876  32.481  0.00  0.00    -0.451 OA
ATOM     11  C   UNL     1      48.549 162.008  33.059  0.00  0.00    +0.179 C 
ATOM     12  C   UNL     1      49.992 162.159  32.873  0.00  0.00    +0.040 C 
ATOM     13  C   UNL     1      50.686 161.252  32.188  0.00  0.00    +0.002 C 
ENDBRANCH   2   4
BRANCH   1  14
ATOM     14  C   UNL     1      52.966 158.357  29.261  0.00  0.00    +0.284 C 
ATOM     15  O   UNL     1      54.131 158.390  28.805  0.00  0.00    -0.267 OA
ATOM     16  N   UNL     1      52.571 159.539  29.908  0.00  0.00    -0.192 N 
ATOM     17  H   UNL     1      51.665 159.619  30.284  0.00  0.00    +0.183 HD
BRANCH  16  18
ATOM     18  O   UNL     1      53.477 160.604  30.015  0.00  0.00    -0.295 OA
ATOM     19  H   UNL     1      54.316 160.358  29.595  0.00  0.00    +0.241 HD
ENDBRANCH  16  18
ENDBRANCH   1  14
BRANCH   1  22
ATOM     20  C   UNL     1      52.767 156.026  26.907  0.00  0.00    +0.275 C 
ATOM     21  O   UNL     1      52.495 156.874  26.035  0.00  0.00    -0.267 OA
ATOM     22  N   UNL     1      52.650 156.139  28.293  0.00  0.00    -0.141 N 
BRANCH  20  23
ATOM     23  C   UNL     1      53.280 154.746  26.332  0.00  0.00    +0.061 C 
ATOM     24  C   UNL     1      53.530 154.678  25.059  0.00  0.00    +0.012 C 
BRANCH  24  25
ATOM     25  C   UNL     1      54.030 153.438  24.485  0.00  0.00    +0.080 C 
ATOM     26  C   UNL     1      54.330 153.385  23.216  0.00  0.00    +0.008 C 
BRANCH  25  27
ATOM     27  P   UNL     1      54.230 151.998  25.515  0.00  0.00    +0.359 P 
ATOM     28  O   UNL     1      53.060 151.894  26.491  0.00  0.00    -0.253 OA
BRANCH  27  29
ATOM     29  O   UNL     1      55.697 152.159  26.339  0.00  0.00    -0.321 OA
ATOM     30  H   UNL     1      55.672 152.956  26.891  0.00  0.00    +0.220 HD
ENDBRANCH  27  29
BRANCH  27  31
ATOM     31  O   UNL     1      54.263 150.597  24.540  0.00  0.00    -0.321 OA
ATOM     32  H   UNL     1      55.004 150.654  23.916  0.00  0.00    +0.220 HD
ENDBRANCH  27  31
ENDBRANCH  25  27
ENDBRANCH  24  25
ENDBRANCH  20  23
BRANCH  22  33
ATOM     33  O   UNL     1      53.074 155.006  28.994  0.00  0.00    -0.287 OA
ATOM     34  H   UNL     1      53.405 154.343  28.368  0.00  0.00    +0.242 HD
ENDBRANCH  22  33
ENDBRANCH   1  22
TORSDOF 10
