MODEL 1
REMARK VINA RESULT:    -9.717      0.000      0.000
REMARK INTER + INTRA:         -13.355
REMARK INTER:                 -12.842
REMARK INTRA:                  -0.513
REMARK UNBOUND:                -0.513
REMARK  Name = =
REMARK  6 active torsions:
REMARK  status: ('A' for Active; 'I' for Inactive)
REMARK    1  A    between atoms: C_2  and  N_12
REMARK    2  A    between atoms: C_9  and  O_27
REMARK    3  A    between atoms: C_11  and  O_28
REMARK    4  A    between atoms: C_17  and  N_20
REMARK    5  A    between atoms: O_28  and  C_29
REMARK    6  A    between atoms: C_30  and  S_36
REMARK                            x       y       z     vdW  Elec       q    Type
REMARK                         _______ _______ _______ _____ _____    ______ ____
ROOT
ATOM      1  O   UNL     1       0.847  -4.589  26.828  0.00  0.00    -0.459 OA
ATOM      2  C   UNL     1       0.432  -3.233  26.754  0.00  0.00    +0.260 C 
ATOM      3  C   UNL     1       0.216  -2.646  28.114  0.00  0.00    +0.135 C 
ATOM      4  C   UNL     1      -0.314  -3.658  29.055  0.00  0.00    +0.184 C 
ATOM      5  O   UNL     1      -0.677  -3.322  30.235  0.00  0.00    -0.291 OA
ATOM      6  C   UNL     1      -0.460  -5.056  28.739  0.00  0.00    +0.103 C 
ATOM      7  C   UNL     1       0.145  -5.519  27.586  0.00  0.00    +0.149 C 
ATOM      8  C   UNL     1       0.044  -6.842  27.227  0.00  0.00    +0.074 C 
ATOM      9  C   UNL     1      -0.668  -7.721  28.023  0.00  0.00    +0.140 C 
ATOM     10  C   UNL     1      -1.260  -7.221  29.170  0.00  0.00    +0.074 C 
ATOM     11  C   UNL     1      -1.184  -5.908  29.564  0.00  0.00    +0.151 C 
ENDROOT
BRANCH   2  12
ATOM     12  N   UNL     1       1.452  -2.549  26.000  0.00  0.00    -0.194 N 
ATOM     13  C   UNL     1       1.083  -1.736  24.895  0.00  0.00    +0.234 C 
ATOM     14  O   UNL     1      -0.124  -1.359  24.723  0.00  0.00    -0.274 OA
ATOM     15  C   UNL     1       2.035  -1.259  23.856  0.00  0.00    +0.088 C 
ATOM     16  C   UNL     1       3.360  -2.003  24.067  0.00  0.00    +0.035 C 
ATOM     17  C   UNL     1       3.742  -1.782  25.501  0.00  0.00    +0.136 C 
ATOM     18  C   UNL     1       2.830  -2.647  26.310  0.00  0.00    +0.248 C 
ATOM     19  O   UNL     1       3.202  -3.419  27.208  0.00  0.00    -0.273 OA
BRANCH  17  20
ATOM     20  N   UNL     1       5.086  -2.115  25.840  0.00  0.00    -0.265 NA
ATOM     21  C   UNL     1       5.531  -3.358  25.616  0.00  0.00    +0.091 C 
ATOM     22  C   UNL     1       5.968  -4.668  25.371  0.00  0.00    +0.106 C 
ATOM     23  N   UNL     1       7.199  -4.512  24.520  0.00  0.00    -0.217 NA
ATOM     24  C   UNL     1       7.237  -3.190  23.891  0.00  0.00    +0.090 C 
ATOM     25  C   UNL     1       7.243  -1.951  24.615  0.00  0.00    +0.036 C 
ATOM     26  C   UNL     1       6.030  -1.207  25.111  0.00  0.00    +0.074 C 
ENDBRANCH  17  20
ENDBRANCH   2  12
BRANCH   9  27
ATOM     27  O   UNL     1      -0.767  -9.069  27.650  0.00  0.00    -0.505 OA
ATOM     28  H   UNL     1      -1.176  -9.302  26.840  0.00  0.00    +0.292 HD
ENDBRANCH   9  27
BRANCH  11  29
ATOM     29  O   UNL     1      -1.753  -5.380  30.688  0.00  0.00    -0.442 OA
BRANCH  29  30
ATOM     30  C   UNL     1      -2.867  -5.827  31.399  0.00  0.00    +0.365 C 
ATOM     31  C   UNL     1      -3.560  -4.716  32.148  0.00  0.00    +0.210 C 
ATOM     32  C   UNL     1      -4.487  -5.185  33.212  0.00  0.00    +0.043 C 
ATOM     33  C   UNL     1      -3.955  -6.230  34.130  0.00  0.00    +0.112 C 
ATOM     34  C   UNL     1      -3.275  -7.275  33.341  0.00  0.00    +0.320 C 
ATOM     35  O   UNL     1      -3.372  -8.499  33.628  0.00  0.00    -0.250 OA
ATOM     36  O   UNL     1      -2.513  -6.897  32.260  0.00  0.00    -0.412 OA
BRANCH  31  37
ATOM     37  S   UNL     1      -4.458  -3.652  31.042  0.00  0.00    -0.025 S 
ATOM     38  O   UNL     1      -4.465  -4.312  29.685  0.00  0.00    -0.176 OA
ATOM     39  O   UNL     1      -3.788  -2.313  30.907  0.00  0.00    -0.176 OA
ATOM     40  H   UNL     1      -5.713  -3.459  31.530  0.00  0.00    +0.210 HD
ENDBRANCH  31  37
ENDBRANCH  29  30
ENDBRANCH  11  29
TORSDOF 6
ENDMDL
