REMARK  Name = =
REMARK  4 active torsions:
REMARK  status: ('A' for Active; 'I' for Inactive)
REMARK    1  A    between atoms: N_1  and  C_38
REMARK    2  A    between atoms: C_34  and  O_40
REMARK    3  A    between atoms: O_40  and  N_41
REMARK    4  A    between atoms: N_41  and  N_44
REMARK                            x       y       z     vdW  Elec       q    Type
REMARK                         _______ _______ _______ _____ _____    ______ ____
ROOT
ATOM      1  N   UNL     1     -21.689 -38.817  21.031  0.00  0.00    -0.153 N 
ATOM      2  N   UNL     1     -21.901 -37.820  20.201  0.00  0.00    -0.149 NA
ATOM      3  C   UNL     1     -23.206 -37.555  20.181  0.00  0.00    +0.220 C 
ATOM      4  N   UNL     1     -23.802 -38.403  21.012  0.00  0.00    -0.192 NA
ATOM      5  C   UNL     1     -22.860 -39.190  21.544  0.00  0.00    +0.214 C 
ATOM      6  N   UNL     1     -23.079 -40.247  22.498  0.00  0.00    -0.277 N 
ATOM      7  C   UNL     1     -23.307 -41.577  21.977  0.00  0.00    +0.111 C 
ATOM      8  C   UNL     1     -24.516 -41.611  21.046  0.00  0.00    +0.094 C 
ATOM      9  N   UNL     1     -24.415 -42.867  20.318  0.00  0.00    -0.271 NA
ATOM     10  C   UNL     1     -25.510 -43.752  20.604  0.00  0.00    +0.073 C 
ATOM     11  C   UNL     1     -26.065 -44.222  19.294  0.00  0.00    +0.019 C 
ATOM     12  C   UNL     1     -24.909 -43.922  18.338  0.00  0.00    +0.019 C 
ATOM     13  C   UNL     1     -24.433 -42.580  18.901  0.00  0.00    +0.072 C 
ATOM     14  C   UNL     1     -25.062 -44.923  21.444  0.00  0.00    +0.085 C 
ATOM     15  N   UNL     1     -26.214 -45.711  21.849  0.00  0.00    -0.296 NA
ATOM     16  C   UNL     1     -26.290 -45.902  23.268  0.00  0.00    +0.069 C 
ATOM     17  C   UNL     1     -27.642 -45.394  23.774  0.00  0.00    +0.017 C 
ATOM     18  C   UNL     1     -27.440 -44.634  25.065  0.00  0.00    +0.003 C 
ATOM     19  C   UNL     1     -27.204 -45.536  26.233  0.00  0.00    +0.017 C 
ATOM     20  C   UNL     1     -26.571 -44.720  27.353  0.00  0.00    +0.069 C 
ATOM     21  N   UNL     1     -27.321 -43.543  27.665  0.00  0.00    -0.296 NA
ATOM     22  C   UNL     1     -26.667 -42.320  27.193  0.00  0.00    +0.086 C 
ATOM     23  C   UNL     1     -26.910 -41.162  28.143  0.00  0.00    +0.089 C 
ATOM     24  N   UNL     1     -25.800 -40.428  28.505  0.00  0.00    -0.271 NA
ATOM     25  C   UNL     1     -24.828 -40.046  27.603  0.00  0.00    +0.073 C 
ATOM     26  C   UNL     1     -23.748 -39.399  28.479  0.00  0.00    +0.019 C 
ATOM     27  C   UNL     1     -24.524 -38.953  29.722  0.00  0.00    +0.019 C 
ATOM     28  C   UNL     1     -25.523 -40.112  29.830  0.00  0.00    +0.072 C 
ATOM     29  C   UNL     1     -25.245 -38.963  26.607  0.00  0.00    +0.085 C 
ATOM     30  N   UNL     1     -24.148 -38.779  25.679  0.00  0.00    -0.295 NA
ATOM     31  C   UNL     1     -24.367 -39.394  24.403  0.00  0.00    +0.090 C 
ATOM     32  C   UNL     1     -23.078 -39.993  23.930  0.00  0.00    +0.111 C 
ATOM     33  H   UNL     1     -26.157 -46.625  21.400  0.00  0.00    +0.123 HD
ATOM     34  H   UNL     1     -27.432 -43.485  28.677  0.00  0.00    +0.123 HD
ATOM     35  H   UNL     1     -23.306 -39.182  26.091  0.00  0.00    +0.123 HD
ENDROOT
BRANCH   1  41
ATOM     36  O   UNL     1     -19.059 -40.896  22.325  0.00  0.00    -0.418 OA
ATOM     37  C   UNL     1     -17.971 -40.406  21.782  0.00  0.00    +0.326 C 
ATOM     38  C   UNL     1     -18.045 -39.323  20.928  0.00  0.00    +0.124 C 
ATOM     39  C   UNL     1     -19.285 -38.791  20.678  0.00  0.00    +0.221 C 
ATOM     40  O   UNL     1     -19.339 -37.803  19.895  0.00  0.00    -0.285 OA
ATOM     41  C   UNL     1     -20.385 -39.339  21.270  0.00  0.00    +0.153 C 
ATOM     42  C   UNL     1     -20.258 -40.414  22.109  0.00  0.00    +0.203 C 
BRANCH  37  43
ATOM     43  O   UNL     1     -16.767 -40.999  22.083  0.00  0.00    -0.321 OA
BRANCH  43  44
ATOM     44  N   UNL     1     -16.547 -41.628  23.292  0.00  0.00    -0.004 N 
ATOM     45  C   UNL     1     -15.959 -42.936  23.201  0.00  0.00    +0.361 C 
ATOM     46  O   UNL     1     -15.743 -43.561  24.261  0.00  0.00    -0.260 OA
BRANCH  44  47
ATOM     47  N   UNL     1     -16.871 -41.022  24.447  0.00  0.00    -0.137 NA
ATOM     48  C   UNL     1     -17.916 -40.805  25.097  0.00  0.00    +0.144 C 
ENDBRANCH  44  47
ENDBRANCH  43  44
ENDBRANCH  37  43
ENDBRANCH   1  41
TORSDOF 4
