REMARK  Name = =
REMARK  0 active torsions:
REMARK  status: ('A' for Active; 'I' for Inactive)
REMARK                            x       y       z     vdW  Elec       q    Type
REMARK                         _______ _______ _______ _____ _____    ______ ____
ROOT
ATOM      1  N   UNL     1      52.339 155.719  28.361  0.00  0.00    -0.304 N 
ATOM      2  C   UNL     1      52.938 155.580  27.043  0.00  0.00    +0.222 C 
ATOM      3  O   UNL     1      53.125 156.765  26.575  0.00  0.00    -0.275 OA
ATOM      4  C   UNL     1      53.342 154.473  26.204  0.00  0.00    +0.085 C 
ATOM      5  C   UNL     1      52.454 153.326  25.824  0.00  0.00    +0.010 C 
ATOM      6  C   UNL     1      51.943 152.515  27.069  0.00  0.00    +0.002 C 
ATOM      7  C   UNL     1      51.849 153.424  28.130  0.00  0.00    +0.021 C 
ATOM      8  C   UNL     1      51.846 154.484  29.075  0.00  0.00    +0.089 C 
ATOM      9  H   UNL     1      52.256 156.605  28.781  0.00  0.00    +0.149 HD
ENDROOT
TORSDOF 0
