REMARK  Name = =
REMARK  4 active torsions:
REMARK  status: ('A' for Active; 'I' for Inactive)
REMARK    1  A    between atoms: N_1  and  O_9
REMARK    2  A    between atoms: O_9  and  P_10
REMARK    3  A    between atoms: P_10  and  O_12
REMARK    4  A    between atoms: P_10  and  O_13
REMARK                            x       y       z     vdW  Elec       q    Type
REMARK                         _______ _______ _______ _____ _____    ______ ____
ROOT
ATOM      1  N   UNL     1      52.421 155.389  27.302  0.00  0.00    -0.159 N 
ATOM      2  C   UNL     1      53.028 156.047  26.208  0.00  0.00    +0.248 C 
ATOM      3  O   UNL     1      53.288 157.277  26.297  0.00  0.00    -0.273 OA
ATOM      4  C   UNL     1      53.413 155.445  24.901  0.00  0.00    +0.087 C 
ATOM      5  C   UNL     1      53.160 153.975  24.849  0.00  0.00    +0.010 C 
ATOM      6  C   UNL     1      53.819 153.170  25.918  0.00  0.00    +0.002 C 
ATOM      7  C   UNL     1      53.155 153.145  27.239  0.00  0.00    +0.024 C 
ATOM      8  C   UNL     1      51.939 154.032  27.354  0.00  0.00    +0.125 C 
ENDROOT
BRANCH   1   9
ATOM      9  O   UNL     1      52.288 156.134  28.408  0.00  0.00    -0.172 OA
BRANCH   9  10
ATOM     10  P   UNL     1      50.973 155.761  29.362  0.00  0.00    +0.492 P 
ATOM     11  O   UNL     1      49.820 155.140  28.634  0.00  0.00    -0.226 OA
BRANCH  10  12
ATOM     12  O   UNL     1      50.421 157.218  30.063  0.00  0.00    -0.301 OA
ATOM     13  H   UNL     1      51.150 157.643  30.542  0.00  0.00    +0.222 HD
ENDBRANCH  10  12
BRANCH  10  14
ATOM     14  O   UNL     1      51.408 154.693  30.608  0.00  0.00    -0.301 OA
ATOM     15  H   UNL     1      52.155 155.062  31.104  0.00  0.00    +0.222 HD
ENDBRANCH  10  14
ENDBRANCH   9  10
ENDBRANCH   1   9
TORSDOF 4
