REMARK  Name = =
REMARK  5 active torsions:
REMARK  status: ('A' for Active; 'I' for Inactive)
REMARK    1  A    between atoms: P_1  and  O_3
REMARK    2  A    between atoms: P_1  and  O_4
REMARK    3  A    between atoms: P_1  and  O_13
REMARK    4  A    between atoms: O_4  and  N_5
REMARK    5  A    between atoms: O_13  and  N_14
REMARK                            x       y       z     vdW  Elec       q    Type
REMARK                         _______ _______ _______ _____ _____    ______ ____
ROOT
ATOM      1  P   UNL     1      53.390 155.921  25.293  0.00  0.00    +0.511 P 
ATOM      2  O   UNL     1      53.130 156.686  23.995  0.00  0.00    -0.224 OA
ENDROOT
BRANCH   1   3
ATOM      3  O   UNL     1      53.589 157.038  26.546  0.00  0.00    -0.300 OA
ATOM      4  H   UNL     1      52.760 157.523  26.682  0.00  0.00    +0.222 HD
ENDBRANCH   1   3
BRANCH   1   5
ATOM      5  O   UNL     1      52.100 154.868  25.579  0.00  0.00    -0.171 OA
BRANCH   5   6
ATOM      6  N   UNL     1      51.695 154.800  26.817  0.00  0.00    -0.159 N 
ATOM      7  C   UNL     1      51.653 153.524  27.528  0.00  0.00    +0.248 C 
ATOM      8  O   UNL     1      52.237 152.650  26.781  0.00  0.00    -0.273 OA
ATOM      9  C   UNL     1      51.127 153.079  28.802  0.00  0.00    +0.087 C 
ATOM     10  C   UNL     1      51.487 153.698  30.119  0.00  0.00    +0.010 C 
ATOM     11  C   UNL     1      51.057 155.207  30.209  0.00  0.00    +0.002 C 
ATOM     12  C   UNL     1      51.152 155.732  28.915  0.00  0.00    +0.024 C 
ATOM     13  C   UNL     1      51.261 156.052  27.536  0.00  0.00    +0.125 C 
ENDBRANCH   5   6
ENDBRANCH   1   5
BRANCH   1  14
ATOM     14  O   UNL     1      54.833 155.063  25.041  0.00  0.00    -0.192 OA
BRANCH  14  15
ATOM     15  N   UNL     1      54.633 153.730  25.164  0.00  0.00    -0.151 NA
ATOM     16  C   UNL     1      55.809 153.153  25.719  0.00  0.00    +0.134 C 
ATOM     17  C   UNL     1      55.970 151.695  25.547  0.00  0.00    +0.162 C 
ATOM     18  O   UNL     1      55.393 151.153  24.431  0.00  0.00    -0.351 OA
ATOM     19  C   UNL     1      54.120 151.624  24.188  0.00  0.00    +0.162 C 
ATOM     20  C   UNL     1      54.277 153.121  23.895  0.00  0.00    +0.134 C 
ENDBRANCH  14  15
ENDBRANCH   1  14
TORSDOF 5
