REMARK  Name = =
REMARK  7 active torsions:
REMARK  status: ('A' for Active; 'I' for Inactive)
REMARK    1  A    between atoms: N_1  and  O_17
REMARK    2  A    between atoms: C_3  and  N_7
REMARK    3  A    between atoms: C_12  and  N_16
REMARK    4  A    between atoms: O_17  and  P_18
REMARK    5  A    between atoms: P_18  and  O_20
REMARK    6  A    between atoms: P_18  and  O_21
REMARK    7  A    between atoms: O_21  and  N_22
REMARK                            x       y       z     vdW  Elec       q    Type
REMARK                         _______ _______ _______ _____ _____    ______ ____
ROOT
ATOM      1  N   UNL     1      52.665 155.979  26.950  0.00  0.00    -0.149 NA
ATOM      2  C   UNL     1      52.278 157.210  27.592  0.00  0.00    +0.153 C 
ATOM      3  C   UNL     1      51.176 157.039  28.599  0.00  0.00    +0.217 C 
ATOM      4  O   UNL     1      51.360 155.942  29.429  0.00  0.00    -0.334 OA
ATOM      5  C   UNL     1      52.612 155.360  29.260  0.00  0.00    +0.164 C 
ATOM      6  C   UNL     1      52.621 154.841  27.821  0.00  0.00    +0.134 C 
ENDROOT
BRANCH   3   7
ATOM      7  N   UNL     1      51.180 158.220  29.450  0.00  0.00    -0.230 N 
ATOM      8  C   UNL     1      50.082 158.914  29.851  0.00  0.00    +0.161 C 
ATOM      9  N   UNL     1      48.781 158.722  29.595  0.00  0.00    -0.207 NA
ATOM     10  C   UNL     1      47.854 159.559  30.116  0.00  0.00    +0.201 C 
ATOM     11  N   UNL     1      48.237 160.596  30.900  0.00  0.00    -0.208 NA
ATOM     12  C   UNL     1      49.524 160.841  31.194  0.00  0.00    +0.148 C 
ATOM     13  C   UNL     1      50.471 159.969  30.649  0.00  0.00    +0.146 C 
ATOM     14  N   UNL     1      51.799 159.916  30.732  0.00  0.00    -0.222 NA
ATOM     15  C   UNL     1      52.222 158.856  30.005  0.00  0.00    +0.171 C 
BRANCH  12  16
ATOM     16  N   UNL     1      49.910 161.934  32.018  0.00  0.00    -0.341 N 
ATOM     17  H   UNL     1      49.225 162.535  32.391  0.00  0.00    +0.144 HD
ATOM     18  H   UNL     1      50.862 162.089  32.216  0.00  0.00    +0.144 HD
ENDBRANCH  12  16
ENDBRANCH   3   7
BRANCH   1  19
ATOM     19  O   UNL     1      53.808 156.179  26.304  0.00  0.00    -0.192 OA
BRANCH  19  20
ATOM     20  P   UNL     1      53.623 156.407  24.638  0.00  0.00    +0.511 P 
ATOM     21  O   UNL     1      54.711 157.422  24.262  0.00  0.00    -0.224 OA
BRANCH  20  22
ATOM     22  O   UNL     1      52.154 157.169  24.339  0.00  0.00    -0.300 OA
ATOM     23  H   UNL     1      52.128 158.017  24.809  0.00  0.00    +0.222 HD
ENDBRANCH  20  22
BRANCH  20  24
ATOM     24  O   UNL     1      53.809 154.943  23.896  0.00  0.00    -0.171 OA
BRANCH  24  25
ATOM     25  N   UNL     1      54.259 153.929  24.591  0.00  0.00    -0.158 N 
ATOM     26  C   UNL     1      53.337 152.933  25.004  0.00  0.00    +0.253 C 
ATOM     27  O   UNL     1      52.192 153.403  25.236  0.00  0.00    -0.272 OA
ATOM     28  C   UNL     1      53.540 151.458  25.192  0.00  0.00    +0.113 C 
ATOM     29  C   UNL     1      54.549 151.117  26.226  0.00  0.00    -0.021 C 
ATOM     30  C   UNL     1      55.892 151.717  26.097  0.00  0.00    -0.028 C 
ATOM     31  C   UNL     1      56.199 152.461  24.851  0.00  0.00    +0.050 C 
ATOM     32  C   UNL     1      55.682 153.908  24.871  0.00  0.00    +0.129 C 
ENDBRANCH  24  25
ENDBRANCH  20  24
ENDBRANCH  19  20
ENDBRANCH   1  19
TORSDOF 7
