REMARK  Name = =
REMARK  9 active torsions:
REMARK  status: ('A' for Active; 'I' for Inactive)
REMARK    1  A    between atoms: N_1  and  O_20
REMARK    2  A    between atoms: C_3  and  N_7
REMARK    3  A    between atoms: C_10  and  S_17
REMARK    4  A    between atoms: C_12  and  N_16
REMARK    5  A    between atoms: S_17  and  S_19
REMARK    6  A    between atoms: O_20  and  P_21
REMARK    7  A    between atoms: P_21  and  O_23
REMARK    8  A    between atoms: P_21  and  O_24
REMARK    9  A    between atoms: O_24  and  N_25
REMARK                            x       y       z     vdW  Elec       q    Type
REMARK                         _______ _______ _______ _____ _____    ______ ____
ROOT
ATOM      1  N   UNL     1      52.813 155.907  29.014  0.00  0.00    -0.149 NA
ATOM      2  C   UNL     1      52.530 156.844  30.079  0.00  0.00    +0.153 C 
ATOM      3  C   UNL     1      51.536 157.897  29.622  0.00  0.00    +0.217 C 
ATOM      4  O   UNL     1      51.162 157.799  28.316  0.00  0.00    -0.334 OA
ATOM      5  C   UNL     1      52.123 157.495  27.396  0.00  0.00    +0.164 C 
ATOM      6  C   UNL     1      53.285 156.695  27.898  0.00  0.00    +0.134 C 
ENDROOT
BRANCH   3   7
ATOM      7  N   UNL     1      51.973 159.220  30.039  0.00  0.00    -0.230 N 
ATOM      8  C   UNL     1      51.264 160.097  30.812  0.00  0.00    +0.161 A 
ATOM      9  N   UNL     1      50.041 159.997  31.359  0.00  0.00    -0.202 NA
ATOM     10  C   UNL     1      49.538 161.000  32.104  0.00  0.00    +0.233 A 
ATOM     11  N   UNL     1      50.305 162.109  32.279  0.00  0.00    -0.202 NA
ATOM     12  C   UNL     1      51.532 162.248  31.748  0.00  0.00    +0.148 A 
ATOM     13  C   UNL     1      52.061 161.211  30.975  0.00  0.00    +0.146 A 
ATOM     14  N   UNL     1      53.203 161.016  30.327  0.00  0.00    -0.222 NA
ATOM     15  C   UNL     1      53.148 159.799  29.756  0.00  0.00    +0.171 C 
BRANCH  12  16
ATOM     16  N   UNL     1      52.326 163.408  31.940  0.00  0.00    -0.341 N 
ATOM     17  H   UNL     1      51.982 164.156  32.479  0.00  0.00    +0.144 HD
ATOM     18  H   UNL     1      53.221 163.465  31.534  0.00  0.00    +0.144 HD
ENDBRANCH  12  16
BRANCH  10  19
ATOM     19  S   UNL     1      47.959 160.965  32.849  0.00  0.00    +0.148 S 
ATOM     20  O   UNL     1      47.836 161.668  34.159  0.00  0.00    -0.238 OA
BRANCH  19  21
ATOM     21  S   UNL     1      46.349 161.094  31.560  0.00  0.00    -0.070 S 
ATOM     22  H   UNL     1      46.624 160.403  30.421  0.00  0.00    +0.117 HD
ENDBRANCH  19  21
ENDBRANCH  10  19
ENDBRANCH   3   7
BRANCH   1  23
ATOM     23  O   UNL     1      51.802 155.106  28.687  0.00  0.00    -0.192 OA
BRANCH  23  24
ATOM     24  P   UNL     1      52.373 153.653  28.057  0.00  0.00    +0.511 P 
ATOM     25  O   UNL     1      51.505 152.519  28.477  0.00  0.00    -0.224 OA
BRANCH  24  26
ATOM     26  O   UNL     1      53.956 153.339  28.583  0.00  0.00    -0.300 OA
ATOM     27  H   UNL     1      53.968 153.275  29.551  0.00  0.00    +0.222 HD
ENDBRANCH  24  26
BRANCH  24  28
ATOM     28  O   UNL     1      52.434 153.750  26.369  0.00  0.00    -0.171 OA
BRANCH  28  29
ATOM     29  N   UNL     1      53.115 152.732  25.837  0.00  0.00    -0.159 N 
ATOM     30  C   UNL     1      52.543 151.425  25.986  0.00  0.00    +0.248 C 
ATOM     31  O   UNL     1      51.329 151.453  26.321  0.00  0.00    -0.273 OA
ATOM     32  C   UNL     1      53.190 150.105  25.796  0.00  0.00    +0.087 C 
ATOM     33  C   UNL     1      53.932 150.161  24.473  0.00  0.00    +0.010 C 
ATOM     34  C   UNL     1      55.309 150.725  24.626  0.00  0.00    +0.002 C 
ATOM     35  C   UNL     1      55.354 151.917  25.559  0.00  0.00    +0.024 C 
ATOM     36  C   UNL     1      54.384 152.997  25.143  0.00  0.00    +0.125 C 
ENDBRANCH  28  29
ENDBRANCH  24  28
ENDBRANCH  23  24
ENDBRANCH   1  23
TORSDOF 9
