REMARK  Name = =
REMARK  11 active torsions:
REMARK  status: ('A' for Active; 'I' for Inactive)
REMARK    1  A    between atoms: N_1  and  O_22
REMARK    2  A    between atoms: C_3  and  N_7
REMARK    3  A    between atoms: C_10  and  S_17
REMARK    4  A    between atoms: C_12  and  N_16
REMARK    5  A    between atoms: S_17  and  S_19
REMARK    6  A    between atoms: S_19  and  N_20
REMARK    7  A    between atoms: N_20  and  O_21
REMARK    8  A    between atoms: O_22  and  P_23
REMARK    9  A    between atoms: P_23  and  O_25
REMARK   10  A    between atoms: P_23  and  O_26
REMARK   11  A    between atoms: O_26  and  N_27
REMARK                            x       y       z     vdW  Elec       q    Type
REMARK                         _______ _______ _______ _____ _____    ______ ____
ROOT
ATOM      1  N   UNL     1      51.713 155.513  29.230  0.00  0.00    -0.149 NA
ATOM      2  C   UNL     1      50.916 156.320  30.133  0.00  0.00    +0.153 C 
ATOM      3  C   UNL     1      50.540 157.597  29.442  0.00  0.00    +0.217 C 
ATOM      4  O   UNL     1      51.607 158.283  28.913  0.00  0.00    -0.334 OA
ATOM      5  C   UNL     1      52.784 157.708  29.350  0.00  0.00    +0.164 C 
ATOM      6  C   UNL     1      52.830 156.288  28.788  0.00  0.00    +0.134 C 
ENDROOT
BRANCH   3   7
ATOM      7  N   UNL     1      49.903 158.452  30.449  0.00  0.00    -0.230 N 
ATOM      8  C   UNL     1      50.357 159.653  30.889  0.00  0.00    +0.161 A 
ATOM      9  N   UNL     1      51.426 160.392  30.588  0.00  0.00    -0.201 NA
ATOM     10  C   UNL     1      51.714 161.575  31.137  0.00  0.00    +0.234 A 
ATOM     11  N   UNL     1      50.844 162.047  32.070  0.00  0.00    -0.202 NA
ATOM     12  C   UNL     1      49.743 161.370  32.434  0.00  0.00    +0.148 A 
ATOM     13  C   UNL     1      49.481 160.150  31.842  0.00  0.00    +0.146 A 
ATOM     14  N   UNL     1      48.509 159.229  31.956  0.00  0.00    -0.222 NA
ATOM     15  C   UNL     1      48.764 158.208  31.118  0.00  0.00    +0.171 C 
BRANCH  12  16
ATOM     16  N   UNL     1      48.853 161.881  33.407  0.00  0.00    -0.341 N 
ATOM     17  H   UNL     1      49.035 162.750  33.832  0.00  0.00    +0.144 HD
ATOM     18  H   UNL     1      48.052 161.368  33.659  0.00  0.00    +0.144 HD
ENDBRANCH  12  16
BRANCH  10  19
ATOM     19  S   UNL     1      53.143 162.445  30.657  0.00  0.00    +0.168 S 
ATOM     20  O   UNL     1      53.175 163.886  31.043  0.00  0.00    -0.236 OA
BRANCH  19  21
ATOM     21  S   UNL     1      54.925 161.419  30.841  0.00  0.00    +0.056 S 
BRANCH  21  22
ATOM     22  N   UNL     1      55.519 161.215  32.464  0.00  0.00    -0.134 NA
ATOM     23  H   UNL     1      56.085 160.367  32.506  0.00  0.00    +0.169 HD
BRANCH  22  24
ATOM     24  O   UNL     1      56.274 162.267  32.849  0.00  0.00    -0.304 OA
ATOM     25  H   UNL     1      55.742 163.077  32.812  0.00  0.00    +0.237 HD
ENDBRANCH  22  24
ENDBRANCH  21  22
ENDBRANCH  19  21
ENDBRANCH  10  19
ENDBRANCH   3   7
BRANCH   1  26
ATOM     26  O   UNL     1      50.921 155.065  28.256  0.00  0.00    -0.192 OA
BRANCH  26  27
ATOM     27  P   UNL     1      51.731 154.130  27.112  0.00  0.00    +0.511 P 
ATOM     28  O   UNL     1      51.360 152.676  27.180  0.00  0.00    -0.224 OA
BRANCH  27  29
ATOM     29  O   UNL     1      51.263 154.703  25.578  0.00  0.00    -0.300 OA
ATOM     30  H   UNL     1      51.711 154.187  24.890  0.00  0.00    +0.222 HD
ENDBRANCH  27  29
BRANCH  27  31
ATOM     31  O   UNL     1      53.401 154.273  27.227  0.00  0.00    -0.171 OA
BRANCH  31  32
ATOM     32  N   UNL     1      53.908 153.980  25.999  0.00  0.00    -0.159 N 
ATOM     33  C   UNL     1      54.347 152.647  25.757  0.00  0.00    +0.248 C 
ATOM     34  O   UNL     1      54.311 151.917  26.774  0.00  0.00    -0.273 OA
ATOM     35  C   UNL     1      54.833 152.033  24.474  0.00  0.00    +0.087 C 
ATOM     36  C   UNL     1      54.316 152.801  23.280  0.00  0.00    +0.010 C 
ATOM     37  C   UNL     1      55.099 154.057  23.028  0.00  0.00    +0.002 C 
ATOM     38  C   UNL     1      55.237 154.920  24.250  0.00  0.00    +0.024 C 
ATOM     39  C   UNL     1      53.959 155.063  25.029  0.00  0.00    +0.125 C 
ENDBRANCH  31  32
ENDBRANCH  27  31
ENDBRANCH  26  27
ENDBRANCH   1  26
TORSDOF 11
