REMARK  Name = =
REMARK  11 active torsions:
REMARK  status: ('A' for Active; 'I' for Inactive)
REMARK    1  A    between atoms: C_1  and  C_2
REMARK    2  A    between atoms: C_1  and  C_15
REMARK    3  A    between atoms: C_1  and  O_30
REMARK    4  A    between atoms: C_4  and  C_8
REMARK    5  A    between atoms: C_15  and  C_18
REMARK    6  A    between atoms: C_15  and  C_28
REMARK    7  A    between atoms: O_23  and  O_27
REMARK    8  A    between atoms: O_30  and  O_31
REMARK    9  A    between atoms: O_31  and  C_32
REMARK   10  A    between atoms: C_32  and  O_34
REMARK   11  A    between atoms: O_34  and  N_35
REMARK                            x       y       z     vdW  Elec       q    Type
REMARK                         _______ _______ _______ _____ _____    ______ ____
ROOT
ATOM      1  C   UNL     1     -14.658 -43.430  27.717  0.00  0.00    +0.188 C 
ENDROOT
BRANCH   1   2
ATOM      2  C   UNL     1     -15.845 -42.803  27.087  0.00  0.00    +0.009 C 
ATOM      3  C   UNL     1     -16.032 -42.791  25.741  0.00  0.00    -0.005 C 
ATOM      4  C   UNL     1     -17.162 -42.164  25.259  0.00  0.00    -0.004 C 
ATOM      5  C   UNL     1     -18.052 -41.583  26.105  0.00  0.00    -0.003 C 
ATOM      6  C   UNL     1     -17.860 -41.596  27.476  0.00  0.00    -0.001 C 
ATOM      7  C   UNL     1     -16.756 -42.207  27.969  0.00  0.00    -0.002 C 
BRANCH   4   8
ATOM      8  C   UNL     1     -17.393 -42.132  23.808  0.00  0.00    +0.155 C 
ATOM      9  S   UNL     1     -19.085 -41.451  23.573  0.00  0.00    -0.044 S 
ATOM     10  C   UNL     1     -18.648 -40.192  22.357  0.00  0.00    +0.279 C 
ATOM     11  O   UNL     1     -19.424 -39.319  21.877  0.00  0.00    -0.263 OA
ATOM     12  N   UNL     1     -17.275 -40.433  22.098  0.00  0.00    -0.246 N 
ATOM     13  C   UNL     1     -16.601 -41.084  23.131  0.00  0.00    +0.243 C 
ATOM     14  O   UNL     1     -15.400 -40.831  23.497  0.00  0.00    -0.273 OA
ATOM     15  H   UNL     1     -16.835 -40.164  21.260  0.00  0.00    +0.158 HD
ENDBRANCH   4   8
ENDBRANCH   1   2
BRANCH   1  16
ATOM     16  C   UNL     1     -13.452 -42.563  27.642  0.00  0.00    +0.057 C 
BRANCH  16  19
ATOM     17  C   UNL     1     -10.975 -43.955  29.794  0.00  0.00    +0.292 C 
ATOM     18  N   UNL     1     -12.096 -43.616  29.323  0.00  0.00    -0.197 NA
ATOM     19  C   UNL     1     -12.172 -43.239  27.947  0.00  0.00    +0.110 C 
ATOM     20  C   UNL     1     -10.902 -42.593  27.506  0.00  0.00    +0.088 C 
ATOM     21  S   UNL     1      -9.804 -43.811  28.419  0.00  0.00    -0.054 S 
ATOM     22  O   UNL     1     -10.705 -44.352  31.093  0.00  0.00    -0.261 OA
ENDBRANCH  16  19
BRANCH  16  23
ATOM     23  C   UNL     1     -13.382 -41.743  26.390  0.00  0.00    +0.005 C 
ATOM     24  C   UNL     1     -13.136 -42.448  25.114  0.00  0.00    +0.000 C 
ENDBRANCH  16  23
ENDBRANCH   1  16
BRANCH   1  25
ATOM     25  O   UNL     1     -14.967 -43.765  29.046  0.00  0.00    -0.165 OA
BRANCH  25  26
ATOM     26  O   UNL     1     -14.420 -43.061  29.974  0.00  0.00    -0.257 OA
BRANCH  26  27
ATOM     27  C   UNL     1     -14.856 -42.600  31.168  0.00  0.00    +0.562 C 
ATOM     28  O   UNL     1     -16.061 -42.276  31.285  0.00  0.00    -0.199 OA
BRANCH  27  29
ATOM     29  O   UNL     1     -14.022 -42.466  32.290  0.00  0.00    -0.331 OA
BRANCH  29  30
ATOM     30  N   UNL     1     -13.620 -43.575  32.974  0.00  0.00    -0.111 NA
ATOM     31  C   UNL     1     -13.904 -44.866  32.391  0.00  0.00    +0.134 C 
ATOM     32  C   UNL     1     -14.638 -44.407  33.612  0.00  0.00    +0.134 C 
ENDBRANCH  29  30
ENDBRANCH  27  29
ENDBRANCH  26  27
ENDBRANCH  25  26
ENDBRANCH   1  25
TORSDOF 10
REMARK  Name = =
REMARK  11 active torsions:
REMARK  status: ('A' for Active; 'I' for Inactive)
REMARK    1  A    between atoms: C_1  and  C_2
REMARK    2  A    between atoms: C_1  and  C_15
REMARK    3  A    between atoms: C_1  and  O_30
REMARK    4  A    between atoms: C_4  and  C_8
REMARK    5  A    between atoms: C_15  and  C_18
REMARK    6  A    between atoms: C_15  and  C_28
REMARK    7  A    between atoms: O_23  and  O_27
REMARK    8  A    between atoms: O_30  and  O_31
REMARK    9  A    between atoms: O_31  and  C_32
REMARK   10  A    between atoms: C_32  and  O_34
REMARK   11  A    between atoms: O_34  and  N_35
REMARK                            x       y       z     vdW  Elec       q    Type
REMARK                         _______ _______ _______ _____ _____    ______ ____
ROOT
ATOM      1  P   UNL     1      -9.346 -43.660  31.926  0.00  0.00    +0.000 P 
ENDROOT
TORSDOF 0
REMARK  Name = =
REMARK  11 active torsions:
REMARK  status: ('A' for Active; 'I' for Inactive)
REMARK    1  A    between atoms: C_1  and  C_2
REMARK    2  A    between atoms: C_1  and  C_15
REMARK    3  A    between atoms: C_1  and  O_30
REMARK    4  A    between atoms: C_4  and  C_8
REMARK    5  A    between atoms: C_15  and  C_18
REMARK    6  A    between atoms: C_15  and  C_28
REMARK    7  A    between atoms: O_23  and  O_27
REMARK    8  A    between atoms: O_30  and  O_31
REMARK    9  A    between atoms: O_31  and  C_32
REMARK   10  A    between atoms: C_32  and  O_34
REMARK   11  A    between atoms: O_34  and  N_35
REMARK                            x       y       z     vdW  Elec       q    Type
REMARK                         _______ _______ _______ _____ _____    ______ ____
ROOT
ATOM      1  O   UNL     1      -7.840 -43.814  31.888  0.00  0.00    -0.253 OA
ATOM      2  H   UNL     1      -8.277 -43.087  32.358  0.00  0.00    +0.253 HD
ENDROOT
BRANCH   1   3
ATOM      3  O   UNL     1      -8.686 -45.145  32.069  0.00  0.00    -0.253 OA
ATOM      4  H   UNL     1      -8.249 -45.872  31.599  0.00  0.00    +0.253 HD
ENDBRANCH   1   3
TORSDOF 1
REMARK  Name = =
REMARK  11 active torsions:
REMARK  status: ('A' for Active; 'I' for Inactive)
REMARK    1  A    between atoms: C_1  and  C_2
REMARK    2  A    between atoms: C_1  and  C_15
REMARK    3  A    between atoms: C_1  and  O_30
REMARK    4  A    between atoms: C_4  and  C_8
REMARK    5  A    between atoms: C_15  and  C_18
REMARK    6  A    between atoms: C_15  and  C_28
REMARK    7  A    between atoms: O_23  and  O_27
REMARK    8  A    between atoms: O_30  and  O_31
REMARK    9  A    between atoms: O_31  and  C_32
REMARK   10  A    between atoms: C_32  and  O_34
REMARK   11  A    between atoms: O_34  and  N_35
REMARK                            x       y       z     vdW  Elec       q    Type
REMARK                         _______ _______ _______ _____ _____    ______ ____
ROOT
ATOM      1  F   UNL     1      -9.998 -41.619  30.940  0.00  0.00    -0.012 F 
ATOM      2  O   UNL     1     -10.515 -42.464  31.846  0.00  0.00    +0.012 OA
ENDROOT
TORSDOF 0
REMARK  Name = =
REMARK  11 active torsions:
REMARK  status: ('A' for Active; 'I' for Inactive)
REMARK    1  A    between atoms: C_1  and  C_2
REMARK    2  A    between atoms: C_1  and  C_15
REMARK    3  A    between atoms: C_1  and  O_30
REMARK    4  A    between atoms: C_4  and  C_8
REMARK    5  A    between atoms: C_15  and  C_18
REMARK    6  A    between atoms: C_15  and  C_28
REMARK    7  A    between atoms: O_23  and  O_27
REMARK    8  A    between atoms: O_30  and  O_31
REMARK    9  A    between atoms: O_31  and  C_32
REMARK   10  A    between atoms: C_32  and  O_34
REMARK   11  A    between atoms: O_34  and  N_35
REMARK                            x       y       z     vdW  Elec       q    Type
REMARK                         _______ _______ _______ _____ _____    ______ ____
ROOT
ATOM      1  O   HOH     1      -9.971 -43.237  33.420  0.00  0.00    -0.253 OA
ATOM      2  H   HOH     0      -9.001 -43.237  33.420  0.00  0.00    +0.253 HD
ENDROOT
TORSDOF 0
