REMARK  Name = =
REMARK  3 active torsions:
REMARK  status: ('A' for Active; 'I' for Inactive)
REMARK    1  A    between atoms: C_1  and  C_8
REMARK    2  A    between atoms: C_2  and  O_11
REMARK    3  A    between atoms: C_3  and  O_10
REMARK                            x       y       z     vdW  Elec       q    Type
REMARK                         _______ _______ _______ _____ _____    ______ ____
ROOT
ATOM      1  C   UNL     1      -5.214  -2.281  32.085  0.00  0.00    +0.090 C 
ATOM      2  C   UNL     1      -4.075  -2.639  31.376  0.00  0.00    +0.172 C 
ATOM      3  C   UNL     1      -3.373  -3.769  31.626  0.00  0.00    +0.168 C 
ATOM      4  C   UNL     1      -3.813  -4.613  32.643  0.00  0.00    +0.040 C 
ATOM      5  C   UNL     1      -4.937  -4.291  33.368  0.00  0.00    +0.003 C 
ATOM      6  C   UNL     1      -5.637  -3.125  33.090  0.00  0.00    +0.008 C 
ENDROOT
BRANCH   1   8
ATOM      7  N   UNL     1      -5.250   0.183  31.712  0.00  0.00    -0.325 N 
ATOM      8  C   UNL     1      -5.920  -1.053  31.765  0.00  0.00    +0.246 C 
ATOM      9  O   UNL     1      -7.144  -1.120  31.537  0.00  0.00    -0.270 OA
ATOM     10  H   UNL     1      -4.283   0.227  31.893  0.00  0.00    +0.145 HD
ATOM     11  H   UNL     1      -5.748   1.004  31.494  0.00  0.00    +0.145 HD
ENDBRANCH   1   8
BRANCH   3  12
ATOM     12  O   UNL     1      -2.250  -4.137  30.936  0.00  0.00    -0.503 OA
ATOM     13  H   UNL     1      -1.925  -3.593  30.245  0.00  0.00    +0.292 HD
ENDBRANCH   3  12
BRANCH   2  14
ATOM     14  O   UNL     1      -3.697  -1.760  30.385  0.00  0.00    -0.503 OA
ATOM     15  H   UNL     1      -2.937  -1.938  29.866  0.00  0.00    +0.292 HD
ENDBRANCH   2  14
TORSDOF 3
