REMARK  Name = =
REMARK  2 active torsions:
REMARK  status: ('A' for Active; 'I' for Inactive)
REMARK    1  A    between atoms: C_7  and  C_11
REMARK    2  A    between atoms: C_8  and  O_17
REMARK                            x       y       z     vdW  Elec       q    Type
REMARK                         _______ _______ _______ _____ _____    ______ ____
ROOT
ATOM      1  O   UNL     1      -4.001  -4.476  31.582  0.00  0.00    -0.476 OA
ATOM      2  C   UNL     1      -4.716  -3.424  32.261  0.00  0.00    +0.206 C 
ATOM      3  C   UNL     1      -5.114  -2.365  31.283  0.00  0.00    +0.052 C 
ATOM      4  C   UNL     1      -3.985  -1.861  30.455  0.00  0.00    +0.033 C 
ATOM      5  C   UNL     1      -2.845  -2.810  30.331  0.00  0.00    +0.012 C 
ATOM      6  C   UNL     1      -2.863  -4.084  30.883  0.00  0.00    +0.137 C 
ATOM      7  C   UNL     1      -1.769  -4.934  30.737  0.00  0.00    +0.084 C 
ATOM      8  C   UNL     1      -0.678  -4.493  30.040  0.00  0.00    +0.136 C 
ATOM      9  C   UNL     1      -0.690  -3.222  29.503  0.00  0.00    +0.036 C 
ATOM     10  C   UNL     1      -1.746  -2.362  29.628  0.00  0.00    +0.002 C 
ENDROOT
BRANCH   7  11
ATOM     11  C   UNL     1      -1.892  -6.271  31.342  0.00  0.00    +0.194 C 
ATOM     12  O   UNL     1      -2.001  -7.199  30.304  0.00  0.00    -0.472 OA
ATOM     13  C   UNL     1      -2.376  -8.453  30.688  0.00  0.00    +0.168 C 
ATOM     14  C   UNL     1      -1.870  -8.974  31.966  0.00  0.00    +0.014 C 
ATOM     15  C   UNL     1      -1.210  -7.996  32.875  0.00  0.00    +0.033 C 
ATOM     16  C   UNL     1      -0.763  -6.724  32.185  0.00  0.00    +0.053 C 
ENDBRANCH   7  11
BRANCH   8  17
ATOM     17  O   UNL     1       0.396  -5.344  29.901  0.00  0.00    -0.506 OA
ATOM     18  H   UNL     1       0.367  -6.200  30.280  0.00  0.00    +0.292 HD
ENDBRANCH   8  17
TORSDOF 2
