REMARK  Name = =
REMARK  4 active torsions:
REMARK  status: ('A' for Active; 'I' for Inactive)
REMARK    1  A    between atoms: C_1  and  C_14
REMARK    2  A    between atoms: C_2  and  O_17
REMARK    3  A    between atoms: C_3  and  O_16
REMARK    4  A    between atoms: C_6  and  N_7
REMARK                            x       y       z     vdW  Elec       q    Type
REMARK                         _______ _______ _______ _____ _____    ______ ____
ROOT
ATOM      1  C   UNL     1      -9.594   0.824  21.862  0.00  0.00    +0.103 C 
ATOM      2  C   UNL     1      -8.630  -0.010  22.384  0.00  0.00    +0.173 C 
ATOM      3  C   UNL     1      -8.695  -0.479  23.720  0.00  0.00    +0.168 C 
ATOM      4  C   UNL     1      -9.729  -0.106  24.527  0.00  0.00    +0.041 C 
ATOM      5  C   UNL     1     -10.682   0.719  24.012  0.00  0.00    +0.018 C 
ATOM      6  C   UNL     1     -10.638   1.202  22.675  0.00  0.00    +0.055 C 
ENDROOT
BRANCH   6   7
ATOM      7  N   UNL     1     -11.670   2.074  22.295  0.00  0.00    -0.304 N 
ATOM      8  C   UNL     1     -12.887   1.614  21.685  0.00  0.00    +0.108 C 
ATOM      9  C   UNL     1     -12.818   2.185  20.245  0.00  0.00    +0.090 C 
ATOM     10  N   UNL     1     -12.706   3.595  20.280  0.00  0.00    -0.295 NA
ATOM     11  C   UNL     1     -12.440   4.242  21.510  0.00  0.00    +0.090 C 
ATOM     12  C   UNL     1     -11.522   3.490  22.454  0.00  0.00    +0.108 C 
ATOM     13  H   UNL     1     -13.587   3.971  19.931  0.00  0.00    +0.123 HD
ENDBRANCH   6   7
BRANCH   1  15
ATOM     14  N   UNL     1      -9.131   2.579  20.096  0.00  0.00    -0.325 N 
ATOM     15  C   UNL     1      -9.519   1.275  20.481  0.00  0.00    +0.247 C 
ATOM     16  O   UNL     1      -9.798   0.531  19.488  0.00  0.00    -0.270 OA
ATOM     17  H   UNL     1      -8.891   3.244  20.781  0.00  0.00    +0.145 HD
ATOM     18  H   UNL     1      -9.101   2.822  19.142  0.00  0.00    +0.145 HD
ENDBRANCH   1  15
BRANCH   3  19
ATOM     19  O   UNL     1      -7.702  -1.317  24.202  0.00  0.00    -0.503 OA
ATOM     20  H   UNL     1      -6.993  -1.572  23.645  0.00  0.00    +0.292 HD
ENDBRANCH   3  19
BRANCH   2  21
ATOM     21  O   UNL     1      -7.567  -0.436  21.666  0.00  0.00    -0.503 OA
ATOM     22  H   UNL     1      -7.463  -0.163  20.776  0.00  0.00    +0.292 HD
ENDBRANCH   2  21
TORSDOF 4
