REMARK  Name = =
REMARK  7 active torsions:
REMARK  status: ('A' for Active; 'I' for Inactive)
REMARK    1  A    between atoms: C_1  and  C_14
REMARK    2  A    between atoms: C_2  and  O_26
REMARK    3  A    between atoms: C_3  and  O_25
REMARK    4  A    between atoms: C_6  and  N_7
REMARK    5  A    between atoms: N_13  and  O_16
REMARK    6  A    between atoms: O_16  and  C_17
REMARK    7  A    between atoms: C_20  and  C_23
REMARK                            x       y       z     vdW  Elec       q    Type
REMARK                         _______ _______ _______ _____ _____    ______ ____
ROOT
ATOM      1  C   UNL     1      -9.503   0.159  22.860  0.00  0.00    +0.106 C 
ATOM      2  C   UNL     1      -9.226  -0.265  24.134  0.00  0.00    +0.173 C 
ATOM      3  C   UNL     1     -10.278  -0.427  25.033  0.00  0.00    +0.168 C 
ATOM      4  C   UNL     1     -11.566  -0.174  24.672  0.00  0.00    +0.041 C 
ATOM      5  C   UNL     1     -11.850   0.251  23.398  0.00  0.00    +0.018 C 
ATOM      6  C   UNL     1     -10.821   0.429  22.461  0.00  0.00    +0.056 C 
ENDROOT
BRANCH   6   7
ATOM      7  N   UNL     1     -11.157   0.917  21.181  0.00  0.00    -0.304 N 
ATOM      8  C   UNL     1     -10.844   2.295  20.767  0.00  0.00    +0.108 C 
ATOM      9  C   UNL     1     -12.176   3.079  20.708  0.00  0.00    +0.090 C 
ATOM     10  N   UNL     1     -13.216   2.165  20.339  0.00  0.00    -0.295 NA
ATOM     11  C   UNL     1     -12.702   1.205  19.390  0.00  0.00    +0.090 C 
ATOM     12  C   UNL     1     -11.856   0.167  20.149  0.00  0.00    +0.108 C 
ATOM     13  H   UNL     1     -13.987   2.681  19.916  0.00  0.00    +0.123 HD
ENDBRANCH   6   7
BRANCH   1  15
ATOM     14  N   UNL     1      -7.274   1.037  22.042  0.00  0.00    -0.144 N 
ATOM     15  C   UNL     1      -8.471   0.320  21.849  0.00  0.00    +0.281 C 
ATOM     16  O   UNL     1      -8.594  -0.197  20.692  0.00  0.00    -0.267 OA
ATOM     17  H   UNL     1      -7.092   1.472  22.906  0.00  0.00    +0.196 HD
BRANCH  14  18
ATOM     18  O   UNL     1      -6.340   1.129  20.995  0.00  0.00    -0.384 OA
BRANCH  18  19
ATOM     19  C   UNL     1      -5.010   0.768  21.266  0.00  0.00    +0.170 C 
ATOM     20  C   UNL     1      -3.969   1.653  21.104  0.00  0.00    +0.040 C 
ATOM     21  C   UNL     1      -2.679   1.271  21.379  0.00  0.00    +0.003 C 
ATOM     22  C   UNL     1      -2.365  -0.006  21.826  0.00  0.00    +0.000 C 
ATOM     23  C   UNL     1      -3.398  -0.884  21.986  0.00  0.00    +0.003 C 
ATOM     24  C   UNL     1      -4.722  -0.502  21.708  0.00  0.00    +0.040 C 
BRANCH  22  25
ATOM     25  C   UNL     1      -0.983  -0.349  22.100  0.00  0.00    +0.000 C 
ATOM     26  C   UNL     1      -0.614  -1.560  22.431  0.00  0.00    +0.000 C 
ENDBRANCH  22  25
ENDBRANCH  18  19
ENDBRANCH  14  18
ENDBRANCH   1  15
BRANCH   3  27
ATOM     27  O   UNL     1      -9.978  -0.853  26.309  0.00  0.00    -0.503 OA
ATOM     28  H   UNL     1      -9.089  -1.025  26.549  0.00  0.00    +0.292 HD
ENDBRANCH   3  27
BRANCH   2  29
ATOM     29  O   UNL     1      -7.942  -0.536  24.561  0.00  0.00    -0.503 OA
ATOM     30  H   UNL     1      -7.221  -0.433  23.972  0.00  0.00    +0.292 HD
ENDBRANCH   2  29
TORSDOF 7
