REMARK  Name = =
REMARK  9 active torsions:
REMARK  status: ('A' for Active; 'I' for Inactive)
REMARK    1  A    between atoms: N_1  and  C_4
REMARK    2  A    between atoms: N_1  and  O_26
REMARK    3  A    between atoms: C_2  and  C_12
REMARK    4  A    between atoms: C_6  and  C_10
REMARK    5  A    between atoms: C_13  and  O_25
REMARK    6  A    between atoms: C_14  and  O_24
REMARK    7  A    between atoms: C_17  and  N_18
REMARK    8  A    between atoms: O_26  and  C_27
REMARK    9  A    between atoms: C_30  and  C_33
REMARK                            x       y       z     vdW  Elec       q    Type
REMARK                         _______ _______ _______ _____ _____    ______ ____
ROOT
ATOM      1  N   UNL     1      -7.049   0.968  21.163  0.00  0.00    -0.097 N 
ATOM      2  C   UNL     1      -7.781   0.059  21.858  0.00  0.00    +0.288 C 
ATOM      3  O   UNL     1      -7.221  -0.045  23.101  0.00  0.00    -0.266 OA
ENDROOT
BRANCH   1   4
ATOM      4  C   UNL     1      -7.117   1.398  19.833  0.00  0.00    +0.093 C 
ATOM      5  C   UNL     1      -6.249   0.836  18.937  0.00  0.00    +0.029 C 
ATOM      6  C   UNL     1      -6.181   1.252  17.612  0.00  0.00    +0.070 C 
ATOM      7  C   UNL     1      -7.001   2.265  17.165  0.00  0.00    +0.010 C 
ATOM      8  C   UNL     1      -7.893   2.859  18.043  0.00  0.00    +0.002 C 
ATOM      9  C   UNL     1      -7.927   2.402  19.364  0.00  0.00    +0.018 C 
BRANCH   6  10
ATOM     10  C   UNL     1      -5.335   0.599  16.689  0.00  0.00    +0.100 C 
ATOM     11  N   UNL     1      -4.640   0.039  15.916  0.00  0.00    -0.191 NA
ENDBRANCH   6  10
ENDBRANCH   1   4
BRANCH   2  12
ATOM     12  C   UNL     1      -8.909  -0.799  21.765  0.00  0.00    +0.107 C 
ATOM     13  C   UNL     1     -10.131  -0.277  22.329  0.00  0.00    +0.173 C 
ATOM     14  C   UNL     1     -11.302  -0.942  22.356  0.00  0.00    +0.168 C 
ATOM     15  C   UNL     1     -11.394  -2.195  21.824  0.00  0.00    +0.041 C 
ATOM     16  C   UNL     1     -10.288  -2.740  21.280  0.00  0.00    +0.018 C 
ATOM     17  C   UNL     1      -9.040  -2.045  21.252  0.00  0.00    +0.056 C 
BRANCH  17  18
ATOM     18  N   UNL     1      -7.974  -2.823  20.743  0.00  0.00    -0.304 N 
ATOM     19  C   UNL     1      -7.022  -3.465  21.632  0.00  0.00    +0.108 C 
ATOM     20  C   UNL     1      -6.995  -4.969  21.330  0.00  0.00    +0.090 C 
ATOM     21  N   UNL     1      -8.052  -5.327  20.446  0.00  0.00    -0.295 NA
ATOM     22  C   UNL     1      -8.176  -4.628  19.220  0.00  0.00    +0.090 C 
ATOM     23  C   UNL     1      -7.837  -3.125  19.337  0.00  0.00    +0.108 C 
ATOM     24  H   UNL     1      -8.926  -5.199  20.955  0.00  0.00    +0.123 HD
ENDBRANCH  17  18
BRANCH  14  25
ATOM     25  O   UNL     1     -12.460  -0.395  22.918  0.00  0.00    -0.503 OA
ATOM     26  H   UNL     1     -12.438   0.463  23.294  0.00  0.00    +0.292 HD
ENDBRANCH  14  25
BRANCH  13  27
ATOM     27  O   UNL     1     -10.085   0.988  22.869  0.00  0.00    -0.503 OA
ATOM     28  H   UNL     1      -9.282   1.471  22.862  0.00  0.00    +0.292 HD
ENDBRANCH  13  27
ENDBRANCH   2  12
BRANCH   1  29
ATOM     29  O   UNL     1      -6.025   1.719  21.834  0.00  0.00    -0.376 OA
BRANCH  29  30
ATOM     30  C   UNL     1      -4.676   1.558  21.653  0.00  0.00    +0.171 C 
ATOM     31  C   UNL     1      -3.942   2.589  21.086  0.00  0.00    +0.040 C 
ATOM     32  C   UNL     1      -2.584   2.522  20.871  0.00  0.00    +0.003 C 
ATOM     33  C   UNL     1      -1.843   1.385  21.220  0.00  0.00    +0.000 C 
ATOM     34  C   UNL     1      -2.558   0.371  21.779  0.00  0.00    +0.003 C 
ATOM     35  C   UNL     1      -3.946   0.439  21.998  0.00  0.00    +0.040 C 
BRANCH  33  36
ATOM     36  C   UNL     1      -0.405   1.381  20.991  0.00  0.00    +0.000 C 
ATOM     37  C   UNL     1       0.381   0.479  21.523  0.00  0.00    +0.000 C 
ENDBRANCH  33  36
ENDBRANCH  29  30
ENDBRANCH   1  29
TORSDOF 9
