REMARK  Name = =
REMARK  0 active torsions:
REMARK  status: ('A' for Active; 'I' for Inactive)
REMARK                            x       y       z     vdW  Elec       q    Type
REMARK                         _______ _______ _______ _____ _____    ______ ____
ROOT
ATOM      1  C   UNL     1      -3.959  -3.183  31.058  0.00  0.00    -0.049 C 
ATOM      2  C   UNL     1      -4.674  -2.248  31.639  0.00  0.00    -0.033 C 
ATOM      3  C   UNL     1      -4.751  -0.913  31.050  0.00  0.00    -0.024 C 
ATOM      4  C   UNL     1      -5.768  -0.105  31.396  0.00  0.00    +0.033 C 
ATOM      5  C   UNL     1      -6.773  -0.560  32.339  0.00  0.00    +0.173 C 
ATOM      6  O   UNL     1      -7.560   0.216  32.916  0.00  0.00    -0.291 OA
ATOM      7  C   UNL     1      -6.853  -2.008  32.620  0.00  0.00    +0.074 C 
ATOM      8  C   UNL     1      -5.406  -2.469  32.863  0.00  0.00    +0.034 C 
ATOM      9  C   UNL     1      -3.756  -0.394  30.078  0.00  0.00    +0.026 C 
ATOM     10  C   UNL     1      -2.682  -1.435  29.849  0.00  0.00    +0.009 C 
ATOM     11  C   UNL     1      -3.244  -2.838  29.804  0.00  0.00    +0.018 C 
ATOM     12  C   UNL     1      -2.215  -3.811  29.379  0.00  0.00    +0.004 C 
ATOM     13  C   UNL     1      -2.532  -5.245  29.608  0.00  0.00    +0.001 C 
ATOM     14  C   UNL     1      -3.776  -5.483  30.406  0.00  0.00    +0.004 C 
ATOM     15  C   UNL     1      -3.855  -4.509  31.594  0.00  0.00    +0.022 C 
ATOM     16  C   UNL     1      -1.328  -5.861  30.282  0.00  0.00    +0.000 C 
ATOM     17  C   UNL     1      -0.186  -4.892  30.082  0.00  0.00    +0.000 C 
ATOM     18  C   UNL     1      -0.831  -3.538  29.831  0.00  0.00    +0.000 C 
ENDROOT
TORSDOF 0
