MODEL 1
REMARK VINA RESULT:     3.712      0.000      0.000
REMARK INTER + INTRA:           5.699
REMARK INTER:                   4.796
REMARK INTRA:                   0.903
REMARK UNBOUND:                 0.903
REMARK  Name = 
REMARK  9 active torsions:
REMARK  status: ('A' for Active; 'I' for Inactive)
REMARK    1  A    between atoms: C_2  and  C_3
REMARK    2  A    between atoms: C_5  and  C_6
REMARK    3  A    between atoms: C_14  and  N_15
REMARK    4  A    between atoms: C_16  and  C_18
REMARK    5  A    between atoms: C_18  and  C_19
REMARK    6  A    between atoms: C_19  and  C_20
REMARK    7  A    between atoms: C_21  and  C_27
REMARK    8  A    between atoms: C_24  and  C_26
REMARK    9  A    between atoms: C_28  and  C_29
REMARK                            x       y       z     vdW  Elec       q    Type
REMARK                         _______ _______ _______ _____ _____    ______ ____
ROOT
ATOM      1  N   UNL     1      51.429 158.445  30.359  0.00  0.00    +0.000 NA
ATOM      2  C   UNL     1      51.384 157.996  29.185  0.00  0.00    +0.000 C 
ATOM      3  C   UNL     1      50.657 158.678  28.141  0.00  0.00    +0.000 C 
ATOM      4  C   UNL     1      49.969 159.794  28.421  0.00  0.00    +0.000 C 
ATOM      5  N   UNL     1      49.978 160.236  29.794  0.00  0.00    +0.000 N 
ATOM      6  C   UNL     1      50.995 159.856  30.672  0.00  0.00    +0.000 C 
ATOM      7  C   UNL     1      50.838 160.013  32.108  0.00  0.00    +0.000 C 
ATOM      8  C   UNL     1      49.811 160.043  32.953  0.00  0.00    +0.000 C 
ATOM      9  C   UNL     1      48.372 159.937  32.834  0.00  0.00    +0.000 C 
ATOM     10  C   UNL     1      47.458 160.312  31.937  0.00  0.00    +0.000 C 
ATOM     11  C   UNL     1      47.697 161.025  30.663  0.00  0.00    +0.000 C 
ATOM     12  C   UNL     1      46.068 160.021  32.230  0.00  0.00    +0.000 C 
ATOM     13  C   UNL     1      52.082 160.321  32.913  0.00  0.00    +0.000 C 
ATOM     14  C   UNL     1      48.712 160.996  29.797  0.00  0.00    +0.000 C 
ATOM     15  C   UNL     1      48.603 161.822  28.605  0.00  0.00    +0.000 C 
ENDROOT
BRANCH   2  16
ATOM     16  C   UNL     1      51.854 156.602  28.922  0.00  0.00    +0.000 A 
ATOM     17  C   UNL     1      52.490 156.292  27.764  0.00  0.00    +0.000 A 
ATOM     18  C   UNL     1      52.961 154.989  27.493  0.00  0.00    +0.000 A 
ATOM     19  C   UNL     1      52.762 154.031  28.439  0.00  0.00    +0.000 A 
ATOM     20  C   UNL     1      52.119 154.314  29.627  0.00  0.00    +0.000 A 
ATOM     21  C   UNL     1      51.671 155.614  29.842  0.00  0.00    +0.000 A 
BRANCH  18  22
ATOM     22  C   UNL     1      53.564 154.753  26.263  0.00  0.00    +0.000 C 
ATOM     23  N   UNL     1      54.081 154.541  25.163  0.00  0.00    +0.000 NA
ENDBRANCH  18  22
ENDBRANCH   2  16
BRANCH   6  24
ATOM     24  N   UNL     1      52.210 160.584  30.227  0.00  0.00    +0.000 N 
ATOM     25  C   UNL     1      52.558 161.901  30.562  0.00  0.00    +0.000 C 
ATOM     26  O   UNL     1      51.731 162.494  31.381  0.00  0.00    +0.000 OA
ATOM     27  H   UNL     1      52.913 160.095  29.590  0.00  0.00    +0.000 HD
BRANCH  25  28
ATOM     28  C   UNL     1      53.760 162.570  30.051  0.00  0.00    +0.000 C 
BRANCH  28  29
ATOM     29  C   UNL     1      55.050 161.952  30.536  0.00  0.00    +0.000 C 
ATOM     30  C   UNL     1      55.217 162.165  32.054  0.00  0.00    +0.000 C 
ENDBRANCH  28  29
ENDBRANCH  25  28
ENDBRANCH   6  24
TORSDOF 5
ENDMDL
