MODEL 1
REMARK VINA RESULT:    -4.176      0.000      0.000
REMARK INTER + INTRA:          -6.091
REMARK INTER:                  -5.885
REMARK INTRA:                  -0.206
REMARK UNBOUND:                -0.206
REMARK  Name = 
REMARK  8 active torsions:
REMARK  status: ('A' for Active; 'I' for Inactive)
REMARK    1  A    between atoms: C_5  and  C_6
REMARK    2  A    between atoms: N_18  and  N_19
REMARK    3  A    between atoms: N_19  and  C_20
REMARK    4  A    between atoms: N_19  and  C_29
REMARK    5  A    between atoms: C_20  and  C_21
REMARK    6  A    between atoms: C_23  and  O_24
REMARK    7  A    between atoms: O_24  and  C_25
REMARK    8  A    between atoms: C_29  and  C_30
REMARK                            x       y       z     vdW  Elec       q    Type
REMARK                         _______ _______ _______ _____ _____    ______ ____
ROOT
ATOM      1  N   UNL     1      50.537 155.532  28.612  0.00  0.00    +0.000 NA
ATOM      2  C   UNL     1      50.923 154.431  28.344  0.00  0.00    +0.000 A 
ATOM      3  S   UNL     1      51.746 153.902  29.967  0.00  0.00    +0.000 S 
ATOM      4  C   UNL     1      51.320 155.528  30.758  0.00  0.00    +0.000 A 
ATOM      5  C   UNL     1      50.667 156.168  29.735  0.00  0.00    +0.000 A 
ATOM      6  N   UNL     1      50.922 153.498  27.259  0.00  0.00    +0.000 N 
ATOM      7  H   UNL     1      50.187 152.759  27.291  0.00  0.00    +0.000 HD
ENDROOT
BRANCH   5   8
ATOM      8  C   UNL     1      50.156 157.576  29.992  0.00  0.00    +0.000 C 
ATOM      9  C   UNL     1      50.932 158.556  29.117  0.00  0.00    +0.000 C 
ATOM     10  C   UNL     1      50.690 159.930  29.767  0.00  0.00    +0.000 C 
ATOM     11  N   UNL     1      49.424 159.889  30.469  0.00  0.00    +0.000 N 
ATOM     12  C   UNL     1      49.253 160.505  31.742  0.00  0.00    +0.000 A 
ATOM     13  N   UNL     1      48.084 160.496  32.392  0.00  0.00    +0.000 NA
ATOM     14  C   UNL     1      47.940 161.082  33.597  0.00  0.00    +0.000 A 
ATOM     15  C   UNL     1      49.010 161.712  34.197  0.00  0.00    +0.000 A 
ATOM     16  C   UNL     1      50.210 161.724  33.534  0.00  0.00    +0.000 A 
ATOM     17  N   UNL     1      50.298 161.122  32.329  0.00  0.00    +0.000 NA
ATOM     18  C   UNL     1      48.337 159.188  29.823  0.00  0.00    +0.000 C 
ATOM     19  C   UNL     1      48.704 157.723  29.718  0.00  0.00    +0.000 C 
ENDBRANCH   5   8
BRANCH   6  20
ATOM     20  N   UNL     1      51.838 153.552  26.206  0.00  0.00    +0.000 NA
BRANCH  20  21
ATOM     21  C   UNL     1      51.975 154.905  25.777  0.00  0.00    +0.000 C 
BRANCH  21  22
ATOM     22  C   UNL     1      53.241 155.209  25.070  0.00  0.00    +0.000 A 
ATOM     23  C   UNL     1      53.760 154.340  24.129  0.00  0.00    +0.000 A 
ATOM     24  C   UNL     1      54.920 154.550  23.443  0.00  0.00    +0.000 A 
ATOM     25  C   UNL     1      55.640 155.721  23.707  0.00  0.00    +0.000 A 
ATOM     26  C   UNL     1      55.153 156.609  24.640  0.00  0.00    +0.000 A 
ATOM     27  C   UNL     1      53.973 156.352  25.308  0.00  0.00    +0.000 A 
BRANCH  24  28
ATOM     28  O   UNL     1      55.442 153.671  22.494  0.00  0.00    +0.000 OA
ATOM     29  C   UNL     1      55.835 154.235  21.257  0.00  0.00    +0.000 C 
ENDBRANCH  24  28
ENDBRANCH  21  22
ENDBRANCH  20  21
BRANCH  20  30
ATOM     30  C   UNL     1      53.096 152.957  26.614  0.00  0.00    +0.000 C 
BRANCH  30  31
ATOM     31  C   UNL     1      53.276 151.607  26.021  0.00  0.00    +0.000 A 
ATOM     32  C   UNL     1      52.369 150.589  26.315  0.00  0.00    +0.000 A 
ATOM     33  C   UNL     1      52.502 149.329  25.787  0.00  0.00    +0.000 A 
ATOM     34  C   UNL     1      53.543 149.039  24.946  0.00  0.00    +0.000 A 
ATOM     35  C   UNL     1      54.447 150.033  24.645  0.00  0.00    +0.000 A 
ATOM     36  C   UNL     1      54.302 151.291  25.182  0.00  0.00    +0.000 A 
ENDBRANCH  30  31
ENDBRANCH  20  30
ENDBRANCH   6  20
TORSDOF 7
ENDMDL
