MODEL 1
REMARK VINA RESULT:    -8.760      0.000      0.000
REMARK INTER + INTRA:         -12.379
REMARK INTER:                 -11.832
REMARK INTRA:                  -0.546
REMARK UNBOUND:                -0.546
REMARK  Name = 
REMARK  7 active torsions:
REMARK  status: ('A' for Active; 'I' for Inactive)
REMARK    1  A    between atoms: C_2  and  C_3
REMARK    2  A    between atoms: C_3  and  O_4
REMARK    3  A    between atoms: O_4  and  C_5
REMARK    4  A    between atoms: C_6  and  O_13
REMARK    5  A    between atoms: C_8  and  C_9
REMARK    6  A    between atoms: O_13  and  C_14
REMARK    7  A    between atoms: C_14  and  C_15
REMARK                            x       y       z     vdW  Elec       q    Type
REMARK                         _______ _______ _______ _____ _____    ______ ____
ROOT
ATOM      1  C   UNL     1      50.886 158.915  30.047  0.00  0.00    +0.000 A 
ATOM      2  C   UNL     1      51.125 160.120  30.665  0.00  0.00    +0.000 A 
ATOM      3  C   UNL     1      50.163 160.696  31.452  0.00  0.00    +0.000 A 
ATOM      4  C   UNL     1      48.928 160.095  31.653  0.00  0.00    +0.000 A 
ATOM      5  C   UNL     1      48.676 158.896  31.047  0.00  0.00    +0.000 A 
ATOM      6  C   UNL     1      49.655 158.324  30.255  0.00  0.00    +0.000 A 
ENDROOT
BRANCH   4   7
ATOM      7  C   UNL     1      47.919 160.709  32.486  0.00  0.00    +0.000 C 
ATOM      8  O   UNL     1      48.279 161.507  33.399  0.00  0.00    +0.000 OA
ENDBRANCH   4   7
BRANCH   1   9
ATOM      9  O   UNL     1      51.844 158.305  29.241  0.00  0.00    +0.000 OA
BRANCH   9  10
ATOM     10  C   UNL     1      52.378 157.036  29.405  0.00  0.00    +0.000 C 
BRANCH  10  12
ATOM     11  C   UNL     1      52.334 155.017  27.999  0.00  0.00    +0.000 A 
ATOM     12  C   UNL     1      52.614 156.371  28.133  0.00  0.00    +0.000 A 
ATOM     13  C   UNL     1      53.146 157.000  27.038  0.00  0.00    +0.000 A 
ATOM     14  C   UNL     1      53.385 156.290  25.856  0.00  0.00    +0.000 A 
ATOM     15  C   UNL     1      53.100 154.949  25.744  0.00  0.00    +0.000 A 
ATOM     16  C   UNL     1      52.566 154.312  26.842  0.00  0.00    +0.000 A 
ATOM     17 CL   UNL     1      53.409 154.072  24.245  0.00  0.00    +0.000 Cl
ATOM     18 CL   UNL     1      51.653 154.199  29.396  0.00  0.00    +0.000 Cl
ENDBRANCH  10  12
ENDBRANCH   9  10
ENDBRANCH   1   9
BRANCH   2  19
ATOM     19  O   UNL     1      52.327 160.740  30.489  0.00  0.00    +0.000 OA
BRANCH  19  20
ATOM     20  C   UNL     1      52.773 161.939  31.030  0.00  0.00    +0.000 C 
ATOM     21  C   UNL     1      54.245 162.098  30.730  0.00  0.00    +0.000 C 
ENDBRANCH  19  20
ENDBRANCH   2  19
TORSDOF 6
ENDMDL
