MODEL 1
REMARK VINA RESULT:    -7.881      0.000      0.000
REMARK INTER + INTRA:         -10.376
REMARK INTER:                  -9.724
REMARK INTRA:                  -0.652
REMARK UNBOUND:                -0.652
REMARK  Name = 
REMARK  4 active torsions:
REMARK  status: ('A' for Active; 'I' for Inactive)
REMARK    1  A    between atoms: C_1  and  C_15
REMARK    2  A    between atoms: C_2  and  C_3
REMARK    3  A    between atoms: N_17  and  C_18
REMARK    4  A    between atoms: C_18  and  C_19
REMARK                            x       y       z     vdW  Elec       q    Type
REMARK                         _______ _______ _______ _____ _____    ______ ____
ROOT
ATOM      1  C   UNL     1      52.095 159.565  30.194  0.00  0.00    +0.000 A 
ATOM      2  C   UNL     1      51.446 160.564  30.830  0.00  0.00    +0.000 A 
ATOM      3  C   UNL     1      52.054 161.737  31.306  0.00  0.00    +0.000 A 
ATOM      4  N   UNL     1      53.367 161.873  31.126  0.00  0.00    +0.000 NA
ATOM      5  C   UNL     1      54.064 160.886  30.493  0.00  0.00    +0.000 A 
ATOM      6  N   UNL     1      53.459 159.785  30.048  0.00  0.00    +0.000 NA
ATOM      7  N   UNL     1      55.455 161.129  30.337  0.00  0.00    +0.000 N 
ATOM      8  H   UNL     1      56.184 160.676  30.918  0.00  0.00    +0.000 HD
ATOM      9  H   UNL     1      55.763 161.799  29.604  0.00  0.00    +0.000 HD
ENDROOT
BRANCH   2  10
ATOM     10  C   UNL     1      50.073 160.427  31.218  0.00  0.00    +0.000 A 
ATOM     11  C   UNL     1      49.065 160.841  30.428  0.00  0.00    +0.000 A 
ATOM     12  C   UNL     1      47.743 160.766  30.807  0.00  0.00    +0.000 A 
ATOM     13  F   UNL     1      46.784 161.200  29.960  0.00  0.00    +0.000 F 
ATOM     14  C   UNL     1      47.450 160.249  32.044  0.00  0.00    +0.000 A 
ATOM     15  C   UNL     1      48.480 159.820  32.866  0.00  0.00    +0.000 A 
ATOM     16  C   UNL     1      49.788 159.908  32.455  0.00  0.00    +0.000 A 
ENDBRANCH   2  10
BRANCH   1  17
ATOM     17  C   UNL     1      51.521 158.442  29.515  0.00  0.00    +0.000 C 
ATOM     18  C   UNL     1      52.592 157.678  28.683  0.00  0.00    +0.000 C 
ATOM     19  N   UNL     1      52.200 156.367  28.477  0.00  0.00    +0.000 NA
ATOM     20  C   UNL     1      51.889 155.725  29.716  0.00  0.00    +0.000 C 
ATOM     21  C   UNL     1      50.535 156.216  30.226  0.00  0.00    +0.000 C 
ATOM     22  C   UNL     1      50.354 157.684  29.876  0.00  0.00    +0.000 C 
BRANCH  19  23
ATOM     23  C   UNL     1      51.787 155.784  27.309  0.00  0.00    +0.000 C 
BRANCH  23  24
ATOM     24  C   UNL     1      52.846 155.348  26.341  0.00  0.00    +0.000 A 
ATOM     25  C   UNL     1      53.006 153.984  26.140  0.00  0.00    +0.000 A 
ATOM     26  C   UNL     1      53.936 153.564  25.220  0.00  0.00    +0.000 A 
ATOM     27  C   UNL     1      54.722 154.424  24.484  0.00  0.00    +0.000 A 
ATOM     28  F   UNL     1      55.630 153.957  23.573  0.00  0.00    +0.000 F 
ATOM     29  C   UNL     1      54.547 155.772  24.703  0.00  0.00    +0.000 A 
ATOM     30  C   UNL     1      53.624 156.215  25.616  0.00  0.00    +0.000 A 
ENDBRANCH  23  24
ENDBRANCH  19  23
ENDBRANCH   1  17
TORSDOF 4
ENDMDL
