MODEL 1
REMARK VINA RESULT:    -4.347      0.000      0.000
REMARK INTER + INTRA:          -6.228
REMARK INTER:                  -5.364
REMARK INTRA:                  -0.864
REMARK UNBOUND:                -0.864
REMARK  Name = 
REMARK  5 active torsions:
REMARK  status: ('A' for Active; 'I' for Inactive)
REMARK    1  A    between atoms: N_1  and  C_2
REMARK    2  A    between atoms: C_3  and  O_16
REMARK    3  A    between atoms: C_4  and  O_5
REMARK    4  A    between atoms: O_5  and  C_6
REMARK    5  A    between atoms: C_14  and  N_15
REMARK                            x       y       z     vdW  Elec       q    Type
REMARK                         _______ _______ _______ _____ _____    ______ ____
ROOT
ATOM      1  C   UNL     1      51.114 157.102  29.943  0.00  0.00    +0.000 C 
ATOM      2  C   UNL     1      52.382 156.939  29.156  0.00  0.00    +0.000 C 
ATOM      3  C   UNL     1      52.281 155.959  28.032  0.00  0.00    +0.000 C 
ATOM      4  C   UNL     1      50.819 155.637  27.737  0.00  0.00    +0.000 C 
ATOM      5  C   UNL     1      50.134 155.048  28.945  0.00  0.00    +0.000 C 
ATOM      6  C   UNL     1      50.435 155.809  30.194  0.00  0.00    +0.000 C 
ENDROOT
BRANCH   1   7
ATOM      7  N   UNL     1      50.326 158.114  29.313  0.00  0.00    +0.000 NA
ATOM      8  C   UNL     1      49.080 158.409  29.952  0.00  0.00    +0.000 C 
ATOM      9  C   UNL     1      49.303 159.255  31.165  0.00  0.00    +0.000 A 
ATOM     10  C   UNL     1      50.034 160.417  30.923  0.00  0.00    +0.000 A 
ATOM     11  C   UNL     1      50.449 160.586  29.503  0.00  0.00    +0.000 C 
ATOM     12  C   UNL     1      51.134 159.273  29.120  0.00  0.00    +0.000 C 
ATOM     13  C   UNL     1      50.306 161.273  31.938  0.00  0.00    +0.000 A 
ATOM     14  C   UNL     1      49.834 160.947  33.207  0.00  0.00    +0.000 A 
ATOM     15  C   UNL     1      49.108 159.796  33.455  0.00  0.00    +0.000 A 
ATOM     16  C   UNL     1      48.836 158.930  32.411  0.00  0.00    +0.000 A 
ENDBRANCH   1   7
BRANCH   6  17
ATOM     17  N   UNL     1      51.325 155.008  31.051  0.00  0.00    +0.000 NA
ATOM     18  H   UNL     1      50.850 154.083  31.261  0.00  0.00    +0.000 HD
ATOM     19  H   UNL     1      52.194 154.746  30.535  0.00  0.00    +0.000 HD
ENDBRANCH   6  17
BRANCH   2  20
ATOM     20  O   UNL     1      53.439 156.490  29.984  0.00  0.00    +0.000 OA
ATOM     21  H   UNL     1      53.975 155.803  29.529  0.00  0.00    +0.000 HD
ENDBRANCH   2  20
BRANCH   3  22
ATOM     22  O   UNL     1      52.789 156.552  26.869  0.00  0.00    +0.000 OA
BRANCH  22  23
ATOM     23  C   UNL     1      53.544 156.006  25.884  0.00  0.00    +0.000 A 
ATOM     24  C   UNL     1      53.558 154.610  25.754  0.00  0.00    +0.000 A 
ATOM     25  C   UNL     1      54.284 153.959  24.797  0.00  0.00    +0.000 A 
ATOM     26  C   UNL     1      55.052 154.687  23.901  0.00  0.00    +0.000 A 
ATOM     27  C   UNL     1      55.065 156.062  23.995  0.00  0.00    +0.000 A 
ATOM     28  C   UNL     1      54.309 156.699  24.989  0.00  0.00    +0.000 A 
ENDBRANCH  22  23
ENDBRANCH   3  22
TORSDOF 5
ENDMDL
