MODEL 1
REMARK VINA RESULT:     0.029      0.000      0.000
REMARK INTER + INTRA:           2.205
REMARK INTER:                   0.036
REMARK INTRA:                   2.169
REMARK UNBOUND:                 2.169
REMARK  Name = 
REMARK  7 active torsions:
REMARK  status: ('A' for Active; 'I' for Inactive)
REMARK    1  A    between atoms: C_5  and  C_8
REMARK    2  A    between atoms: C_10  and  C_28
REMARK    3  A    between atoms: C_11  and  N_12
REMARK    4  A    between atoms: C_13  and  C_14
REMARK    5  A    between atoms: C_14  and  O_16
REMARK    6  A    between atoms: C_19  and  C_20
REMARK    7  A    between atoms: C_25  and  C_27
REMARK                            x       y       z     vdW  Elec       q    Type
REMARK                         _______ _______ _______ _____ _____    ______ ____
ROOT
ATOM      1  N   UNL     1      50.864 155.355  28.961  0.00  0.00    +0.000 NA
ATOM      2  C   UNL     1      50.833 156.586  29.552  0.00  0.00    +0.000 A 
ATOM      3  C   UNL     1      51.709 157.555  29.122  0.00  0.00    +0.000 A 
ATOM      4  C   UNL     1      52.595 157.281  28.116  0.00  0.00    +0.000 A 
ATOM      5  C   UNL     1      52.617 156.041  27.528  0.00  0.00    +0.000 A 
ATOM      6  C   UNL     1      51.733 155.088  27.973  0.00  0.00    +0.000 A 
ATOM      7 CL   UNL     1      51.765 153.486  27.212  0.00  0.00    +0.000 Cl
ATOM      8  C   UNL     1      51.632 158.808  29.728  0.00  0.00    +0.000 A 
ATOM      9  C   UNL     1      50.728 159.118  30.727  0.00  0.00    +0.000 A 
ATOM     10  C   UNL     1      49.878 158.153  31.138  0.00  0.00    +0.000 A 
ATOM     11  C   UNL     1      49.924 156.865  30.549  0.00  0.00    +0.000 A 
ATOM     12  C   UNL     1      48.926 158.358  32.223  0.00  0.00    +0.000 C 
ATOM     13  C   UNL     1      52.592 159.830  29.251  0.00  0.00    +0.000 C 
ENDROOT
BRANCH   9  14
ATOM     14  N   UNL     1      50.716 160.423  31.297  0.00  0.00    +0.000 N 
ATOM     15  C   UNL     1      51.782 160.926  32.090  0.00  0.00    +0.000 C 
ATOM     16  C   UNL     1      51.229 161.679  33.288  0.00  0.00    +0.000 C 
ATOM     17  S   UNL     1      49.521 162.090  32.777  0.00  0.00    +0.000 S 
ATOM     18  C   UNL     1      49.664 161.371  31.091  0.00  0.00    +0.000 C 
BRANCH  18  19
ATOM     19  C   UNL     1      48.370 160.838  30.707  0.00  0.00    +0.000 A 
ATOM     20  O   UNL     1      48.026 160.312  29.570  0.00  0.00    +0.000 OA
ATOM     21  C   UNL     1      46.769 159.938  29.584  0.00  0.00    +0.000 A 
ATOM     22  C   UNL     1      46.227 160.238  30.826  0.00  0.00    +0.000 A 
ATOM     23  C   UNL     1      47.263 160.810  31.527  0.00  0.00    +0.000 A 
ENDBRANCH  18  19
BRANCH  15  24
ATOM     24  C   UNL     1      52.882 161.653  31.452  0.00  0.00    +0.000 C 
ATOM     25  O   UNL     1      52.838 162.382  30.440  0.00  0.00    +0.000 OA
BRANCH  24  26
ATOM     26  O   UNL     1      54.197 161.565  31.993  0.00  0.00    +0.000 OA
ATOM     27  H   UNL     1      54.352 161.787  32.983  0.00  0.00    +0.000 HD
ENDBRANCH  24  26
ENDBRANCH  15  24
ENDBRANCH   9  14
BRANCH   5  28
ATOM     28  C   UNL     1      53.564 155.747  26.423  0.00  0.00    +0.000 C 
ATOM     29  O   UNL     1      53.397 156.287  25.293  0.00  0.00    +0.000 OA
ENDBRANCH   5  28
TORSDOF 5
ENDMDL
