MODEL 1
REMARK VINA RESULT:    -3.285      0.000      0.000
REMARK INTER + INTRA:          -4.228
REMARK INTER:                  -4.053
REMARK INTRA:                  -0.174
REMARK UNBOUND:                -0.174
REMARK  Name = 
REMARK  5 active torsions:
REMARK  status: ('A' for Active; 'I' for Inactive)
REMARK    1  A    between atoms: C_3  and  C_10
REMARK    2  A    between atoms: C_4  and  C_8
REMARK    3  A    between atoms: C_5  and  N_7
REMARK    4  A    between atoms: C_18  and  C_22
REMARK    5  A    between atoms: C_22  and  O_23
REMARK                            x       y       z     vdW  Elec       q    Type
REMARK                         _______ _______ _______ _____ _____    ______ ____
ROOT
ATOM      1  C   UNL     1      51.757 153.742  28.735  0.00  0.00    +0.000 A 
ATOM      2  C   UNL     1      52.272 154.064  27.514  0.00  0.00    +0.000 A 
ATOM      3  C   UNL     1      52.525 153.055  26.461  0.00  0.00    +0.000 C 
ATOM      4  C   UNL     1      52.165 151.711  26.889  0.00  0.00    +0.000 C 
ATOM      5  C   UNL     1      51.673 151.453  28.078  0.00  0.00    +0.000 C 
ATOM      6  O   UNL     1      51.452 152.427  29.030  0.00  0.00    +0.000 OA
ATOM      7  O   UNL     1      52.542 155.343  27.299  0.00  0.00    +0.000 OA
ATOM      8  C   UNL     1      52.338 156.267  28.191  0.00  0.00    +0.000 A 
ATOM      9  C   UNL     1      51.821 155.995  29.440  0.00  0.00    +0.000 A 
ATOM     10  C   UNL     1      51.514 154.692  29.742  0.00  0.00    +0.000 A 
ATOM     11  O   UNL     1      51.037 154.354  30.862  0.00  0.00    +0.000 OA
ENDROOT
BRANCH   3  12
ATOM     12  C   UNL     1      53.909 153.156  25.940  0.00  0.00    +0.000 A 
ATOM     13  C   UNL     1      54.237 154.048  24.933  0.00  0.00    +0.000 A 
ATOM     14 CL   UNL     1      52.970 155.063  24.288  0.00  0.00    +0.000 Cl
ATOM     15  C   UNL     1      55.537 154.105  24.478  0.00  0.00    +0.000 A 
ATOM     16  C   UNL     1      56.535 153.305  24.987  0.00  0.00    +0.000 A 
ATOM     17  C   UNL     1      56.217 152.425  25.980  0.00  0.00    +0.000 A 
ATOM     18  C   UNL     1      54.908 152.348  26.457  0.00  0.00    +0.000 A 
ENDBRANCH   3  12
BRANCH   5  19
ATOM     19  N   UNL     1      51.332 150.109  28.454  0.00  0.00    +0.000 N 
ATOM     20  H   UNL     1      50.997 149.837  29.380  0.00  0.00    +0.000 HD
ATOM     21  H   UNL     1      51.436 149.363  27.731  0.00  0.00    +0.000 HD
ENDBRANCH   5  19
BRANCH   4  22
ATOM     22  C   UNL     1      52.356 150.607  25.967  0.00  0.00    +0.000 C 
ATOM     23  N   UNL     1      52.513 149.721  25.234  0.00  0.00    +0.000 NA
ENDBRANCH   4  22
BRANCH   8  24
ATOM     24  C   UNL     1      52.665 157.712  27.892  0.00  0.00    +0.000 C 
BRANCH  24  25
ATOM     25  O   UNL     1      53.582 158.160  28.843  0.00  0.00    +0.000 OA
ATOM     26  H   UNL     1      53.190 158.177  29.752  0.00  0.00    +0.000 HD
ENDBRANCH  24  25
ENDBRANCH   8  24
TORSDOF 5
ENDMDL
