MODEL 1
REMARK VINA RESULT:    -7.999      0.000      0.000
REMARK INTER + INTRA:         -10.773
REMARK INTER:                 -10.337
REMARK INTRA:                  -0.436
REMARK UNBOUND:                -0.436
REMARK  Name = 
REMARK  7 active torsions:
REMARK  status: ('A' for Active; 'I' for Inactive)
REMARK    1  A    between atoms: C_1  and  C_21
REMARK    2  A    between atoms: C_2  and  C_12
REMARK    3  A    between atoms: N_4  and  C_6
REMARK    4  A    between atoms: C_14  and  N_20
REMARK    5  A    between atoms: C_15  and  O_18
REMARK    6  A    between atoms: O_18  and  C_19
REMARK    7  A    between atoms: C_21  and  O_23
REMARK                            x       y       z     vdW  Elec       q    Type
REMARK                         _______ _______ _______ _____ _____    ______ ____
ROOT
ATOM      1  C   UNL     1      53.182 154.913  25.777  0.00  0.00    +0.000 A 
ATOM      2  C   UNL     1      52.537 154.631  26.957  0.00  0.00    +0.000 A 
ATOM      3  N   UNL     1      52.495 153.261  27.017  0.00  0.00    +0.000 NA
ATOM      4  N   UNL     1      53.075 152.746  25.951  0.00  0.00    +0.000 N 
ATOM      5  C   UNL     1      53.522 153.710  25.143  0.00  0.00    +0.000 A 
ENDROOT
BRANCH   4   6
ATOM      6  C   UNL     1      53.239 151.346  25.637  0.00  0.00    +0.000 A 
ATOM      7  C   UNL     1      52.395 150.392  26.131  0.00  0.00    +0.000 A 
ATOM      8  C   UNL     1      52.547 149.053  25.833  0.00  0.00    +0.000 A 
ATOM      9  C   UNL     1      53.585 148.667  25.014  0.00  0.00    +0.000 A 
ATOM     10  C   UNL     1      54.463 149.602  24.494  0.00  0.00    +0.000 A 
ATOM     11  C   UNL     1      54.272 150.924  24.816  0.00  0.00    +0.000 A 
ENDBRANCH   4   6
BRANCH   2  12
ATOM     12  C   UNL     1      51.981 155.540  27.954  0.00  0.00    +0.000 A 
ATOM     13  C   UNL     1      52.613 156.717  28.268  0.00  0.00    +0.000 A 
ATOM     14  C   UNL     1      52.057 157.580  29.197  0.00  0.00    +0.000 A 
ATOM     15  C   UNL     1      50.863 157.255  29.812  0.00  0.00    +0.000 A 
ATOM     16  C   UNL     1      50.258 156.073  29.478  0.00  0.00    +0.000 A 
ATOM     17  C   UNL     1      50.793 155.193  28.551  0.00  0.00    +0.000 A 
BRANCH  14  18
ATOM     18  N   UNL     1      52.719 158.786  29.508  0.00  0.00    +0.000 N 
ATOM     19  H   UNL     1      53.753 158.815  29.477  0.00  0.00    +0.000 HD
ATOM     20  H   UNL     1      52.203 159.643  29.767  0.00  0.00    +0.000 HD
ENDBRANCH  14  18
BRANCH  15  21
ATOM     21  O   UNL     1      50.315 158.121  30.737  0.00  0.00    +0.000 OA
ATOM     22  C   UNL     1      48.971 158.539  30.584  0.00  0.00    +0.000 C 
ENDBRANCH  15  21
ENDBRANCH   2  12
BRANCH   1  23
ATOM     23  C   UNL     1      53.443 156.224  25.213  0.00  0.00    +0.000 C 
ATOM     24  O   UNL     1      52.531 156.913  24.696  0.00  0.00    +0.000 OA
BRANCH  23  25
ATOM     25  O   UNL     1      54.711 156.755  25.231  0.00  0.00    +0.000 OA
ATOM     26  H   UNL     1      55.218 156.904  26.116  0.00  0.00    +0.000 HD
ENDBRANCH  23  25
ENDBRANCH   1  23
TORSDOF 6
ENDMDL
