MODEL 1
REMARK VINA RESULT:    -7.133      0.000      0.000
REMARK INTER + INTRA:         -12.053
REMARK INTER:                 -11.719
REMARK INTRA:                  -0.334
REMARK UNBOUND:                -0.334
REMARK  Name = 
REMARK  15 active torsions:
REMARK  status: ('A' for Active; 'I' for Inactive)
REMARK    1  A    between atoms: C_1  and  C_14
REMARK    2  A    between atoms: C_2  and  O_12
REMARK    3  A    between atoms: C_5  and  C_7
REMARK    4  A    between atoms: C_7  and  C_8
REMARK    5  A    between atoms: C_8  and  C_9
REMARK    6  A    between atoms: C_9  and  O_11
REMARK    7  A    between atoms: O_12  and  C_13
REMARK    8  A    between atoms: C_14  and  C_15
REMARK    9  A    between atoms: C_15  and  C_16
REMARK   10  A    between atoms: C_15  and  C_24
REMARK   11  A    between atoms: C_16  and  C_17
REMARK   12  A    between atoms: C_16  and  N_23
REMARK   13  A    between atoms: C_24  and  N_25
REMARK   14  A    between atoms: N_25  and  C_26
REMARK   15  A    between atoms: N_25  and  C_27
REMARK                            x       y       z     vdW  Elec       q    Type
REMARK                         _______ _______ _______ _____ _____    ______ ____
ROOT
ATOM      1  C   UNL     1      52.561 158.234  29.418  0.00  0.00    +0.000 C 
ENDROOT
BRANCH   1   2
ATOM      2  C   UNL     1      52.503 157.087  28.542  0.00  0.00    +0.000 A 
ATOM      3  C   UNL     1      52.051 155.865  28.970  0.00  0.00    +0.000 A 
ATOM      4  C   UNL     1      52.007 154.802  28.068  0.00  0.00    +0.000 A 
ATOM      5  C   UNL     1      52.400 154.914  26.752  0.00  0.00    +0.000 A 
ATOM      6  C   UNL     1      52.855 156.147  26.328  0.00  0.00    +0.000 A 
ATOM      7  C   UNL     1      52.901 157.204  27.214  0.00  0.00    +0.000 A 
BRANCH   3   8
ATOM      8  O   UNL     1      51.626 155.619  30.277  0.00  0.00    +0.000 OA
ATOM      9  C   UNL     1      51.015 154.398  30.634  0.00  0.00    +0.000 C 
ENDBRANCH   3   8
BRANCH   6  10
ATOM     10  C   UNL     1      53.283 156.279  24.913  0.00  0.00    +0.000 C 
BRANCH  10  11
ATOM     11  C   UNL     1      54.764 155.935  24.794  0.00  0.00    +0.000 C 
BRANCH  11  12
ATOM     12  C   UNL     1      54.926 154.492  24.501  0.00  0.00    +0.000 C 
ATOM     13  O   UNL     1      54.069 153.953  23.748  0.00  0.00    +0.000 OA
BRANCH  12  14
ATOM     14  O   UNL     1      55.943 153.700  24.991  0.00  0.00    +0.000 OA
ATOM     15  H   UNL     1      56.330 153.860  25.923  0.00  0.00    +0.000 HD
ENDBRANCH  12  14
ENDBRANCH  11  12
ENDBRANCH  10  11
ENDBRANCH   6  10
ENDBRANCH   1   2
BRANCH   1  16
ATOM     16  C   UNL     1      51.332 158.812  29.965  0.00  0.00    +0.000 C 
BRANCH  16  17
ATOM     17  C   UNL     1      51.415 160.325  30.198  0.00  0.00    +0.000 C 
BRANCH  17  18
ATOM     18  C   UNL     1      50.427 160.767  31.215  0.00  0.00    +0.000 A 
ATOM     19  C   UNL     1      49.432 161.653  30.863  0.00  0.00    +0.000 A 
ATOM     20  C   UNL     1      48.484 162.093  31.773  0.00  0.00    +0.000 A 
ATOM     21  C   UNL     1      48.548 161.624  33.066  0.00  0.00    +0.000 A 
ATOM     22  C   UNL     1      49.535 160.734  33.446  0.00  0.00    +0.000 A 
ATOM     23  C   UNL     1      50.471 160.306  32.530  0.00  0.00    +0.000 A 
ENDBRANCH  17  18
BRANCH  17  24
ATOM     24  N   UNL     1      52.748 160.719  30.593  0.00  0.00    +0.000 NA
ATOM     25  H   UNL     1      53.109 160.242  31.426  0.00  0.00    +0.000 HD
ATOM     26  H   UNL     1      52.758 161.756  30.645  0.00  0.00    +0.000 HD
ENDBRANCH  17  24
ENDBRANCH  16  17
BRANCH  16  27
ATOM     27  C   UNL     1      50.033 158.518  29.351  0.00  0.00    +0.000 C 
BRANCH  27  28
ATOM     28  N   UNL     1      49.029 157.940  30.187  0.00  0.00    +0.000 NA
ATOM     29  C   UNL     1      47.884 158.730  30.438  0.00  0.00    +0.000 C 
ATOM     30  C   UNL     1      48.693 156.627  29.617  0.00  0.00    +0.000 C 
ENDBRANCH  27  28
ENDBRANCH  16  27
ENDBRANCH   1  16
TORSDOF 12
ENDMDL
