MODEL 1
REMARK VINA RESULT:    -9.320      0.000      0.000
REMARK INTER + INTRA:         -11.256
REMARK INTER:                 -11.772
REMARK INTRA:                   0.516
REMARK UNBOUND:                 0.516
REMARK  Name = 
REMARK  6 active torsions:
REMARK  status: ('A' for Active; 'I' for Inactive)
REMARK    1  A    between atoms: C_3  and  C_15
REMARK    2  A    between atoms: C_5  and  C_7
REMARK    3  A    between atoms: C_8  and  O_9
REMARK    4  A    between atoms: O_9  and  C_10
REMARK    5  A    between atoms: C_20  and  C_23
REMARK    6  A    between atoms: C_23  and  O_25
REMARK                            x       y       z     vdW  Elec       q    Type
REMARK                         _______ _______ _______ _____ _____    ______ ____
ROOT
ATOM      1  C   UNL     1      52.532 154.820  27.799  0.00  0.00    +0.000 A 
ATOM      2  N   UNL     1      53.016 155.785  26.973  0.00  0.00    +0.000 N 
ATOM      3  C   UNL     1      53.588 155.463  25.812  0.00  0.00    +0.000 A 
ATOM      4  C   UNL     1      53.673 154.130  25.488  0.00  0.00    +0.000 A 
ATOM      5  C   UNL     1      53.193 153.090  26.302  0.00  0.00    +0.000 A 
ATOM      6  N   UNL     1      52.629 153.495  27.447  0.00  0.00    +0.000 NA
ATOM      7  N   UNL     1      52.828 156.978  27.502  0.00  0.00    +0.000 NA
ATOM      8  C   UNL     1      52.210 156.878  28.706  0.00  0.00    +0.000 A 
ATOM      9  C   UNL     1      52.034 155.516  28.872  0.00  0.00    +0.000 A 
ATOM     10 CL   UNL     1      51.272 154.818  30.275  0.00  0.00    +0.000 Cl
ENDROOT
BRANCH   5  11
ATOM     11  C   UNL     1      53.314 151.730  25.827  0.00  0.00    +0.000 A 
ATOM     12  C   UNL     1      54.388 151.287  25.094  0.00  0.00    +0.000 A 
ATOM     13  C   UNL     1      54.488 149.936  24.720  0.00  0.00    +0.000 A 
ATOM     14  C   UNL     1      53.519 149.020  25.077  0.00  0.00    +0.000 A 
ATOM     15  C   UNL     1      52.455 149.467  25.806  0.00  0.00    +0.000 A 
ATOM     16  C   UNL     1      52.339 150.792  26.182  0.00  0.00    +0.000 A 
BRANCH  12  17
ATOM     17  O   UNL     1      55.376 152.186  24.733  0.00  0.00    +0.000 OA
ATOM     18  C   UNL     1      56.429 152.356  25.668  0.00  0.00    +0.000 C 
ENDBRANCH  12  17
ENDBRANCH   5  11
BRANCH   3  19
ATOM     19  C   UNL     1      54.124 156.521  24.874  0.00  0.00    +0.000 C 
ATOM     20  F   UNL     1      53.029 157.119  24.291  0.00  0.00    +0.000 F 
ATOM     21  F   UNL     1      54.908 155.854  23.967  0.00  0.00    +0.000 F 
ATOM     22  F   UNL     1      54.873 157.389  25.616  0.00  0.00    +0.000 F 
ENDBRANCH   3  19
BRANCH   8  23
ATOM     23  C   UNL     1      51.874 158.016  29.524  0.00  0.00    +0.000 C 
ATOM     24  O   UNL     1      50.727 158.098  30.082  0.00  0.00    +0.000 OA
BRANCH  23  25
ATOM     25  O   UNL     1      52.732 159.058  29.768  0.00  0.00    +0.000 OA
ATOM     26  H   UNL     1      52.316 159.952  30.114  0.00  0.00    +0.000 HD
ENDBRANCH  23  25
ENDBRANCH   8  23
TORSDOF 5
ENDMDL
