MODEL 1
REMARK VINA RESULT:    14.049      0.000      0.000
REMARK INTER + INTRA:          20.416
REMARK INTER:                  17.334
REMARK INTRA:                   3.082
REMARK UNBOUND:                 3.082
REMARK  Name = 
REMARK  5 active torsions:
REMARK  status: ('A' for Active; 'I' for Inactive)
REMARK    1  A    between atoms: C_2  and  C_3
REMARK    2  A    between atoms: N_17  and  N_18
REMARK    3  A    between atoms: C_19  and  C_33
REMARK    4  A    between atoms: C_23  and  C_24
REMARK    5  A    between atoms: C_26  and  C_29
REMARK                            x       y       z     vdW  Elec       q    Type
REMARK                         _______ _______ _______ _____ _____    ______ ____
ROOT
ATOM      1  N   UNL     1      51.544 158.405  29.039  0.00  0.00    +0.000 NA
ATOM      2  C   UNL     1      51.199 159.705  29.568  0.00  0.00    +0.000 C 
ATOM      3  C   UNL     1      50.304 159.440  30.751  0.00  0.00    +0.000 A 
ATOM      4  C   UNL     1      49.183 158.600  30.582  0.00  0.00    +0.000 A 
ATOM      5  C   UNL     1      49.095 158.099  29.149  0.00  0.00    +0.000 C 
ATOM      6  C   UNL     1      50.445 157.535  28.816  0.00  0.00    +0.000 C 
ATOM      7  C   UNL     1      48.422 158.394  31.654  0.00  0.00    +0.000 A 
ATOM      8  C   UNL     1      48.690 158.946  32.842  0.00  0.00    +0.000 A 
ATOM      9  S   UNL     1      50.231 159.895  32.409  0.00  0.00    +0.000 S 
ENDROOT
BRANCH   1  16
ATOM     10  N   UNL     1      52.817 155.082  26.920  0.00  0.00    +0.000 NA
ATOM     11  C   UNL     1      53.639 154.864  25.989  0.00  0.00    +0.000 C 
ATOM     12  C   UNL     1      54.450 155.864  25.322  0.00  0.00    +0.000 C 
ATOM     13  S   UNL     1      54.152 157.502  25.980  0.00  0.00    +0.000 S 
ATOM     14  C   UNL     1      52.938 157.378  27.261  0.00  0.00    +0.000 C 
ATOM     15  N   UNL     1      52.454 156.229  27.548  0.00  0.00    +0.000 NA
ATOM     16  N   UNL     1      52.457 158.463  28.002  0.00  0.00    +0.000 N 
ATOM     17  H   UNL     1      52.831 159.418  27.739  0.00  0.00    +0.000 HD
BRANCH  11  18
ATOM     18  C   UNL     1      53.774 153.451  25.555  0.00  0.00    +0.000 A 
ATOM     19  C   UNL     1      53.050 152.475  26.201  0.00  0.00    +0.000 A 
ATOM     20  C   UNL     1      53.195 151.190  25.780  0.00  0.00    +0.000 A 
ATOM     21  C   UNL     1      54.018 150.818  24.755  0.00  0.00    +0.000 A 
ATOM     22  O   UNL     1      54.116 149.507  24.384  0.00  0.00    +0.000 OA
ATOM     23  C   UNL     1      53.230 148.498  24.800  0.00  0.00    +0.000 C 
ATOM     24  C   UNL     1      52.252 148.922  25.846  0.00  0.00    +0.000 C 
ATOM     25  O   UNL     1      52.480 150.176  26.408  0.00  0.00    +0.000 OA
ATOM     26  C   UNL     1      54.747 151.804  24.106  0.00  0.00    +0.000 A 
ATOM     27  C   UNL     1      54.610 153.107  24.520  0.00  0.00    +0.000 A 
ENDBRANCH  11  18
ENDBRANCH   1  16
BRANCH   2  28
ATOM     28  C   UNL     1      52.371 160.417  30.102  0.00  0.00    +0.000 A 
ATOM     29  C   UNL     1      52.201 161.683  30.621  0.00  0.00    +0.000 A 
ATOM     30  C   UNL     1      53.228 162.436  31.145  0.00  0.00    +0.000 A 
ATOM     31  C   UNL     1      54.482 161.854  31.131  0.00  0.00    +0.000 A 
ATOM     32  C   UNL     1      54.667 160.591  30.615  0.00  0.00    +0.000 A 
ATOM     33  C   UNL     1      53.635 159.850  30.096  0.00  0.00    +0.000 A 
ATOM     34 CL   UNL     1      55.808 162.791  31.791  0.00  0.00    +0.000 Cl
ATOM     35 CL   UNL     1      52.999 164.042  31.802  0.00  0.00    +0.000 Cl
ENDBRANCH   2  28
BRANCH   6  36
ATOM     36  C   UNL     1      50.555 156.281  29.686  0.00  0.00    +0.000 A 
ATOM     37  N   UNL     1      50.551 155.943  30.802  0.00  0.00    +0.000 NA
ATOM     38  C   UNL     1      50.671 154.738  31.316  0.00  0.00    +0.000 A 
ATOM     39  C   UNL     1      50.823 153.731  30.388  0.00  0.00    +0.000 A 
ATOM     40  S   UNL     1      50.778 154.643  28.816  0.00  0.00    +0.000 S 
ATOM     41  C   UNL     1      50.655 154.380  32.803  0.00  0.00    +0.000 C 
ENDBRANCH   6  36
TORSDOF 4
ENDMDL
