MODEL 1
REMARK VINA RESULT:    -5.847      0.000      0.000
REMARK INTER + INTRA:          -9.072
REMARK INTER:                  -8.582
REMARK INTRA:                  -0.490
REMARK UNBOUND:                -0.490
REMARK  Name = 
REMARK  12 active torsions:
REMARK  status: ('A' for Active; 'I' for Inactive)
REMARK    1  A    between atoms: S_1  and  N_4
REMARK    2  A    between atoms: S_1  and  N_21
REMARK    3  A    between atoms: N_4  and  C_5
REMARK    4  A    between atoms: N_4  and  C_20
REMARK    5  A    between atoms: C_5  and  C_6
REMARK    6  A    between atoms: C_8  and  N_18
REMARK    7  A    between atoms: C_10  and  C_12
REMARK    8  A    between atoms: N_18  and  C_19
REMARK    9  A    between atoms: N_21  and  C_22
REMARK   10  A    between atoms: N_21  and  C_24
REMARK   11  A    between atoms: C_22  and  C_23
REMARK   12  A    between atoms: C_24  and  C_25
REMARK                            x       y       z     vdW  Elec       q    Type
REMARK                         _______ _______ _______ _____ _____    ______ ____
ROOT
ATOM      1  C   UNL     1      52.376 156.524  28.333  0.00  0.00    +0.000 A 
ATOM      2  N   UNL     1      53.028 157.172  27.354  0.00  0.00    +0.000 NA
ATOM      3  C   UNL     1      53.425 156.553  26.227  0.00  0.00    +0.000 A 
ATOM      4  C   UNL     1      53.159 155.209  26.065  0.00  0.00    +0.000 A 
ATOM      5  C   UNL     1      52.491 154.539  27.066  0.00  0.00    +0.000 A 
ATOM      6  N   UNL     1      52.126 155.231  28.165  0.00  0.00    +0.000 NA
ENDROOT
BRANCH   5   7
ATOM      7  C   UNL     1      52.173 153.108  26.965  0.00  0.00    +0.000 C 
ATOM      8  C   UNL     1      52.110 152.417  28.303  0.00  0.00    +0.000 C 
ATOM      9  N   UNL     1      51.515 151.110  28.079  0.00  0.00    +0.000 NA
ATOM     10  C   UNL     1      51.606 150.669  26.721  0.00  0.00    +0.000 C 
ATOM     11  C   UNL     1      52.952 150.977  26.092  0.00  0.00    +0.000 C 
ATOM     12  C   UNL     1      53.296 152.442  26.179  0.00  0.00    +0.000 C 
ATOM     13  H   UNL     1      51.830 150.406  28.769  0.00  0.00    +0.000 HD
ENDBRANCH   5   7
BRANCH   3  14
ATOM     14  N   UNL     1      54.119 157.259  25.191  0.00  0.00    +0.000 N 
ATOM     15  C   UNL     1      54.992 156.602  24.270  0.00  0.00    +0.000 C 
ATOM     16  H   UNL     1      53.993 158.288  25.094  0.00  0.00    +0.000 HD
ENDBRANCH   3  14
BRANCH   1  17
ATOM     17  C   UNL     1      51.995 157.328  29.530  0.00  0.00    +0.000 C 
BRANCH  17  18
ATOM     18  N   UNL     1      50.641 157.735  29.531  0.00  0.00    +0.000 NA
ATOM     19  C   UNL     1      49.692 156.793  30.013  0.00  0.00    +0.000 C 
BRANCH  18  20
ATOM     20  S   UNL     1      50.507 159.298  30.226  0.00  0.00    +0.000 S 
ATOM     21  O   UNL     1      51.844 159.717  30.807  0.00  0.00    +0.000 OA
ATOM     22  O   UNL     1      50.202 160.341  29.156  0.00  0.00    +0.000 OA
BRANCH  20  23
ATOM     23  N   UNL     1      49.257 159.373  31.365  0.00  0.00    +0.000 NA
BRANCH  23  24
ATOM     24  C   UNL     1      49.587 159.969  32.631  0.00  0.00    +0.000 C 
ATOM     25  C   UNL     1      49.599 161.483  32.461  0.00  0.00    +0.000 C 
ENDBRANCH  23  24
BRANCH  23  26
ATOM     26  C   UNL     1      48.057 159.929  30.777  0.00  0.00    +0.000 C 
ATOM     27  C   UNL     1      46.877 159.681  31.713  0.00  0.00    +0.000 C 
ENDBRANCH  23  26
ENDBRANCH  20  23
ENDBRANCH  18  20
ENDBRANCH  17  18
ENDBRANCH   1  17
TORSDOF 8
ENDMDL
