MODEL 1
REMARK VINA RESULT:    -6.816      0.000      0.000
REMARK INTER + INTRA:          -6.654
REMARK INTER:                  -9.207
REMARK INTRA:                   2.553
REMARK UNBOUND:                 2.553
REMARK  Name = 
REMARK  9 active torsions:
REMARK  status: ('A' for Active; 'I' for Inactive)
REMARK    1  A    between atoms: C_1  and  C_13
REMARK    2  A    between atoms: N_3  and  C_4
REMARK    3  A    between atoms: C_5  and  O_11
REMARK    4  A    between atoms: C_7  and  N_8
REMARK    5  A    between atoms: O_11  and  C_12
REMARK    6  A    between atoms: C_17  and  C_18
REMARK    7  A    between atoms: C_19  and  C_24
REMARK    8  A    between atoms: C_22  and  N_23
REMARK    9  A    between atoms: C_27  and  C_30
REMARK                            x       y       z     vdW  Elec       q    Type
REMARK                         _______ _______ _______ _____ _____    ______ ____
ROOT
ATOM      1  C   UNL     1      52.853 155.646  26.798  0.00  0.00    +0.000 A 
ATOM      2  O   UNL     1      53.441 156.536  26.046  0.00  0.00    +0.000 OA
ATOM      3  C   UNL     1      53.574 157.670  26.712  0.00  0.00    +0.000 A 
ATOM      4  C   UNL     1      53.023 157.465  27.983  0.00  0.00    +0.000 A 
ATOM      5  C   UNL     1      52.563 156.166  28.030  0.00  0.00    +0.000 A 
ENDROOT
BRANCH   5   6
ATOM      6  C   UNL     1      51.918 155.474  29.133  0.00  0.00    +0.000 A 
ATOM      7  C   UNL     1      50.980 155.993  30.013  0.00  0.00    +0.000 A 
ATOM      8  N   UNL     1      50.660 155.013  30.875  0.00  0.00    +0.000 NA
ATOM      9  N   UNL     1      51.349 153.933  30.566  0.00  0.00    +0.000 N 
ATOM     10  C   UNL     1      52.134 154.165  29.507  0.00  0.00    +0.000 A 
ATOM     11  H   UNL     1      51.280 153.018  31.093  0.00  0.00    +0.000 HD
BRANCH   7  12
ATOM     12  C   UNL     1      50.448 157.366  29.989  0.00  0.00    +0.000 A 
ATOM     13  C   UNL     1      49.078 157.503  29.987  0.00  0.00    +0.000 A 
ATOM     14  C   UNL     1      48.529 158.773  29.964  0.00  0.00    +0.000 A 
ATOM     15  C   UNL     1      49.304 159.915  29.942  0.00  0.00    +0.000 A 
ATOM     16  C   UNL     1      50.674 159.739  29.944  0.00  0.00    +0.000 A 
ATOM     17  C   UNL     1      51.256 158.470  29.967  0.00  0.00    +0.000 A 
ATOM     18  C   UNL     1      48.673 161.255  29.917  0.00  0.00    +0.000 C 
ENDBRANCH   7  12
BRANCH  10  19
ATOM     19  N   UNL     1      53.039 153.225  28.877  0.00  0.00    +0.000 N 
ATOM     20  H   UNL     1      53.916 153.583  28.447  0.00  0.00    +0.000 HD
ATOM     21  H   UNL     1      52.774 152.215  28.879  0.00  0.00    +0.000 HD
ENDBRANCH  10  19
ENDBRANCH   5   6
BRANCH   1  22
ATOM     22  C   UNL     1      52.531 154.254  26.401  0.00  0.00    +0.000 C 
ATOM     23  O   UNL     1      51.357 153.927  26.155  0.00  0.00    +0.000 OA
ATOM     24  N   UNL     1      53.555 153.278  26.294  0.00  0.00    +0.000 N 
ATOM     25  H   UNL     1      54.529 153.667  26.527  0.00  0.00    +0.000 HD
BRANCH  24  26
ATOM     26  C   UNL     1      53.397 151.927  25.930  0.00  0.00    +0.000 A 
ATOM     27  C   UNL     1      54.212 151.439  24.900  0.00  0.00    +0.000 A 
ATOM     28  C   UNL     1      54.141 150.126  24.466  0.00  0.00    +0.000 A 
ATOM     29  C   UNL     1      53.263 149.230  25.026  0.00  0.00    +0.000 A 
ATOM     30  C   UNL     1      52.460 149.690  26.034  0.00  0.00    +0.000 A 
ATOM     31  C   UNL     1      52.528 151.021  26.479  0.00  0.00    +0.000 A 
BRANCH  29  32
ATOM     32  N   UNL     1      53.184 147.876  24.586  0.00  0.00    +0.000 N 
ATOM     33  H   UNL     1      53.784 147.557  23.801  0.00  0.00    +0.000 HD
ATOM     34  H   UNL     1      52.552 147.178  25.008  0.00  0.00    +0.000 HD
ENDBRANCH  29  32
BRANCH  27  35
ATOM     35  O   UNL     1      55.104 152.323  24.320  0.00  0.00    +0.000 OA
ATOM     36  C   UNL     1      54.606 153.300  23.429  0.00  0.00    +0.000 C 
ENDBRANCH  27  35
ENDBRANCH  24  26
ENDBRANCH   1  22
TORSDOF 7
ENDMDL
