MODEL 1
REMARK VINA RESULT:    14.353      0.000      0.000
REMARK INTER + INTRA:          20.654
REMARK INTER:                  19.807
REMARK INTRA:                   0.847
REMARK UNBOUND:                 0.847
REMARK  Name = 
REMARK  7 active torsions:
REMARK  status: ('A' for Active; 'I' for Inactive)
REMARK    1  A    between atoms: N_1  and  C_2
REMARK    2  A    between atoms: C_2  and  C_3
REMARK    3  A    between atoms: C_11  and  C_12
REMARK    4  A    between atoms: C_12  and  C_13
REMARK    5  A    between atoms: C_13  and  O_15
REMARK    6  A    between atoms: C_17  and  N_18
REMARK    7  A    between atoms: C_19  and  C_32
REMARK                            x       y       z     vdW  Elec       q    Type
REMARK                         _______ _______ _______ _____ _____    ______ ____
ROOT
ATOM      1  N   UNL     1      50.658 159.803  30.192  0.00  0.00    +0.000 N 
ATOM      2  C   UNL     1      49.204 159.630  30.113  0.00  0.00    +0.000 C 
ATOM      3  C   UNL     1      48.497 160.276  31.233  0.00  0.00    +0.000 C 
ATOM      4  C   UNL     1      49.378 160.668  32.406  0.00  0.00    +0.000 C 
ATOM      5  C   UNL     1      50.537 161.470  31.967  0.00  0.00    +0.000 A 
ATOM      6  C   UNL     1      51.182 160.998  30.820  0.00  0.00    +0.000 A 
ATOM      7  C   UNL     1      52.270 161.628  30.275  0.00  0.00    +0.000 A 
ATOM      8  C   UNL     1      52.733 162.768  30.898  0.00  0.00    +0.000 A 
ATOM      9  C   UNL     1      52.100 163.243  32.037  0.00  0.00    +0.000 A 
ATOM     10  C   UNL     1      51.002 162.604  32.583  0.00  0.00    +0.000 A 
ATOM     11  F   UNL     1      52.580 164.375  32.636  0.00  0.00    +0.000 F 
ATOM     12  C   UNL     1      49.672 159.394  33.033  0.00  0.00    +0.000 C 
ATOM     13  C   UNL     1      48.660 158.570  32.807  0.00  0.00    +0.000 C 
ATOM     14  C   UNL     1      47.602 159.271  31.990  0.00  0.00    +0.000 C 
ENDROOT
BRANCH   1  20
ATOM     15  N   UNL     1      51.568 157.554  30.235  0.00  0.00    +0.000 NA
ATOM     16  C   UNL     1      52.816 156.885  30.005  0.00  0.00    +0.000 C 
ATOM     17  C   UNL     1      53.134 156.739  28.537  0.00  0.00    +0.000 C 
ATOM     18  C   UNL     1      52.616 157.833  27.687  0.00  0.00    +0.000 C 
ATOM     19  C   UNL     1      51.409 158.564  28.185  0.00  0.00    +0.000 C 
ATOM     20  C   UNL     1      51.626 158.878  29.663  0.00  0.00    +0.000 C 
BRANCH  15  21
ATOM     21  C   UNL     1      50.416 156.785  29.965  0.00  0.00    +0.000 C 
BRANCH  21  22
ATOM     22  C   UNL     1      50.783 155.420  29.427  0.00  0.00    +0.000 A 
ATOM     23  N   UNL     1      50.650 155.134  28.124  0.00  0.00    +0.000 NA
ATOM     24  C   UNL     1      50.978 153.924  27.644  0.00  0.00    +0.000 A 
ATOM     25  C   UNL     1      51.463 152.918  28.438  0.00  0.00    +0.000 A 
ATOM     26  C   UNL     1      51.617 153.171  29.789  0.00  0.00    +0.000 A 
ATOM     27  C   UNL     1      51.271 154.423  30.253  0.00  0.00    +0.000 A 
ENDBRANCH  21  22
ENDBRANCH  15  21
BRANCH  18  28
ATOM     28  C   UNL     1      52.293 157.370  26.265  0.00  0.00    +0.000 C 
BRANCH  28  29
ATOM     29  C   UNL     1      53.263 156.414  25.739  0.00  0.00    +0.000 C 
ATOM     30  O   UNL     1      54.345 156.804  25.233  0.00  0.00    +0.000 OA
BRANCH  29  31
ATOM     31  O   UNL     1      53.013 155.060  25.787  0.00  0.00    +0.000 OA
ATOM     32  H   UNL     1      53.665 154.409  26.217  0.00  0.00    +0.000 HD
ENDBRANCH  29  31
ENDBRANCH  28  29
ENDBRANCH  18  28
ENDBRANCH   1  20
BRANCH   2  33
ATOM     33  C   UNL     1      48.770 159.958  28.754  0.00  0.00    +0.000 A 
ATOM     34  C   UNL     1      49.030 161.234  28.252  0.00  0.00    +0.000 A 
ATOM     35  C   UNL     1      48.616 161.590  26.974  0.00  0.00    +0.000 A 
ATOM     36  N   UNL     1      47.957 160.736  26.170  0.00  0.00    +0.000 NA
ATOM     37  C   UNL     1      47.693 159.490  26.635  0.00  0.00    +0.000 A 
ATOM     38  C   UNL     1      48.098 159.127  27.900  0.00  0.00    +0.000 A 
ENDBRANCH   2  33
TORSDOF 7
ENDMDL
