MODEL 1
REMARK VINA RESULT:    -7.998      0.000      0.000
REMARK INTER + INTRA:          -8.051
REMARK INTER:                 -10.102
REMARK INTRA:                   2.051
REMARK UNBOUND:                 2.051
REMARK  Name = 
REMARK  6 active torsions:
REMARK  status: ('A' for Active; 'I' for Inactive)
REMARK    1  A    between atoms: C_1  and  C_24
REMARK    2  A    between atoms: C_2  and  C_15
REMARK    3  A    between atoms: C_4  and  C_8
REMARK    4  A    between atoms: C_17  and  O_22
REMARK    5  A    between atoms: C_18  and  O_21
REMARK    6  A    between atoms: O_22  and  C_23
REMARK                            x       y       z     vdW  Elec       q    Type
REMARK                         _______ _______ _______ _____ _____    ______ ____
ROOT
ATOM      1  C   UNL     1      53.768 155.057  25.580  0.00  0.00    +0.000 A 
ATOM      2  C   UNL     1      52.968 154.344  26.446  0.00  0.00    +0.000 A 
ATOM      3  C   UNL     1      52.283 155.000  27.445  0.00  0.00    +0.000 A 
ATOM      4  C   UNL     1      52.387 156.356  27.588  0.00  0.00    +0.000 A 
ATOM      5  N   UNL     1      53.192 157.017  26.705  0.00  0.00    +0.000 NA
ATOM      6  C   UNL     1      53.875 156.424  25.722  0.00  0.00    +0.000 A 
ATOM      7  N   UNL     1      54.709 157.186  24.821  0.00  0.00    +0.000 N 
ATOM      8  H   UNL     1      55.668 156.927  24.583  0.00  0.00    +0.000 HD
ATOM      9  H   UNL     1      54.263 158.043  24.412  0.00  0.00    +0.000 HD
ENDROOT
BRANCH   4  10
ATOM     10  C   UNL     1      51.691 157.107  28.620  0.00  0.00    +0.000 A 
ATOM     11  C   UNL     1      52.089 158.357  29.009  0.00  0.00    +0.000 A 
ATOM     12  C   UNL     1      51.413 159.060  29.997  0.00  0.00    +0.000 A 
ATOM     13  C   UNL     1      50.323 158.516  30.613  0.00  0.00    +0.000 A 
ATOM     14  C   UNL     1      49.908 157.253  30.232  0.00  0.00    +0.000 A 
ATOM     15  C   UNL     1      50.591 156.565  29.247  0.00  0.00    +0.000 A 
ATOM     16 BR   UNL     1      49.384 159.466  31.970  0.00  0.00    +0.000 Br
ENDBRANCH   4  10
BRANCH   2  17
ATOM     17  C   UNL     1      52.877 152.900  26.274  0.00  0.00    +0.000 A 
ATOM     18  C   UNL     1      53.684 152.170  25.423  0.00  0.00    +0.000 A 
ATOM     19  C   UNL     1      53.569 150.804  25.283  0.00  0.00    +0.000 A 
ATOM     20  C   UNL     1      52.623 150.106  26.004  0.00  0.00    +0.000 A 
ATOM     21  C   UNL     1      51.812 150.823  26.856  0.00  0.00    +0.000 A 
ATOM     22  C   UNL     1      51.930 152.193  26.994  0.00  0.00    +0.000 A 
BRANCH  20  23
ATOM     23  O   UNL     1      52.473 148.715  25.890  0.00  0.00    +0.000 OA
ATOM     24  H   UNL     1      52.070 148.150  26.596  0.00  0.00    +0.000 HD
ENDBRANCH  20  23
BRANCH  19  25
ATOM     25  O   UNL     1      54.377 150.067  24.429  0.00  0.00    +0.000 OA
ATOM     26  C   UNL     1      54.402 148.666  24.592  0.00  0.00    +0.000 C 
ENDBRANCH  19  25
ENDBRANCH   2  17
BRANCH   1  27
ATOM     27  C   UNL     1      54.512 154.454  24.511  0.00  0.00    +0.000 C 
ATOM     28  N   UNL     1      55.121 153.979  23.633  0.00  0.00    +0.000 NA
ENDBRANCH   1  27
TORSDOF 5
ENDMDL
