MODEL 1
REMARK VINA RESULT:    -7.584      0.000      0.000
REMARK INTER + INTRA:         -10.735
REMARK INTER:                 -10.244
REMARK INTRA:                  -0.491
REMARK UNBOUND:                -0.491
REMARK  Name = 
REMARK  7 active torsions:
REMARK  status: ('A' for Active; 'I' for Inactive)
REMARK    1  A    between atoms: C_1  and  C_11
REMARK    2  A    between atoms: C_2  and  O_8
REMARK    3  A    between atoms: O_8  and  C_9
REMARK    4  A    between atoms: C_9  and  C_10
REMARK    5  A    between atoms: C_11  and  N_12
REMARK    6  A    between atoms: N_12  and  C_13
REMARK    7  A    between atoms: C_13  and  C_14
REMARK                            x       y       z     vdW  Elec       q    Type
REMARK                         _______ _______ _______ _____ _____    ______ ____
ROOT
ATOM      1  C   UNL     1      52.055 158.638  29.545  0.00  0.00    +0.000 C 
ENDROOT
BRANCH   1   2
ATOM      2  C   UNL     1      51.170 159.553  30.341  0.00  0.00    +0.000 A 
ATOM      3  C   UNL     1      51.712 160.710  30.903  0.00  0.00    +0.000 A 
ATOM      4  C   UNL     1      50.907 161.544  31.631  0.00  0.00    +0.000 A 
ATOM      5  C   UNL     1      49.584 161.227  31.793  0.00  0.00    +0.000 A 
ATOM      6  C   UNL     1      49.012 160.094  31.252  0.00  0.00    +0.000 A 
ATOM      7  C   UNL     1      49.845 159.268  30.521  0.00  0.00    +0.000 A 
ATOM      8 BR   UNL     1      47.154 159.676  31.494  0.00  0.00    +0.000 Br
BRANCH   3   9
ATOM      9  O   UNL     1      53.028 160.994  30.722  0.00  0.00    +0.000 OA
BRANCH   9  10
ATOM     10  C   UNL     1      53.699 162.199  30.750  0.00  0.00    +0.000 C 
ATOM     11  C   UNL     1      55.182 162.035  30.810  0.00  0.00    +0.000 C 
ENDBRANCH   9  10
ENDBRANCH   3   9
ENDBRANCH   1   2
BRANCH   1  12
ATOM     12  N   UNL     1      51.521 157.293  29.552  0.00  0.00    +0.000 NA
ATOM     13  H   UNL     1      51.543 156.928  30.549  0.00  0.00    +0.000 HD
BRANCH  12  14
ATOM     14  C   UNL     1      52.515 156.483  28.832  0.00  0.00    +0.000 C 
BRANCH  14  15
ATOM     15  C   UNL     1      51.913 155.832  27.632  0.00  0.00    +0.000 C 
ATOM     16  C   UNL     1      51.090 154.656  28.151  0.00  0.00    +0.000 C 
ATOM     17  C   UNL     1      51.974 153.722  28.963  0.00  0.00    +0.000 C 
ATOM     18  N   UNL     1      53.306 153.711  28.449  0.00  0.00    +0.000 NA
ATOM     19  C   UNL     1      53.298 153.872  27.012  0.00  0.00    +0.000 C 
ATOM     20  C   UNL     1      53.027 155.338  26.732  0.00  0.00    +0.000 C 
ATOM     21  H   UNL     1      53.849 152.885  28.758  0.00  0.00    +0.000 HD
ENDBRANCH  14  15
ENDBRANCH  12  14
ENDBRANCH   1  12
TORSDOF 6
ENDMDL
