MODEL 1
REMARK VINA RESULT:    -2.065      0.000      0.000
REMARK INTER + INTRA:          -2.165
REMARK INTER:                  -2.910
REMARK INTRA:                   0.745
REMARK UNBOUND:                 0.745
REMARK  Name = 
REMARK  10 active torsions:
REMARK  status: ('A' for Active; 'I' for Inactive)
REMARK    1  A    between atoms: C_1  and  C_20
REMARK    2  A    between atoms: C_5  and  C_16
REMARK    3  A    between atoms: C_6  and  C_7
REMARK    4  A    between atoms: C_8  and  O_9
REMARK    5  A    between atoms: O_9  and  C_10
REMARK    6  A    between atoms: C_10  and  C_11
REMARK    7  A    between atoms: C_16  and  O_18
REMARK    8  A    between atoms: O_18  and  C_19
REMARK    9  A    between atoms: C_20  and  O_22
REMARK   10  A    between atoms: O_22  and  C_23
REMARK                            x       y       z     vdW  Elec       q    Type
REMARK                         _______ _______ _______ _____ _____    ______ ____
ROOT
ATOM      1  C   UNL     1      53.179 151.337  25.836  0.00  0.00    +0.000 C 
ATOM      2  C   UNL     1      52.070 150.688  26.128  0.00  0.00    +0.000 C 
ATOM      3  N   UNL     1      51.267 150.981  27.245  0.00  0.00    +0.000 N 
ATOM      4  C   UNL     1      51.725 152.043  28.065  0.00  0.00    +0.000 C 
ATOM      5  C   UNL     1      52.816 152.721  27.822  0.00  0.00    +0.000 C 
ATOM      6  C   UNL     1      53.668 152.441  26.675  0.00  0.00    +0.000 C 
ATOM      7  H   UNL     1      50.409 150.446  27.432  0.00  0.00    +0.000 HD
ENDROOT
BRANCH   6   8
ATOM      8  C   UNL     1      53.851 153.608  25.784  0.00  0.00    +0.000 A 
ATOM      9  C   UNL     1      55.049 153.781  25.128  0.00  0.00    +0.000 A 
ATOM     10  C   UNL     1      55.241 154.860  24.266  0.00  0.00    +0.000 A 
ATOM     11  C   UNL     1      54.191 155.749  24.093  0.00  0.00    +0.000 A 
ATOM     12  C   UNL     1      52.990 155.579  24.748  0.00  0.00    +0.000 A 
ATOM     13  C   UNL     1      52.817 154.488  25.610  0.00  0.00    +0.000 A 
BRANCH   9  14
ATOM     14  O   UNL     1      56.030 152.845  25.365  0.00  0.00    +0.000 OA
BRANCH  14  15
ATOM     15  C   UNL     1      57.323 153.120  25.850  0.00  0.00    +0.000 C 
ATOM     16  C   UNL     1      57.968 151.952  26.520  0.00  0.00    +0.000 C 
ENDBRANCH  14  15
ENDBRANCH   9  14
ENDBRANCH   6   8
BRANCH   5  17
ATOM     17  C   UNL     1      53.210 153.802  28.725  0.00  0.00    +0.000 C 
ATOM     18  O   UNL     1      54.163 153.689  29.542  0.00  0.00    +0.000 OA
BRANCH  17  19
ATOM     19  O   UNL     1      52.553 155.031  28.738  0.00  0.00    +0.000 OA
ATOM     20  C   UNL     1      51.456 155.295  29.599  0.00  0.00    +0.000 C 
ENDBRANCH  17  19
ENDBRANCH   5  17
BRANCH   1  21
ATOM     21  C   UNL     1      53.914 150.929  24.648  0.00  0.00    +0.000 C 
ATOM     22  O   UNL     1      53.902 151.532  23.548  0.00  0.00    +0.000 OA
BRANCH  21  23
ATOM     23  O   UNL     1      54.724 149.779  24.657  0.00  0.00    +0.000 OA
ATOM     24  C   UNL     1      54.191 148.477  24.631  0.00  0.00    +0.000 C 
ENDBRANCH  21  23
ENDBRANCH   1  21
TORSDOF 7
ENDMDL
