MODEL 1
REMARK VINA RESULT:    -6.996      0.000      0.000
REMARK INTER + INTRA:          -8.311
REMARK INTER:                  -8.223
REMARK INTRA:                  -0.088
REMARK UNBOUND:                -0.088
REMARK  Name = 
REMARK  4 active torsions:
REMARK  status: ('A' for Active; 'I' for Inactive)
REMARK    1  A    between atoms: N_4  and  C_14
REMARK    2  A    between atoms: C_7  and  C_8
REMARK    3  A    between atoms: C_19  and  C_21
REMARK    4  A    between atoms: C_21  and  C_22
REMARK                            x       y       z     vdW  Elec       q    Type
REMARK                         _______ _______ _______ _____ _____    ______ ____
ROOT
ATOM      1  N   UNL     1      50.663 161.093  31.508  0.00  0.00    +0.000 N 
ATOM      2  C   UNL     1      50.299 159.676  31.309  0.00  0.00    +0.000 C 
ATOM      3  C   UNL     1      49.037 159.325  32.119  0.00  0.00    +0.000 C 
ATOM      4  N   UNL     1      47.854 159.213  31.421  0.00  0.00    +0.000 NA
ATOM      5  C   UNL     1      47.998 158.318  30.303  0.00  0.00    +0.000 C 
ATOM      6  C   UNL     1      48.886 159.056  29.329  0.00  0.00    +0.000 C 
ATOM      7  C   UNL     1      50.300 159.234  29.924  0.00  0.00    +0.000 C 
ATOM      8  C   UNL     1      46.763 160.019  31.379  0.00  0.00    +0.000 C 
ATOM      9  C   UNL     1      49.060 159.834  33.501  0.00  0.00    +0.000 C 
ATOM     10  C   UNL     1      48.648 161.197  33.825  0.00  0.00    +0.000 C 
ATOM     11  C   UNL     1      49.631 162.291  33.382  0.00  0.00    +0.000 C 
ATOM     12  C   UNL     1      49.899 162.216  31.916  0.00  0.00    +0.000 C 
ATOM     13  C   UNL     1      52.029 161.353  31.225  0.00  0.00    +0.000 C 
ATOM     14  O   UNL     1      52.817 160.430  30.811  0.00  0.00    +0.000 OA
ENDROOT
BRANCH   7  15
ATOM     15  C   UNL     1      51.005 158.009  29.545  0.00  0.00    +0.000 A 
ATOM     16  C   UNL     1      50.622 156.733  29.901  0.00  0.00    +0.000 A 
ATOM     17  C   UNL     1      51.308 155.610  29.481  0.00  0.00    +0.000 A 
ATOM     18  C   UNL     1      52.418 155.733  28.678  0.00  0.00    +0.000 A 
ATOM     19  C   UNL     1      52.818 157.027  28.309  0.00  0.00    +0.000 A 
ATOM     20  C   UNL     1      52.134 158.147  28.727  0.00  0.00    +0.000 A 
ENDBRANCH   7  15
BRANCH  13  21
ATOM     21  C   UNL     1      52.705 162.661  31.364  0.00  0.00    +0.000 C 
BRANCH  21  22
ATOM     22  C   UNL     1      54.098 162.548  30.851  0.00  0.00    +0.000 A 
ATOM     23  C   UNL     1      55.135 161.995  31.572  0.00  0.00    +0.000 A 
ATOM     24  N   UNL     1      56.225 162.089  30.778  0.00  0.00    +0.000 NA
ATOM     25  O   UNL     1      55.858 162.657  29.669  0.00  0.00    +0.000 OA
ATOM     26  N   UNL     1      54.599 162.946  29.672  0.00  0.00    +0.000 NA
ATOM     27  N   UNL     1      55.088 161.428  32.889  0.00  0.00    +0.000 N 
ATOM     28  H   UNL     1      55.440 160.476  33.120  0.00  0.00    +0.000 HD
ATOM     29  H   UNL     1      54.686 161.980  33.668  0.00  0.00    +0.000 HD
ENDBRANCH  21  22
ENDBRANCH  13  21
TORSDOF 3
ENDMDL
