MODEL 1
REMARK VINA RESULT:     2.382      0.000      0.000
REMARK INTER + INTRA:           5.637
REMARK INTER:                   3.287
REMARK INTRA:                   2.350
REMARK UNBOUND:                 2.350
REMARK  Name = 
REMARK  10 active torsions:
REMARK  status: ('A' for Active; 'I' for Inactive)
REMARK    1  A    between atoms: C_3  and  C_10
REMARK    2  A    between atoms: C_4  and  C_8
REMARK    3  A    between atoms: C_5  and  N_7
REMARK    4  A    between atoms: C_15  and  O_16
REMARK    5  A    between atoms: O_16  and  C_17
REMARK    6  A    between atoms: C_17  and  C_18
REMARK    7  A    between atoms: C_21  and  O_23
REMARK    8  A    between atoms: O_23  and  C_24
REMARK    9  A    between atoms: C_24  and  C_25
REMARK   10  A    between atoms: C_26  and  C_29
REMARK                            x       y       z     vdW  Elec       q    Type
REMARK                         _______ _______ _______ _____ _____    ______ ____
ROOT
ATOM      1  C   UNL     1      51.900 161.441  31.163  0.00  0.00    +0.000 A 
ATOM      2  C   UNL     1      52.160 160.425  30.287  0.00  0.00    +0.000 A 
ATOM      3  C   UNL     1      51.094 159.796  29.503  0.00  0.00    +0.000 C 
ATOM      4  C   UNL     1      49.771 160.420  29.822  0.00  0.00    +0.000 C 
ATOM      5  C   UNL     1      49.591 161.392  30.676  0.00  0.00    +0.000 C 
ATOM      6  O   UNL     1      50.645 161.938  31.375  0.00  0.00    +0.000 OA
ATOM      7  C   UNL     1      53.521 160.227  30.368  0.00  0.00    +0.000 A 
ATOM      8  N   UNL     1      54.060 161.085  31.254  0.00  0.00    +0.000 NA
ATOM      9  N   UNL     1      53.078 161.821  31.736  0.00  0.00    +0.000 N 
ATOM     10  C   UNL     1      54.293 159.239  29.615  0.00  0.00    +0.000 C 
ATOM     11  H   UNL     1      53.173 162.575  32.441  0.00  0.00    +0.000 HD
ENDROOT
BRANCH   3  12
ATOM     12  C   UNL     1      50.899 158.359  29.751  0.00  0.00    +0.000 A 
ATOM     13  C   UNL     1      51.505 157.355  29.024  0.00  0.00    +0.000 A 
ATOM     14  C   UNL     1      51.291 156.007  29.290  0.00  0.00    +0.000 A 
ATOM     15  C   UNL     1      50.448 155.630  30.310  0.00  0.00    +0.000 A 
ATOM     16  C   UNL     1      49.819 156.628  31.063  0.00  0.00    +0.000 A 
ATOM     17  C   UNL     1      50.057 157.967  30.770  0.00  0.00    +0.000 A 
ATOM     18  C   UNL     1      51.909 155.027  28.547  0.00  0.00    +0.000 A 
ATOM     19  C   UNL     1      52.762 155.366  27.514  0.00  0.00    +0.000 A 
ATOM     20  C   UNL     1      53.001 156.691  27.220  0.00  0.00    +0.000 A 
ATOM     21  C   UNL     1      52.348 157.652  28.005  0.00  0.00    +0.000 A 
BRANCH  17  22
ATOM     22  O   UNL     1      49.416 158.909  31.538  0.00  0.00    +0.000 OA
BRANCH  22  23
ATOM     23  C   UNL     1      49.036 158.818  32.866  0.00  0.00    +0.000 C 
ATOM     24  C   UNL     1      49.406 160.010  33.713  0.00  0.00    +0.000 C 
ENDBRANCH  22  23
ENDBRANCH  17  22
BRANCH  20  25
ATOM     25  O   UNL     1      53.844 157.091  26.198  0.00  0.00    +0.000 OA
BRANCH  25  26
ATOM     26  C   UNL     1      53.800 156.553  24.922  0.00  0.00    +0.000 C 
ATOM     27  C   UNL     1      54.962 155.646  24.630  0.00  0.00    +0.000 C 
ENDBRANCH  25  26
ENDBRANCH  20  25
ENDBRANCH   3  12
BRANCH   5  28
ATOM     28  N   UNL     1      48.290 161.921  30.910  0.00  0.00    +0.000 N 
ATOM     29  H   UNL     1      47.515 161.258  31.173  0.00  0.00    +0.000 HD
ATOM     30  H   UNL     1      48.080 162.949  30.831  0.00  0.00    +0.000 HD
ENDBRANCH   5  28
BRANCH   4  31
ATOM     31  C   UNL     1      48.622 159.903  29.138  0.00  0.00    +0.000 C 
ATOM     32  N   UNL     1      47.671 159.470  28.593  0.00  0.00    +0.000 NA
ENDBRANCH   4  31
TORSDOF 7
ENDMDL
