MODEL 1
REMARK VINA RESULT:    -8.939      0.000      0.000
REMARK INTER + INTRA:         -12.667
REMARK INTER:                 -12.858
REMARK INTRA:                   0.191
REMARK UNBOUND:                 0.191
REMARK  Name = 
REMARK  12 active torsions:
REMARK  status: ('A' for Active; 'I' for Inactive)
REMARK    1  A    between atoms: C_1  and  C_3
REMARK    2  A    between atoms: C_3  and  C_4
REMARK    3  A    between atoms: C_3  and  C_9
REMARK    4  A    between atoms: C_4  and  C_5
REMARK    5  A    between atoms: C_4  and  C_8
REMARK    6  A    between atoms: C_5  and  O_7
REMARK    7  A    between atoms: C_9  and  C_10
REMARK    8  A    between atoms: C_12  and  C_17
REMARK    9  A    between atoms: C_14  and  C_16
REMARK   10  A    between atoms: N_18  and  C_19
REMARK   11  A    between atoms: C_22  and  O_25
REMARK   12  A    between atoms: O_25  and  C_26
REMARK                            x       y       z     vdW  Elec       q    Type
REMARK                         _______ _______ _______ _____ _____    ______ ____
ROOT
ATOM      1  C   UNL     1      52.285 155.636  28.204  0.00  0.00    +0.000 C 
ENDROOT
BRANCH   1   2
ATOM      2  C   UNL     1      51.974 156.897  28.967  0.00  0.00    +0.000 C 
ATOM      3  O   UNL     1      52.944 157.660  29.176  0.00  0.00    +0.000 OA
ATOM      4  N   UNL     1      50.714 157.261  29.443  0.00  0.00    +0.000 N 
ATOM      5  H   UNL     1      49.932 156.568  29.250  0.00  0.00    +0.000 HD
BRANCH   4   6
ATOM      6  C   UNL     1      50.369 158.425  30.151  0.00  0.00    +0.000 A 
ATOM      7  C   UNL     1      51.160 159.533  30.313  0.00  0.00    +0.000 A 
ATOM      8  C   UNL     1      50.715 160.648  31.043  0.00  0.00    +0.000 A 
ATOM      9  C   UNL     1      49.482 160.663  31.613  0.00  0.00    +0.000 A 
ATOM     10  C   UNL     1      48.689 159.559  31.452  0.00  0.00    +0.000 A 
ATOM     11  C   UNL     1      49.113 158.469  30.746  0.00  0.00    +0.000 A 
BRANCH   9  12
ATOM     12  O   UNL     1      48.972 161.739  32.353  0.00  0.00    +0.000 OA
ATOM     13  C   UNL     1      48.673 161.586  33.711  0.00  0.00    +0.000 C 
ENDBRANCH   9  12
ENDBRANCH   4   6
ENDBRANCH   1   2
BRANCH   1  14
ATOM     14  C   UNL     1      51.543 154.510  28.874  0.00  0.00    +0.000 C 
ATOM     15  C   UNL     1      51.391 154.791  30.377  0.00  0.00    +0.000 C 
BRANCH  14  16
ATOM     16  C   UNL     1      52.271 153.249  28.727  0.00  0.00    +0.000 C 
ATOM     17  O   UNL     1      51.648 152.179  28.524  0.00  0.00    +0.000 OA
BRANCH  16  18
ATOM     18  O   UNL     1      53.662 153.164  28.800  0.00  0.00    +0.000 OA
ATOM     19  H   UNL     1      54.194 153.545  28.029  0.00  0.00    +0.000 HD
ENDBRANCH  16  18
ENDBRANCH  14  16
ENDBRANCH   1  14
BRANCH   1  20
ATOM     20  C   UNL     1      51.912 155.863  26.777  0.00  0.00    +0.000 C 
BRANCH  20  21
ATOM     21  C   UNL     1      52.923 155.466  25.804  0.00  0.00    +0.000 A 
ATOM     22  C   UNL     1      53.082 154.166  25.377  0.00  0.00    +0.000 A 
ATOM     23  C   UNL     1      54.045 153.821  24.460  0.00  0.00    +0.000 A 
ATOM     24  C   UNL     1      54.893 154.798  23.937  0.00  0.00    +0.000 A 
ATOM     25  C   UNL     1      54.745 156.101  24.356  0.00  0.00    +0.000 A 
ATOM     26  C   UNL     1      53.775 156.410  25.272  0.00  0.00    +0.000 A 
ATOM     27  C   UNL     1      55.643 157.143  23.804  0.00  0.00    +0.000 C 
ATOM     28  C   UNL     1      54.243 152.435  23.979  0.00  0.00    +0.000 C 
ENDBRANCH  20  21
ENDBRANCH   1  20
TORSDOF 8
ENDMDL
