MODEL 1
REMARK VINA RESULT:    -9.198      0.000      0.000
REMARK INTER + INTRA:         -11.491
REMARK INTER:                 -12.693
REMARK INTRA:                   1.202
REMARK UNBOUND:                 1.202
REMARK  Name = 
REMARK  7 active torsions:
REMARK  status: ('A' for Active; 'I' for Inactive)
REMARK    1  A    between atoms: C_1  and  C_15
REMARK    2  A    between atoms: C_2  and  C_3
REMARK    3  A    between atoms: C_5  and  C_6
REMARK    4  A    between atoms: C_6  and  N_7
REMARK    5  A    between atoms: N_17  and  C_18
REMARK    6  A    between atoms: C_18  and  C_19
REMARK    7  A    between atoms: C_19  and  C_20
REMARK                            x       y       z     vdW  Elec       q    Type
REMARK                         _______ _______ _______ _____ _____    ______ ____
ROOT
ATOM      1  C   UNL     1      53.454 155.232  26.188  0.00  0.00    +0.000 A 
ATOM      2  C   UNL     1      53.686 154.224  25.314  0.00  0.00    +0.000 A 
ATOM      3  C   UNL     1      54.418 154.546  24.155  0.00  0.00    +0.000 A 
ATOM      4  C   UNL     1      54.876 155.825  23.921  0.00  0.00    +0.000 A 
ATOM      5  C   UNL     1      54.624 156.827  24.834  0.00  0.00    +0.000 A 
ATOM      6  N   UNL     1      53.931 156.503  25.922  0.00  0.00    +0.000 NA
ENDROOT
BRANCH   2   7
ATOM      7  C   UNL     1      53.309 152.848  25.544  0.00  0.00    +0.000 A 
ATOM      8  C   UNL     1      53.933 151.752  24.990  0.00  0.00    +0.000 A 
ATOM      9  C   UNL     1      53.590 150.462  25.256  0.00  0.00    +0.000 A 
ATOM     10  C   UNL     1      52.553 150.226  26.135  0.00  0.00    +0.000 A 
ATOM     11  C   UNL     1      51.879 151.299  26.731  0.00  0.00    +0.000 A 
ATOM     12  C   UNL     1      52.257 152.594  26.436  0.00  0.00    +0.000 A 
BRANCH   9  13
ATOM     13  C   UNL     1      54.282 149.288  24.643  0.00  0.00    +0.000 C 
BRANCH  13  14
ATOM     14  N   UNL     1      53.491 148.101  24.741  0.00  0.00    +0.000 NA
ATOM     15  H   UNL     1      52.720 148.284  25.417  0.00  0.00    +0.000 HD
ATOM     16  H   UNL     1      54.118 147.316  25.045  0.00  0.00    +0.000 HD
ENDBRANCH  13  14
ENDBRANCH   9  13
ENDBRANCH   2   7
BRANCH   1  17
ATOM     17  C   UNL     1      52.633 155.050  27.375  0.00  0.00    +0.000 C 
ATOM     18  O   UNL     1      53.169 154.452  28.388  0.00  0.00    +0.000 OA
ATOM     19  N   UNL     1      51.306 155.454  27.572  0.00  0.00    +0.000 N 
ATOM     20  H   UNL     1      50.823 155.995  26.798  0.00  0.00    +0.000 HD
BRANCH  19  21
ATOM     21  C   UNL     1      50.546 155.223  28.805  0.00  0.00    +0.000 C 
BRANCH  21  22
ATOM     22  C   UNL     1      51.172 156.019  29.921  0.00  0.00    +0.000 C 
BRANCH  22  23
ATOM     23  C   UNL     1      50.543 157.382  30.012  0.00  0.00    +0.000 A 
ATOM     24  C   UNL     1      51.343 158.478  29.915  0.00  0.00    +0.000 A 
ATOM     25  C   UNL     1      50.787 159.743  29.996  0.00  0.00    +0.000 A 
ATOM     26  C   UNL     1      49.419 159.866  30.177  0.00  0.00    +0.000 A 
ATOM     27  F   UNL     1      48.893 161.122  30.254  0.00  0.00    +0.000 F 
ATOM     28  C   UNL     1      48.620 158.752  30.274  0.00  0.00    +0.000 A 
ATOM     29  C   UNL     1      49.180 157.503  30.192  0.00  0.00    +0.000 A 
ENDBRANCH  22  23
ENDBRANCH  21  22
ENDBRANCH  19  21
ENDBRANCH   1  17
TORSDOF 7
ENDMDL
