MODEL 1
REMARK VINA RESULT:    -4.257      0.000      0.000
REMARK INTER + INTRA:          -6.074
REMARK INTER:                  -5.999
REMARK INTRA:                  -0.075
REMARK UNBOUND:                -0.075
REMARK  Name = 
REMARK  10 active torsions:
REMARK  status: ('A' for Active; 'I' for Inactive)
REMARK    1  A    between atoms: C_1  and  C_25
REMARK    2  A    between atoms: C_2  and  N_24
REMARK    3  A    between atoms: C_6  and  C_7
REMARK    4  A    between atoms: C_9  and  O_16
REMARK    5  A    between atoms: C_10  and  O_13
REMARK    6  A    between atoms: O_13  and  C_14
REMARK    7  A    between atoms: C_14  and  C_15
REMARK    8  A    between atoms: O_16  and  C_17
REMARK    9  A    between atoms: C_17  and  C_18
REMARK   10  A    between atoms: C_21  and  O_23
REMARK                            x       y       z     vdW  Elec       q    Type
REMARK                         _______ _______ _______ _____ _____    ______ ____
ROOT
ATOM      1  C   UNL     1      49.517 159.475  30.519  0.00  0.00    +0.000 C 
ATOM      2  C   UNL     1      49.308 160.050  31.678  0.00  0.00    +0.000 C 
ATOM      3  O   UNL     1      50.304 160.812  32.263  0.00  0.00    +0.000 OA
ATOM      4  C   UNL     1      51.548 161.005  31.672  0.00  0.00    +0.000 A 
ATOM      5  C   UNL     1      51.779 160.404  30.451  0.00  0.00    +0.000 A 
ATOM      6  C   UNL     1      50.787 159.576  29.748  0.00  0.00    +0.000 C 
ATOM      7  C   UNL     1      53.014 160.593  29.859  0.00  0.00    +0.000 A 
ATOM      8  C   UNL     1      53.988 161.363  30.473  0.00  0.00    +0.000 A 
ATOM      9  C   UNL     1      53.767 161.968  31.693  0.00  0.00    +0.000 A 
ATOM     10  C   UNL     1      52.533 161.775  32.279  0.00  0.00    +0.000 A 
ENDROOT
BRANCH   6  11
ATOM     11  C   UNL     1      51.288 158.212  29.435  0.00  0.00    +0.000 A 
ATOM     12  C   UNL     1      52.177 158.101  28.391  0.00  0.00    +0.000 A 
ATOM     13  C   UNL     1      52.648 156.838  28.094  0.00  0.00    +0.000 A 
ATOM     14  C   UNL     1      52.257 155.707  28.804  0.00  0.00    +0.000 A 
ATOM     15  C   UNL     1      51.367 155.895  29.833  0.00  0.00    +0.000 A 
ATOM     16  C   UNL     1      50.860 157.141  30.177  0.00  0.00    +0.000 A 
BRANCH  14  17
ATOM     17  O   UNL     1      52.739 154.446  28.493  0.00  0.00    +0.000 OA
BRANCH  17  18
ATOM     18  C   UNL     1      51.805 153.446  28.143  0.00  0.00    +0.000 C 
ATOM     19  C   UNL     1      52.110 152.842  26.798  0.00  0.00    +0.000 C 
ENDBRANCH  17  18
ENDBRANCH  14  17
BRANCH  13  20
ATOM     20  O   UNL     1      53.539 156.643  27.066  0.00  0.00    +0.000 OA
BRANCH  20  21
ATOM     21  C   UNL     1      53.086 156.313  25.773  0.00  0.00    +0.000 C 
ATOM     22  C   UNL     1      54.123 155.584  24.976  0.00  0.00    +0.000 C 
ENDBRANCH  20  21
ENDBRANCH  13  20
ENDBRANCH   6  11
BRANCH   2  23
ATOM     23  N   UNL     1      48.043 159.893  32.348  0.00  0.00    +0.000 N 
ATOM     24  H   UNL     1      47.193 159.668  31.768  0.00  0.00    +0.000 HD
ATOM     25  H   UNL     1      47.918 159.986  33.358  0.00  0.00    +0.000 HD
ENDBRANCH   2  23
BRANCH   9  26
ATOM     26  O   UNL     1      54.758 162.744  32.305  0.00  0.00    +0.000 OA
ATOM     27  H   UNL     1      54.558 163.242  33.160  0.00  0.00    +0.000 HD
ENDBRANCH   9  26
BRANCH   1  28
ATOM     28  C   UNL     1      48.438 158.695  29.966  0.00  0.00    +0.000 C 
ATOM     29  N   UNL     1      47.568 158.042  29.515  0.00  0.00    +0.000 NA
ENDBRANCH   1  28
TORSDOF 8
ENDMDL
