MODEL 1
REMARK VINA RESULT:    -8.858      0.000      0.000
REMARK INTER + INTRA:         -14.241
REMARK INTER:                 -13.259
REMARK INTRA:                  -0.982
REMARK UNBOUND:                -0.982
REMARK  Name = 
REMARK  9 active torsions:
REMARK  status: ('A' for Active; 'I' for Inactive)
REMARK    1  A    between atoms: C_1  and  C_3
REMARK    2  A    between atoms: C_1  and  O_10
REMARK    3  A    between atoms: C_3  and  N_4
REMARK    4  A    between atoms: O_10  and  C_11
REMARK    5  A    between atoms: C_11  and  C_12
REMARK    6  A    between atoms: C_17  and  C_19
REMARK    7  A    between atoms: C_19  and  N_20
REMARK    8  A    between atoms: N_20  and  C_21
REMARK    9  A    between atoms: C_21  and  C_22
REMARK                            x       y       z     vdW  Elec       q    Type
REMARK                         _______ _______ _______ _____ _____    ______ ____
ROOT
ATOM      1  C   UNL     1      52.118 156.227  28.701  0.00  0.00    +0.000 C 
ATOM      2  C   UNL     1      51.074 155.425  28.820  0.00  0.00    +0.000 C 
ATOM      3  C   UNL     1      51.351 154.163  28.049  0.00  0.00    +0.000 C 
ATOM      4  C   UNL     1      52.835 154.025  28.400  0.00  0.00    +0.000 C 
ATOM      5  C   UNL     1      53.170 155.425  27.981  0.00  0.00    +0.000 C 
ATOM      6  C   UNL     1      52.648 155.448  26.549  0.00  0.00    +0.000 C 
ATOM      7  C   UNL     1      51.422 154.510  26.605  0.00  0.00    +0.000 C 
ENDROOT
BRANCH   1   8
ATOM      8  C   UNL     1      52.214 157.642  29.070  0.00  0.00    +0.000 C 
BRANCH   8   9
ATOM      9  O   UNL     1      51.108 158.038  29.929  0.00  0.00    +0.000 OA
BRANCH   9  10
ATOM     10  C   UNL     1      50.956 159.393  30.148  0.00  0.00    +0.000 C 
ATOM     11  O   UNL     1      52.020 160.083  30.326  0.00  0.00    +0.000 OA
BRANCH  10  12
ATOM     12  C   UNL     1      49.671 160.079  30.187  0.00  0.00    +0.000 C 
ATOM     13  C   UNL     1      48.568 159.078  30.553  0.00  0.00    +0.000 C 
ATOM     14  C   UNL     1      47.936 159.412  31.848  0.00  0.00    +0.000 C 
ATOM     15  C   UNL     1      48.994 159.505  32.922  0.00  0.00    +0.000 C 
ATOM     16  C   UNL     1      49.894 160.659  32.608  0.00  0.00    +0.000 C 
ATOM     17  C   UNL     1      49.724 161.190  31.214  0.00  0.00    +0.000 C 
BRANCH  12  18
ATOM     18  N   UNL     1      49.244 160.667  28.937  0.00  0.00    +0.000 NA
ATOM     19  H   UNL     1      48.295 160.452  28.635  0.00  0.00    +0.000 HD
ATOM     20  H   UNL     1      49.688 161.530  28.661  0.00  0.00    +0.000 HD
ENDBRANCH  12  18
ENDBRANCH  10  12
ENDBRANCH   9  10
ENDBRANCH   8   9
ENDBRANCH   1   8
BRANCH   6  21
ATOM     21  C   UNL     1      53.648 155.004  25.577  0.00  0.00    +0.000 C 
BRANCH  21  22
ATOM     22  N   UNL     1      53.154 154.003  24.670  0.00  0.00    +0.000 NA
ATOM     23  H   UNL     1      52.313 153.520  24.899  0.00  0.00    +0.000 HD
BRANCH  22  24
ATOM     24  C   UNL     1      54.316 153.180  24.318  0.00  0.00    +0.000 C 
BRANCH  24  25
ATOM     25  C   UNL     1      53.938 151.799  24.723  0.00  0.00    +0.000 A 
ATOM     26  O   UNL     1      54.375 150.713  24.076  0.00  0.00    +0.000 OA
ATOM     27  C   UNL     1      53.929 149.627  24.599  0.00  0.00    +0.000 A 
ATOM     28  C   UNL     1      53.147 149.973  25.661  0.00  0.00    +0.000 A 
ATOM     29  C   UNL     1      53.159 151.371  25.728  0.00  0.00    +0.000 A 
ENDBRANCH  24  25
ENDBRANCH  22  24
ENDBRANCH  21  22
ENDBRANCH   6  21
TORSDOF 9
ENDMDL
