MODEL 1
REMARK VINA RESULT:    -4.619      0.000      0.000
REMARK INTER + INTRA:          -7.997
REMARK INTER:                  -7.995
REMARK INTRA:                  -0.003
REMARK UNBOUND:                -0.003
REMARK  Name = 
REMARK  16 active torsions:
REMARK  status: ('A' for Active; 'I' for Inactive)
REMARK    1  A    between atoms: C_1  and  C_9
REMARK    2  A    between atoms: C_4  and  O_7
REMARK    3  A    between atoms: O_7  and  C_8
REMARK    4  A    between atoms: C_9  and  C_10
REMARK    5  A    between atoms: C_9  and  O_19
REMARK    6  A    between atoms: C_10  and  N_11
REMARK    7  A    between atoms: N_11  and  C_12
REMARK    8  A    between atoms: C_15  and  C_18
REMARK    9  A    between atoms: O_19  and  C_20
REMARK   10  A    between atoms: C_20  and  N_30
REMARK   11  A    between atoms: C_31  and  C_33
REMARK   12  A    between atoms: C_33  and  C_34
REMARK   13  A    between atoms: C_34  and  C_40
REMARK   14  A    between atoms: N_35  and  N_36
REMARK   15  A    between atoms: N_36  and  C_37
REMARK   16  A    between atoms: C_37  and  N_39
REMARK                            x       y       z     vdW  Elec       q    Type
REMARK                         _______ _______ _______ _____ _____    ______ ____
ROOT
ATOM      1  C   UNL     1      50.802 159.628  30.086  0.00  0.00    +0.000 C 
ATOM      2  C   UNL     1      49.529 160.056  29.267  0.00  0.00    +0.000 C 
ATOM      3  C   UNL     1      48.538 158.921  29.256  0.00  0.00    +0.000 C 
ATOM      4  C   UNL     1      48.057 158.699  30.663  0.00  0.00    +0.000 C 
ATOM      5  C   UNL     1      49.266 158.302  31.485  0.00  0.00    +0.000 C 
ATOM      6  C   UNL     1      50.335 159.364  31.462  0.00  0.00    +0.000 C 
ATOM      7  C   UNL     1      49.702 160.581  32.123  0.00  0.00    +0.000 C 
ATOM      8  C   UNL     1      48.550 161.019  31.281  0.00  0.00    +0.000 C 
ATOM      9  C   UNL     1      48.990 161.301  29.860  0.00  0.00    +0.000 C 
ATOM     10  C   UNL     1      47.475 159.980  31.202  0.00  0.00    +0.000 C 
ENDROOT
BRANCH   1  11
ATOM     11  N   UNL     1      51.661 160.773  29.944  0.00  0.00    +0.000 N 
ATOM     12  C   UNL     1      52.518 161.298  30.935  0.00  0.00    +0.000 C 
ATOM     13  O   UNL     1      52.549 160.737  32.049  0.00  0.00    +0.000 OA
ATOM     14  H   UNL     1      51.718 161.306  29.016  0.00  0.00    +0.000 HD
BRANCH  12  15
ATOM     15  C   UNL     1      53.367 162.500  30.644  0.00  0.00    +0.000 C 
BRANCH  15  16
ATOM     16  C   UNL     1      54.768 162.246  30.932  0.00  0.00    +0.000 C 
ATOM     17  N   UNL     1      55.151 162.075  32.148  0.00  0.00    +0.000 NA
ATOM     18  C   UNL     1      55.795 162.169  29.871  0.00  0.00    +0.000 C 
BRANCH  17  19
ATOM     19  N   UNL     1      56.495 161.831  32.417  0.00  0.00    +0.000 N 
ATOM     20  H   UNL     1      57.004 161.104  31.897  0.00  0.00    +0.000 HD
BRANCH  19  21
ATOM     21  C   UNL     1      57.153 162.592  33.410  0.00  0.00    +0.000 C 
ATOM     22  S   UNL     1      58.242 161.853  34.412  0.00  0.00    +0.000 S 
BRANCH  21  23
ATOM     23  N   UNL     1      56.912 163.974  33.573  0.00  0.00    +0.000 N 
ATOM     24  H   UNL     1      56.390 164.312  34.393  0.00  0.00    +0.000 HD
ATOM     25  H   UNL     1      57.260 164.636  32.865  0.00  0.00    +0.000 HD
ENDBRANCH  21  23
ENDBRANCH  19  21
ENDBRANCH  17  19
ENDBRANCH  15  16
ENDBRANCH  12  15
ENDBRANCH   1  11
BRANCH   1  26
ATOM     26  O   UNL     1      51.182 158.512  29.450  0.00  0.00    +0.000 OA
BRANCH  26  27
ATOM     27  C   UNL     1      52.281 157.812  29.513  0.00  0.00    +0.000 C 
BRANCH  27  28
ATOM     28  C   UNL     1      51.975 156.340  29.357  0.00  0.00    +0.000 A 
ATOM     29  C   UNL     1      50.717 155.846  29.470  0.00  0.00    +0.000 A 
ATOM     30  C   UNL     1      50.509 154.490  29.345  0.00  0.00    +0.000 A 
ATOM     31  C   UNL     1      51.535 153.598  29.109  0.00  0.00    +0.000 A 
ATOM     32  C   UNL     1      52.821 154.131  28.998  0.00  0.00    +0.000 A 
ATOM     33  C   UNL     1      53.042 155.511  29.122  0.00  0.00    +0.000 A 
BRANCH  31  34
ATOM     34  O   UNL     1      51.326 152.236  28.984  0.00  0.00    +0.000 OA
ATOM     35  C   UNL     1      51.702 151.570  27.797  0.00  0.00    +0.000 C 
ENDBRANCH  31  34
ENDBRANCH  27  28
BRANCH  27  36
ATOM     36  C   UNL     1      53.144 158.065  28.228  0.00  0.00    +0.000 C 
BRANCH  36  37
ATOM     37  N   UNL     1      52.424 157.684  27.045  0.00  0.00    +0.000 N 
ATOM     38  H   UNL     1      51.502 158.058  26.773  0.00  0.00    +0.000 HD
BRANCH  37  39
ATOM     39  C   UNL     1      53.051 156.720  26.205  0.00  0.00    +0.000 A 
ATOM     40  C   UNL     1      52.460 155.496  26.021  0.00  0.00    +0.000 A 
ATOM     41  C   UNL     1      52.998 154.522  25.222  0.00  0.00    +0.000 A 
ATOM     42  C   UNL     1      54.199 154.812  24.578  0.00  0.00    +0.000 A 
ATOM     43  C   UNL     1      54.819 156.037  24.745  0.00  0.00    +0.000 A 
ATOM     44  C   UNL     1      54.232 156.972  25.558  0.00  0.00    +0.000 A 
ATOM     45  C   UNL     1      54.822 153.813  23.703  0.00  0.00    +0.000 C 
ENDBRANCH  37  39
ENDBRANCH  36  37
ENDBRANCH  27  36
ENDBRANCH  26  27
ENDBRANCH   1  26
TORSDOF 13
ENDMDL
