MODEL 1
REMARK VINA RESULT:   -10.424      0.000      0.000
REMARK INTER + INTRA:         -13.757
REMARK INTER:                 -13.166
REMARK INTRA:                  -0.590
REMARK UNBOUND:                -0.590
REMARK  Name = 
REMARK  5 active torsions:
REMARK  status: ('A' for Active; 'I' for Inactive)
REMARK    1  A    between atoms: N_1  and  C_12
REMARK    2  A    between atoms: C_12  and  C_13
REMARK    3  A    between atoms: N_15  and  C_16
REMARK    4  A    between atoms: C_17  and  C_18
REMARK    5  A    between atoms: C_18  and  O_20
REMARK                            x       y       z     vdW  Elec       q    Type
REMARK                         _______ _______ _______ _____ _____    ______ ____
ROOT
ATOM      1  C   UNL     1      50.555 156.303  29.757  0.00  0.00    +0.000 C 
ATOM      2  O   UNL     1      49.412 156.039  29.336  0.00  0.00    +0.000 OA
ATOM      3  N   UNL     1      50.824 157.591  30.281  0.00  0.00    +0.000 N 
ATOM      4  H   UNL     1      51.816 157.701  30.626  0.00  0.00    +0.000 HD
ENDROOT
BRANCH   3   5
ATOM      5  C   UNL     1      49.939 158.674  30.412  0.00  0.00    +0.000 A 
ATOM      6  C   UNL     1      50.391 159.959  30.488  0.00  0.00    +0.000 A 
ATOM      7  C   UNL     1      49.460 161.005  30.690  0.00  0.00    +0.000 A 
ATOM      8  C   UNL     1      48.116 160.777  30.812  0.00  0.00    +0.000 A 
ATOM      9  C   UNL     1      47.660 159.496  30.736  0.00  0.00    +0.000 A 
ATOM     10  C   UNL     1      48.560 158.465  30.540  0.00  0.00    +0.000 A 
BRANCH   6  11
ATOM     11  C   UNL     1      51.783 160.305  30.317  0.00  0.00    +0.000 C 
ATOM     12  O   UNL     1      52.116 161.517  30.671  0.00  0.00    +0.000 OA
BRANCH  11  13
ATOM     13  O   UNL     1      52.807 159.537  29.832  0.00  0.00    +0.000 OA
ATOM     14  H   UNL     1      53.267 159.829  28.983  0.00  0.00    +0.000 HD
ENDBRANCH  11  13
ENDBRANCH   6  11
ENDBRANCH   3   5
BRANCH   1  15
ATOM     15  C   UNL     1      51.636 155.257  29.705  0.00  0.00    +0.000 C 
BRANCH  15  16
ATOM     16  N   UNL     1      52.123 155.056  28.362  0.00  0.00    +0.000 N 
ATOM     17  C   UNL     1      52.599 156.139  27.558  0.00  0.00    +0.000 C 
ATOM     18  O   UNL     1      52.791 157.322  27.936  0.00  0.00    +0.000 OA
ATOM     19  C   UNL     1      52.811 155.571  26.211  0.00  0.00    +0.000 C 
ATOM     20  C   UNL     1      53.207 154.150  26.554  0.00  0.00    +0.000 C 
ATOM     21  C   UNL     1      52.228 153.835  27.609  0.00  0.00    +0.000 C 
ATOM     22  O   UNL     1      51.578 152.800  27.891  0.00  0.00    +0.000 OA
ATOM     23  C   UNL     1      53.114 153.284  25.343  0.00  0.00    +0.000 C 
ATOM     24  C   UNL     1      53.581 154.130  24.150  0.00  0.00    +0.000 C 
ATOM     25  C   UNL     1      54.589 155.150  24.632  0.00  0.00    +0.000 C 
ATOM     26  C   UNL     1      53.908 156.260  25.445  0.00  0.00    +0.000 C 
ENDBRANCH  15  16
ENDBRANCH   1  15
TORSDOF 5
ENDMDL
