MODEL 1
REMARK VINA RESULT:    -8.108      0.000      0.000
REMARK INTER + INTRA:          -9.835
REMARK INTER:                 -10.004
REMARK INTRA:                   0.169
REMARK UNBOUND:                 0.169
REMARK  Name = 
REMARK  4 active torsions:
REMARK  status: ('A' for Active; 'I' for Inactive)
REMARK    1  A    between atoms: C_1  and  C_15
REMARK    2  A    between atoms: C_2  and  C_8
REMARK    3  A    between atoms: C_18  and  C_20
REMARK    4  A    between atoms: C_20  and  N_21
REMARK                            x       y       z     vdW  Elec       q    Type
REMARK                         _______ _______ _______ _____ _____    ______ ____
ROOT
ATOM      1  C   UNL     1      52.031 153.711  27.379  0.00  0.00    +0.000 A 
ATOM      2  C   UNL     1      52.666 153.427  26.185  0.00  0.00    +0.000 A 
ATOM      3  C   UNL     1      52.846 152.143  25.750  0.00  0.00    +0.000 A 
ATOM      4  N   UNL     1      52.395 151.108  26.507  0.00  0.00    +0.000 NA
ATOM      5  C   UNL     1      51.782 151.371  27.672  0.00  0.00    +0.000 A 
ATOM      6  N   UNL     1      51.607 152.649  28.097  0.00  0.00    +0.000 NA
ATOM      7  N   UNL     1      51.269 150.267  28.424  0.00  0.00    +0.000 N 
ATOM      8  H   UNL     1      51.160 150.249  29.463  0.00  0.00    +0.000 HD
ATOM      9  H   UNL     1      50.973 149.394  27.921  0.00  0.00    +0.000 HD
ENDROOT
BRANCH   1  10
ATOM     10  C   UNL     1      51.593 155.070  27.765  0.00  0.00    +0.000 C 
ATOM     11  C   UNL     1      52.451 155.685  28.826  0.00  0.00    +0.000 C 
ATOM     12  N   UNL     1      51.727 156.738  29.595  0.00  0.00    +0.000 N 
ATOM     13  C   UNL     1      52.104 158.063  29.476  0.00  0.00    +0.000 C 
ATOM     14  O   UNL     1      52.991 158.278  28.543  0.00  0.00    +0.000 OA
ATOM     15  C   UNL     1      50.648 156.208  30.359  0.00  0.00    +0.000 C 
ATOM     16  C   UNL     1      49.619 155.831  29.251  0.00  0.00    +0.000 C 
ATOM     17  C   UNL     1      50.196 154.758  28.438  0.00  0.00    +0.000 C 
BRANCH  13  18
ATOM     18  C   UNL     1      51.707 159.241  30.214  0.00  0.00    +0.000 C 
BRANCH  18  19
ATOM     19  N   UNL     1      50.313 159.359  30.529  0.00  0.00    +0.000 NA
ATOM     20  C   UNL     1      50.174 160.029  31.829  0.00  0.00    +0.000 C 
ATOM     21  C   UNL     1      49.392 161.269  31.702  0.00  0.00    +0.000 C 
ATOM     22  C   UNL     1      48.709 161.138  30.362  0.00  0.00    +0.000 C 
ATOM     23  C   UNL     1      49.668 160.297  29.583  0.00  0.00    +0.000 C 
ENDBRANCH  18  19
ENDBRANCH  13  18
ENDBRANCH   1  10
BRANCH   2  24
ATOM     24  C   UNL     1      53.317 154.534  25.526  0.00  0.00    +0.000 A 
ATOM     25  C   UNL     1      54.484 154.223  24.857  0.00  0.00    +0.000 A 
ATOM     26  C   UNL     1      55.262 155.136  24.230  0.00  0.00    +0.000 A 
ATOM     27  C   UNL     1      54.892 156.440  24.245  0.00  0.00    +0.000 A 
ATOM     28  C   UNL     1      53.728 156.814  24.905  0.00  0.00    +0.000 A 
ATOM     29  C   UNL     1      52.947 155.834  25.548  0.00  0.00    +0.000 A 
ATOM     30  F   UNL     1      55.645 157.412  23.624  0.00  0.00    +0.000 F 
ENDBRANCH   2  24
TORSDOF 4
ENDMDL
