MODEL 1
REMARK VINA RESULT:    -9.545      0.000      0.000
REMARK INTER + INTRA:         -13.044
REMARK INTER:                 -12.613
REMARK INTRA:                  -0.430
REMARK UNBOUND:                -0.430
REMARK  Name = 
REMARK  6 active torsions:
REMARK  status: ('A' for Active; 'I' for Inactive)
REMARK    1  A    between atoms: N_1  and  C_18
REMARK    2  A    between atoms: C_5  and  S_8
REMARK    3  A    between atoms: S_8  and  C_9
REMARK    4  A    between atoms: C_10  and  C_11
REMARK    5  A    between atoms: C_11  and  O_13
REMARK    6  A    between atoms: C_20  and  C_21
REMARK                            x       y       z     vdW  Elec       q    Type
REMARK                         _______ _______ _______ _____ _____    ______ ____
ROOT
ATOM      1  N   UNL     1      51.330 156.211  29.174  0.00  0.00    +0.000 N 
ATOM      2  C   UNL     1      51.407 154.916  29.755  0.00  0.00    +0.000 C 
ATOM      3  O   UNL     1      50.961 154.510  30.862  0.00  0.00    +0.000 OA
ATOM      4  C   UNL     1      52.140 154.065  28.790  0.00  0.00    +0.000 C 
ATOM      5  C   UNL     1      51.975 154.785  27.491  0.00  0.00    +0.000 C 
ATOM      6  C   UNL     1      51.983 156.199  27.901  0.00  0.00    +0.000 C 
ATOM      7  O   UNL     1      52.429 157.216  27.338  0.00  0.00    +0.000 OA
ENDROOT
BRANCH   1   8
ATOM      8  C   UNL     1      50.703 157.358  29.765  0.00  0.00    +0.000 A 
ATOM      9  C   UNL     1      51.404 158.529  30.041  0.00  0.00    +0.000 A 
ATOM     10  C   UNL     1      50.797 159.620  30.622  0.00  0.00    +0.000 A 
ATOM     11  C   UNL     1      49.457 159.603  30.957  0.00  0.00    +0.000 A 
ATOM     12  C   UNL     1      48.740 158.446  30.691  0.00  0.00    +0.000 A 
ATOM     13  C   UNL     1      49.364 157.352  30.105  0.00  0.00    +0.000 A 
ATOM     14 CL   UNL     1      48.665 160.977  31.699  0.00  0.00    +0.000 Cl
BRANCH  10  15
ATOM     15  C   UNL     1      51.604 160.840  30.889  0.00  0.00    +0.000 C 
ATOM     16  F   UNL     1      51.074 161.942  30.225  0.00  0.00    +0.000 F 
ATOM     17  F   UNL     1      52.865 160.657  30.342  0.00  0.00    +0.000 F 
ATOM     18  F   UNL     1      51.713 161.067  32.240  0.00  0.00    +0.000 F 
ENDBRANCH  10  15
ENDBRANCH   1   8
BRANCH   5  19
ATOM     19  S   UNL     1      53.212 154.407  26.244  0.00  0.00    +0.000 S 
BRANCH  19  20
ATOM     20  C   UNL     1      53.292 152.664  25.888  0.00  0.00    +0.000 A 
ATOM     21  C   UNL     1      54.242 152.193  24.993  0.00  0.00    +0.000 A 
ATOM     22  C   UNL     1      54.257 150.860  24.711  0.00  0.00    +0.000 A 
ATOM     23  C   UNL     1      53.336 150.030  25.323  0.00  0.00    +0.000 A 
ATOM     24  C   UNL     1      52.410 150.530  26.205  0.00  0.00    +0.000 A 
ATOM     25  N   UNL     1      52.402 151.849  26.476  0.00  0.00    +0.000 NA
BRANCH  21  26
ATOM     26  C   UNL     1      55.224 153.110  24.401  0.00  0.00    +0.000 C 
ATOM     27  O   UNL     1      55.035 153.672  23.296  0.00  0.00    +0.000 OA
BRANCH  26  28
ATOM     28  O   UNL     1      56.411 153.387  25.058  0.00  0.00    +0.000 OA
ATOM     29  H   UNL     1      56.469 153.347  26.071  0.00  0.00    +0.000 HD
ENDBRANCH  26  28
ENDBRANCH  21  26
ENDBRANCH  19  20
ENDBRANCH   5  19
TORSDOF 6
ENDMDL
