MODEL 1
REMARK VINA RESULT:    -1.817      0.000      0.000
REMARK INTER + INTRA:          -1.400
REMARK INTER:                  -2.507
REMARK INTRA:                   1.108
REMARK UNBOUND:                 1.108
REMARK  Name = 
REMARK  10 active torsions:
REMARK  status: ('A' for Active; 'I' for Inactive)
REMARK    1  A    between atoms: C_3  and  C_10
REMARK    2  A    between atoms: C_4  and  C_8
REMARK    3  A    between atoms: C_5  and  N_7
REMARK    4  A    between atoms: C_11  and  O_18
REMARK    5  A    between atoms: C_12  and  O_13
REMARK    6  A    between atoms: O_13  and  C_14
REMARK    7  A    between atoms: O_18  and  C_19
REMARK    8  A    between atoms: C_20  and  C_23
REMARK    9  A    between atoms: C_23  and  C_24
REMARK   10  A    between atoms: C_24  and  C_25
REMARK                            x       y       z     vdW  Elec       q    Type
REMARK                         _______ _______ _______ _____ _____    ______ ____
ROOT
ATOM      1  C   UNL     1      51.595 151.761  28.370  0.00  0.00    +0.000 A 
ATOM      2  C   UNL     1      52.164 151.966  27.139  0.00  0.00    +0.000 A 
ATOM      3  C   UNL     1      52.563 153.309  26.763  0.00  0.00    +0.000 C 
ATOM      4  C   UNL     1      52.364 154.308  27.822  0.00  0.00    +0.000 C 
ATOM      5  C   UNL     1      51.845 154.050  28.970  0.00  0.00    +0.000 C 
ATOM      6  O   UNL     1      51.423 152.779  29.318  0.00  0.00    +0.000 OA
ATOM      7  C   UNL     1      52.162 150.731  26.468  0.00  0.00    +0.000 A 
ATOM      8  N   UNL     1      51.582 149.846  27.342  0.00  0.00    +0.000 N 
ATOM      9  N   UNL     1      51.256 150.446  28.444  0.00  0.00    +0.000 NA
ATOM     10  H   UNL     1      51.460 148.835  27.064  0.00  0.00    +0.000 HD
ENDROOT
BRANCH   3  11
ATOM     11  C   UNL     1      53.801 153.555  26.021  0.00  0.00    +0.000 A 
ATOM     12  C   UNL     1      53.869 154.630  25.158  0.00  0.00    +0.000 A 
ATOM     13  C   UNL     1      55.057 154.919  24.474  0.00  0.00    +0.000 A 
ATOM     14  C   UNL     1      56.183 154.145  24.641  0.00  0.00    +0.000 A 
ATOM     15  C   UNL     1      56.087 153.082  25.505  0.00  0.00    +0.000 A 
ATOM     16  C   UNL     1      54.930 152.800  26.172  0.00  0.00    +0.000 A 
BRANCH  13  17
ATOM     17  O   UNL     1      55.133 155.997  23.605  0.00  0.00    +0.000 OA
ATOM     18  C   UNL     1      55.133 157.332  23.991  0.00  0.00    +0.000 C 
ENDBRANCH  13  17
BRANCH  12  19
ATOM     19  O   UNL     1      52.831 155.485  24.905  0.00  0.00    +0.000 OA
ATOM     20  C   UNL     1      51.706 155.366  24.133  0.00  0.00    +0.000 C 
ENDBRANCH  12  19
ENDBRANCH   3  11
BRANCH   5  21
ATOM     21  N   UNL     1      51.682 155.106  29.954  0.00  0.00    +0.000 N 
ATOM     22  H   UNL     1      50.760 155.400  30.290  0.00  0.00    +0.000 HD
ATOM     23  H   UNL     1      52.536 155.562  30.314  0.00  0.00    +0.000 HD
ENDBRANCH   5  21
BRANCH   4  24
ATOM     24  C   UNL     1      52.770 155.695  27.584  0.00  0.00    +0.000 C 
ATOM     25  N   UNL     1      53.079 156.808  27.407  0.00  0.00    +0.000 NA
ENDBRANCH   4  24
BRANCH   7  26
ATOM     26  C   UNL     1      52.738 150.349  25.181  0.00  0.00    +0.000 C 
BRANCH  26  27
ATOM     27  C   UNL     1      53.244 148.937  25.136  0.00  0.00    +0.000 C 
ATOM     28  C   UNL     1      54.632 148.712  24.661  0.00  0.00    +0.000 C 
ENDBRANCH  26  27
ENDBRANCH   7  26
TORSDOF 7
ENDMDL
