MODEL 1
REMARK VINA RESULT:    -8.369      0.000      0.000
REMARK INTER + INTRA:         -13.391
REMARK INTER:                 -13.261
REMARK INTRA:                  -0.130
REMARK UNBOUND:                -0.130
REMARK  Name = 
REMARK  15 active torsions:
REMARK  status: ('A' for Active; 'I' for Inactive)
REMARK    1  A    between atoms: C_1  and  C_10
REMARK    2  A    between atoms: C_3  and  C_9
REMARK    3  A    between atoms: C_4  and  C_7
REMARK    4  A    between atoms: C_5  and  C_6
REMARK    5  A    between atoms: C_10  and  O_12
REMARK    6  A    between atoms: O_12  and  C_13
REMARK    7  A    between atoms: C_13  and  C_14
REMARK    8  A    between atoms: C_14  and  C_15
REMARK    9  A    between atoms: C_16  and  O_28
REMARK   10  A    between atoms: C_17  and  O_26
REMARK   11  A    between atoms: C_20  and  N_21
REMARK   12  A    between atoms: C_22  and  C_24
REMARK   13  A    between atoms: C_24  and  C_25
REMARK   14  A    between atoms: O_26  and  C_27
REMARK   15  A    between atoms: O_28  and  C_29
REMARK                            x       y       z     vdW  Elec       q    Type
REMARK                         _______ _______ _______ _____ _____    ______ ____
ROOT
ATOM      1  C   UNL     1      50.922 160.210  30.459  0.00  0.00    +0.000 A 
ATOM      2  C   UNL     1      49.532 160.073  30.417  0.00  0.00    +0.000 A 
ATOM      3  C   UNL     1      48.750 160.774  31.296  0.00  0.00    +0.000 A 
ATOM      4  C   UNL     1      49.362 161.602  32.207  0.00  0.00    +0.000 A 
ATOM      5  C   UNL     1      50.752 161.733  32.242  0.00  0.00    +0.000 A 
ATOM      6  C   UNL     1      51.567 161.044  31.373  0.00  0.00    +0.000 A 
ENDROOT
BRANCH   6   7
ATOM      7  N   UNL     1      52.980 161.111  31.402  0.00  0.00    +0.000 N 
ATOM      8  C   UNL     1      53.747 162.113  30.789  0.00  0.00    +0.000 C 
ATOM      9  O   UNL     1      53.237 163.037  30.158  0.00  0.00    +0.000 OA
ATOM     10  H   UNL     1      53.490 160.342  31.950  0.00  0.00    +0.000 HD
BRANCH   8  11
ATOM     11  C   UNL     1      55.247 162.008  30.940  0.00  0.00    +0.000 C 
ATOM     12  C   UNL     1      55.656 162.017  32.374  0.00  0.00    +0.000 C 
ENDBRANCH   8  11
ENDBRANCH   6   7
BRANCH   3  13
ATOM     13  O   UNL     1      47.373 160.615  31.229  0.00  0.00    +0.000 OA
ATOM     14  C   UNL     1      46.663 159.737  32.074  0.00  0.00    +0.000 C 
ENDBRANCH   3  13
BRANCH   2  15
ATOM     15  O   UNL     1      48.921 159.231  29.490  0.00  0.00    +0.000 OA
ATOM     16  C   UNL     1      48.644 157.906  29.955  0.00  0.00    +0.000 C 
ENDBRANCH   2  15
BRANCH   1  17
ATOM     17  C   UNL     1      51.658 159.405  29.454  0.00  0.00    +0.000 C 
BRANCH  17  18
ATOM     18  C   UNL     1      51.870 157.986  29.919  0.00  0.00    +0.000 C 
BRANCH  18  19
ATOM     19  O   UNL     1      52.079 157.092  28.871  0.00  0.00    +0.000 OA
BRANCH  19  20
ATOM     20  C   UNL     1      51.856 155.739  28.902  0.00  0.00    +0.000 C 
ATOM     21  O   UNL     1      51.316 155.244  29.916  0.00  0.00    +0.000 OA
BRANCH  20  22
ATOM     22  C   UNL     1      52.217 154.842  27.807  0.00  0.00    +0.000 A 
ATOM     23  N   UNL     1      52.044 153.512  27.773  0.00  0.00    +0.000 N 
ATOM     24  C   UNL     1      52.491 152.995  26.610  0.00  0.00    +0.000 A 
ATOM     25  C   UNL     1      52.972 154.035  25.862  0.00  0.00    +0.000 A 
ATOM     26  C   UNL     1      52.805 155.182  26.596  0.00  0.00    +0.000 A 
ATOM     27  C   UNL     1      53.180 156.539  26.180  0.00  0.00    +0.000 C 
ATOM     28  C   UNL     1      52.435 151.554  26.282  0.00  0.00    +0.000 C 
ATOM     29  H   UNL     1      51.614 152.949  28.561  0.00  0.00    +0.000 HD
BRANCH  25  30
ATOM     30  C   UNL     1      53.547 153.895  24.527  0.00  0.00    +0.000 C 
ATOM     31  O   UNL     1      54.806 153.808  24.454  0.00  0.00    +0.000 OA
ENDBRANCH  25  30
ENDBRANCH  20  22
ENDBRANCH  19  20
ENDBRANCH  18  19
ENDBRANCH  17  18
ENDBRANCH   1  17
TORSDOF 10
ENDMDL
