MODEL 1
REMARK VINA RESULT:    -4.123      0.000      0.000
REMARK INTER + INTRA:          -9.614
REMARK INTER:                  -7.619
REMARK INTRA:                  -1.995
REMARK UNBOUND:                -1.995
REMARK  Name = 
REMARK  19 active torsions:
REMARK  status: ('A' for Active; 'I' for Inactive)
REMARK    1  A    between atoms: C_1  and  N_3
REMARK    2  A    between atoms: C_1  and  N_13
REMARK    3  A    between atoms: N_3  and  C_4
REMARK    4  A    between atoms: C_7  and  O_10
REMARK    5  A    between atoms: O_10  and  C_11
REMARK    6  A    between atoms: C_11  and  C_12
REMARK    7  A    between atoms: N_13  and  C_14
REMARK    8  A    between atoms: N_13  and  C_15
REMARK    9  A    between atoms: C_15  and  C_16
REMARK   10  A    between atoms: C_16  and  C_17
REMARK   11  A    between atoms: C_16  and  C_32
REMARK   12  A    between atoms: C_17  and  N_18
REMARK   13  A    between atoms: C_17  and  C_24
REMARK   14  A    between atoms: C_19  and  O_21
REMARK   15  A    between atoms: O_21  and  C_22
REMARK   16  A    between atoms: C_22  and  C_23
REMARK   17  A    between atoms: C_27  and  O_30
REMARK   18  A    between atoms: O_30  and  C_31
REMARK   19  A    between atoms: C_32  and  O_34
REMARK                            x       y       z     vdW  Elec       q    Type
REMARK                         _______ _______ _______ _____ _____    ______ ____
ROOT
ATOM      1  C   UNL     1      50.594 160.317  30.134  0.00  0.00    +0.000 C 
ENDROOT
BRANCH   1   2
ATOM      2  C   UNL     1      49.220 160.478  29.575  0.00  0.00    +0.000 C 
ATOM      3  O   UNL     1      49.046 161.008  28.466  0.00  0.00    +0.000 OA
BRANCH   2   4
ATOM      4  O   UNL     1      48.143 160.032  30.304  0.00  0.00    +0.000 OA
ATOM      5  H   UNL     1      47.280 160.591  30.320  0.00  0.00    +0.000 HD
ENDBRANCH   2   4
ENDBRANCH   1   2
BRANCH   1   6
ATOM      6  C   UNL     1      50.798 158.944  30.664  0.00  0.00    +0.000 C 
BRANCH   6   7
ATOM      7  N   UNL     1      51.530 158.055  29.842  0.00  0.00    +0.000 N 
ATOM      8  C   UNL     1      52.702 158.489  29.139  0.00  0.00    +0.000 C 
BRANCH   7   9
ATOM      9  C   UNL     1      51.051 156.696  29.684  0.00  0.00    +0.000 C 
ATOM     10  S   UNL     1      49.461 156.408  29.680  0.00  0.00    +0.000 S 
BRANCH   9  11
ATOM     11  N   UNL     1      52.017 155.685  29.516  0.00  0.00    +0.000 N 
ATOM     12  H   UNL     1      52.652 155.462  30.376  0.00  0.00    +0.000 HD
BRANCH  11  13
ATOM     13  C   UNL     1      52.266 154.908  28.369  0.00  0.00    +0.000 A 
ATOM     14  C   UNL     1      52.774 155.575  27.247  0.00  0.00    +0.000 A 
ATOM     15  C   UNL     1      53.057 154.878  26.097  0.00  0.00    +0.000 A 
ATOM     16  C   UNL     1      52.853 153.520  26.011  0.00  0.00    +0.000 A 
ATOM     17  C   UNL     1      52.354 152.862  27.109  0.00  0.00    +0.000 A 
ATOM     18  C   UNL     1      52.064 153.559  28.280  0.00  0.00    +0.000 A 
BRANCH  16  19
ATOM     19  O   UNL     1      53.118 152.782  24.891  0.00  0.00    +0.000 OA
BRANCH  19  20
ATOM     20  C   UNL     1      54.333 152.118  24.607  0.00  0.00    +0.000 C 
ATOM     21  C   UNL     1      54.225 150.633  24.612  0.00  0.00    +0.000 C 
ENDBRANCH  19  20
ENDBRANCH  16  19
ENDBRANCH  11  13
ENDBRANCH   9  11
ENDBRANCH   7   9
ENDBRANCH   6   7
ENDBRANCH   1   6
BRANCH   1  22
ATOM     22  C   UNL     1      50.768 161.385  31.144  0.00  0.00    +0.000 C 
BRANCH  22  23
ATOM     23  C   UNL     1      52.265 161.614  31.253  0.00  0.00    +0.000 A 
ATOM     24  C   UNL     1      52.916 161.201  32.373  0.00  0.00    +0.000 A 
ATOM     25  C   UNL     1      54.292 161.415  32.465  0.00  0.00    +0.000 A 
ATOM     26  C   UNL     1      55.013 162.027  31.463  0.00  0.00    +0.000 A 
ATOM     27  C   UNL     1      54.311 162.435  30.333  0.00  0.00    +0.000 A 
ATOM     28  C   UNL     1      52.935 162.225  30.234  0.00  0.00    +0.000 A 
BRANCH  26  29
ATOM     29  O   UNL     1      56.385 162.224  31.588  0.00  0.00    +0.000 OA
ATOM     30  C   UNL     1      56.945 162.148  32.874  0.00  0.00    +0.000 C 
ENDBRANCH  26  29
ENDBRANCH  22  23
BRANCH  22  31
ATOM     31  N   UNL     1      50.351 161.098  32.487  0.00  0.00    +0.000 N 
ATOM     32  C   UNL     1      49.210 161.719  33.059  0.00  0.00    +0.000 C 
ATOM     33  O   UNL     1      48.564 162.539  32.348  0.00  0.00    +0.000 OA
ATOM     34  H   UNL     1      50.889 160.430  33.065  0.00  0.00    +0.000 HD
BRANCH  32  35
ATOM     35  O   UNL     1      48.751 161.503  34.330  0.00  0.00    +0.000 OA
BRANCH  35  36
ATOM     36  C   UNL     1      47.501 161.915  34.842  0.00  0.00    +0.000 C 
ATOM     37  C   UNL     1      47.573 162.920  35.939  0.00  0.00    +0.000 C 
ENDBRANCH  35  36
ENDBRANCH  32  35
ENDBRANCH  22  31
ENDBRANCH   1  22
TORSDOF 15
ENDMDL
