MODEL 1
REMARK VINA RESULT:    -8.294      0.000      0.000
REMARK INTER + INTRA:         -10.967
REMARK INTER:                 -10.718
REMARK INTRA:                  -0.249
REMARK UNBOUND:                -0.249
REMARK  Name = 
REMARK  8 active torsions:
REMARK  status: ('A' for Active; 'I' for Inactive)
REMARK    1  A    between atoms: N_2  and  C_15
REMARK    2  A    between atoms: C_5  and  C_6
REMARK    3  A    between atoms: C_15  and  C_16
REMARK    4  A    between atoms: C_16  and  N_17
REMARK    5  A    between atoms: C_18  and  C_20
REMARK    6  A    between atoms: C_20  and  C_21
REMARK    7  A    between atoms: C_20  and  C_22
REMARK    8  A    between atoms: C_20  and  C_23
REMARK                            x       y       z     vdW  Elec       q    Type
REMARK                         _______ _______ _______ _____ _____    ______ ____
ROOT
ATOM      1  N   UNL     1      52.786 153.603  27.509  0.00  0.00    +0.000 NA
ATOM      2  N   UNL     1      52.495 154.926  27.467  0.00  0.00    +0.000 N 
ATOM      3  C   UNL     1      53.125 155.423  26.435  0.00  0.00    +0.000 A 
ATOM      4  C   UNL     1      53.827 154.423  25.792  0.00  0.00    +0.000 A 
ATOM      5  C   UNL     1      53.610 153.248  26.467  0.00  0.00    +0.000 A 
ATOM      6  C   UNL     1      54.664 154.655  24.707  0.00  0.00    +0.000 A 
ATOM      7  C   UNL     1      54.783 155.956  24.274  0.00  0.00    +0.000 A 
ATOM      8  C   UNL     1      54.080 156.935  24.920  0.00  0.00    +0.000 A 
ATOM      9  N   UNL     1      53.260 156.695  25.982  0.00  0.00    +0.000 NA
ENDROOT
BRANCH   5  10
ATOM     10  C   UNL     1      53.818 151.840  26.147  0.00  0.00    +0.000 C 
ATOM     11  C   UNL     1      54.966 151.472  25.259  0.00  0.00    +0.000 C 
ATOM     12  N   UNL     1      54.267 150.653  24.217  0.00  0.00    +0.000 NA
ATOM     13  C   UNL     1      53.271 149.905  24.978  0.00  0.00    +0.000 C 
ATOM     14  C   UNL     1      52.784 150.829  26.085  0.00  0.00    +0.000 C 
ATOM     15  H   UNL     1      53.781 151.308  23.553  0.00  0.00    +0.000 HD
ENDBRANCH   5  10
BRANCH   2  16
ATOM     16  C   UNL     1      51.536 155.437  28.415  0.00  0.00    +0.000 C 
BRANCH  16  17
ATOM     17  C   UNL     1      52.078 156.502  29.365  0.00  0.00    +0.000 C 
BRANCH  17  18
ATOM     18  N   UNL     1      50.973 157.356  29.752  0.00  0.00    +0.000 N 
ATOM     19  C   UNL     1      50.901 158.719  30.011  0.00  0.00    +0.000 C 
ATOM     20  O   UNL     1      51.935 159.409  29.936  0.00  0.00    +0.000 OA
ATOM     21  H   UNL     1      50.014 156.842  29.894  0.00  0.00    +0.000 HD
BRANCH  19  22
ATOM     22  C   UNL     1      49.610 159.381  30.364  0.00  0.00    +0.000 C 
ATOM     23  C   UNL     1      49.835 159.900  31.804  0.00  0.00    +0.000 C 
ATOM     24  C   UNL     1      48.408 158.547  30.323  0.00  0.00    +0.000 C 
ATOM     25  C   UNL     1      49.459 160.660  29.544  0.00  0.00    +0.000 C 
ENDBRANCH  19  22
ENDBRANCH  17  18
ENDBRANCH  16  17
ENDBRANCH   2  16
TORSDOF 5
ENDMDL
