MODEL 1
REMARK VINA RESULT:    -0.978      0.000      0.000
REMARK INTER + INTRA:           0.691
REMARK INTER:                  -1.522
REMARK INTRA:                   2.213
REMARK UNBOUND:                 2.213
REMARK  Name = 
REMARK  10 active torsions:
REMARK  status: ('A' for Active; 'I' for Inactive)
REMARK    1  A    between atoms: C_2  and  C_12
REMARK    2  A    between atoms: C_5  and  S_6
REMARK    3  A    between atoms: S_6  and  C_7
REMARK    4  A    between atoms: C_7  and  C_8
REMARK    5  A    between atoms: C_8  and  C_9
REMARK    6  A    between atoms: C_9  and  O_11
REMARK    7  A    between atoms: C_18  and  N_19
REMARK    8  A    between atoms: N_19  and  C_25
REMARK    9  A    between atoms: C_20  and  C_22
REMARK   10  A    between atoms: C_22  and  C_23
REMARK                            x       y       z     vdW  Elec       q    Type
REMARK                         _______ _______ _______ _____ _____    ______ ____
ROOT
ATOM      1  C   UNL     1      52.133 160.346  30.447  0.00  0.00    +0.000 A 
ATOM      2  C   UNL     1      53.515 160.571  30.261  0.00  0.00    +0.000 A 
ATOM      3  C   UNL     1      54.101 161.789  30.500  0.00  0.00    +0.000 A 
ATOM      4 CL   UNL     1      55.837 162.016  30.251  0.00  0.00    +0.000 Cl
ATOM      5  C   UNL     1      53.303 162.820  30.937  0.00  0.00    +0.000 A 
ATOM      6  C   UNL     1      51.932 162.605  31.125  0.00  0.00    +0.000 A 
ATOM      7  C   UNL     1      51.358 161.381  30.881  0.00  0.00    +0.000 A 
ENDROOT
BRANCH   1   9
ATOM      8  O   UNL     1      52.214 158.057  29.495  0.00  0.00    +0.000 OA
ATOM      9  C   UNL     1      51.617 159.024  30.162  0.00  0.00    +0.000 A 
ATOM     10  N   UNL     1      50.440 158.529  30.519  0.00  0.00    +0.000 NA
ATOM     11  N   UNL     1      50.309 157.288  30.084  0.00  0.00    +0.000 NA
ATOM     12  C   UNL     1      51.461 157.004  29.428  0.00  0.00    +0.000 A 
BRANCH  12  13
ATOM     13  S   UNL     1      51.771 155.412  28.646  0.00  0.00    +0.000 S 
BRANCH  13  14
ATOM     14  C   UNL     1      52.837 155.651  27.177  0.00  0.00    +0.000 C 
BRANCH  14  15
ATOM     15  C   UNL     1      52.433 154.618  26.173  0.00  0.00    +0.000 C 
BRANCH  15  16
ATOM     16  C   UNL     1      52.751 153.278  26.696  0.00  0.00    +0.000 C 
ATOM     17  O   UNL     1      51.883 152.356  26.716  0.00  0.00    +0.000 OA
BRANCH  16  18
ATOM     18  O   UNL     1      54.020 153.023  27.172  0.00  0.00    +0.000 OA
ATOM     19  H   UNL     1      54.250 152.251  27.763  0.00  0.00    +0.000 HD
ENDBRANCH  16  18
ENDBRANCH  15  16
ENDBRANCH  14  15
ENDBRANCH  13  14
ENDBRANCH  12  13
ENDBRANCH   1   9
BRANCH   7  20
ATOM     20  N   UNL     1      49.964 161.204  31.088  0.00  0.00    +0.000 N 
ATOM     21  C   UNL     1      49.120 160.951  29.990  0.00  0.00    +0.000 C 
ATOM     22  O   UNL     1      49.698 160.801  28.841  0.00  0.00    +0.000 OA
BRANCH  20  23
ATOM     23  C   UNL     1      49.403 161.224  32.405  0.00  0.00    +0.000 A 
ATOM     24  C   UNL     1      48.583 162.282  32.823  0.00  0.00    +0.000 A 
ATOM     25 BR   UNL     1      48.251 163.715  31.610  0.00  0.00    +0.000 Br
ATOM     26  C   UNL     1      48.044 162.260  34.092  0.00  0.00    +0.000 A 
ATOM     27  C   UNL     1      48.320 161.200  34.929  0.00  0.00    +0.000 A 
ATOM     28  C   UNL     1      49.130 160.153  34.520  0.00  0.00    +0.000 A 
ATOM     29  C   UNL     1      49.677 160.169  33.240  0.00  0.00    +0.000 A 
ENDBRANCH  20  23
BRANCH  21  30
ATOM     30  C   UNL     1      47.664 160.835  29.951  0.00  0.00    +0.000 C 
BRANCH  30  31
ATOM     31  C   UNL     1      47.037 160.058  30.976  0.00  0.00    +0.000 C 
ATOM     32  N   UNL     1      46.527 159.443  31.821  0.00  0.00    +0.000 NA
ENDBRANCH  30  31
ENDBRANCH  21  30
ENDBRANCH   7  20
TORSDOF 10
ENDMDL
