MODEL 1
REMARK VINA RESULT:    -8.273      0.000      0.000
REMARK INTER + INTRA:         -10.766
REMARK INTER:                 -10.691
REMARK INTRA:                  -0.075
REMARK UNBOUND:                -0.075
REMARK  Name = 
REMARK  5 active torsions:
REMARK  status: ('A' for Active; 'I' for Inactive)
REMARK    1  A    between atoms: C_1  and  C_2
REMARK    2  A    between atoms: N_3  and  O_4
REMARK    3  A    between atoms: O_4  and  C_5
REMARK    4  A    between atoms: C_5  and  C_6
REMARK    5  A    between atoms: N_14  and  C_15
REMARK                            x       y       z     vdW  Elec       q    Type
REMARK                         _______ _______ _______ _____ _____    ______ ____
ROOT
ATOM      1  C   UNL     1      53.678 152.180  26.007  0.00  0.00    +0.000 C 
ATOM      2  N   UNL     1      52.898 152.591  26.976  0.00  0.00    +0.000 NA
ATOM      3  N   UNL     1      54.605 153.074  25.407  0.00  0.00    +0.000 N 
ATOM      4  H   UNL     1      55.602 152.667  25.232  0.00  0.00    +0.000 HD
ENDROOT
BRANCH   1   5
ATOM      5  C   UNL     1      53.576 150.805  25.478  0.00  0.00    +0.000 A 
ATOM      6  C   UNL     1      52.793 149.786  25.846  0.00  0.00    +0.000 A 
ATOM      7  N   UNL     1      53.126 148.712  25.080  0.00  0.00    +0.000 NA
ATOM      8  O   UNL     1      54.059 149.055  24.303  0.00  0.00    +0.000 OA
ATOM      9  N   UNL     1      54.392 150.344  24.459  0.00  0.00    +0.000 NA
ATOM     10  N   UNL     1      51.762 149.742  26.813  0.00  0.00    +0.000 N 
ATOM     11  H   UNL     1      50.831 150.138  26.481  0.00  0.00    +0.000 HD
ATOM     12  H   UNL     1      51.931 149.352  27.746  0.00  0.00    +0.000 HD
ENDBRANCH   1   5
BRANCH   3  13
ATOM     13  C   UNL     1      54.271 154.376  25.041  0.00  0.00    +0.000 A 
ATOM     14  C   UNL     1      55.337 155.223  24.708  0.00  0.00    +0.000 A 
ATOM     15  C   UNL     1      55.090 156.567  24.375  0.00  0.00    +0.000 A 
ATOM     16  C   UNL     1      53.822 157.095  24.364  0.00  0.00    +0.000 A 
ATOM     17  C   UNL     1      52.811 156.241  24.702  0.00  0.00    +0.000 A 
ATOM     18  C   UNL     1      53.022 154.932  25.026  0.00  0.00    +0.000 A 
ENDBRANCH   3  13
BRANCH   2  19
ATOM     19  O   UNL     1      53.204 153.980  27.372  0.00  0.00    +0.000 OA
BRANCH  19  20
ATOM     20  C   UNL     1      52.072 154.327  28.229  0.00  0.00    +0.000 C 
BRANCH  20  21
ATOM     21  C   UNL     1      51.893 155.738  28.527  0.00  0.00    +0.000 A 
ATOM     22  C   UNL     1      50.785 156.195  29.281  0.00  0.00    +0.000 A 
ATOM     23  C   UNL     1      50.755 157.464  29.781  0.00  0.00    +0.000 A 
ATOM     24  C   UNL     1      51.772 158.362  29.624  0.00  0.00    +0.000 A 
ATOM     25  C   UNL     1      52.848 157.950  28.919  0.00  0.00    +0.000 A 
ATOM     26  C   UNL     1      52.923 156.690  28.373  0.00  0.00    +0.000 A 
ATOM     27 CL   UNL     1      51.694 159.954  30.335  0.00  0.00    +0.000 Cl
ATOM     28 CL   UNL     1      49.385 155.173  29.440  0.00  0.00    +0.000 Cl
ENDBRANCH  20  21
ENDBRANCH  19  20
ENDBRANCH   2  19
TORSDOF 5
ENDMDL
