MODEL 1
REMARK VINA RESULT:    -0.118      0.000      0.000
REMARK INTER + INTRA:          -0.112
REMARK INTER:                  -0.167
REMARK INTRA:                   0.055
REMARK UNBOUND:                 0.055
REMARK  Name = 
REMARK  12 active torsions:
REMARK  status: ('A' for Active; 'I' for Inactive)
REMARK    1  A    between atoms: C_2  and  O_4
REMARK    2  A    between atoms: O_4  and  C_5
REMARK    3  A    between atoms: C_5  and  C_6
REMARK    4  A    between atoms: C_5  and  C_7
REMARK    5  A    between atoms: C_5  and  C_8
REMARK    6  A    between atoms: C_9  and  C_10
REMARK    7  A    between atoms: C_16  and  N_17
REMARK    8  A    between atoms: C_19  and  C_20
REMARK    9  A    between atoms: C_20  and  C_21
REMARK   10  A    between atoms: C_21  and  N_22
REMARK   11  A    between atoms: N_22  and  C_23
REMARK   12  A    between atoms: N_22  and  C_24
REMARK                            x       y       z     vdW  Elec       q    Type
REMARK                         _______ _______ _______ _____ _____    ______ ____
ROOT
ATOM      1  N   UNL     1      53.363 152.461  25.871  0.00  0.00    +0.000 N 
ATOM      2  C   UNL     1      52.802 151.168  26.057  0.00  0.00    +0.000 C 
ATOM      3  O   UNL     1      51.587 150.957  26.311  0.00  0.00    +0.000 OA
ATOM      4  C   UNL     1      54.743 152.574  25.549  0.00  0.00    +0.000 C 
ATOM      5  C   UNL     1      55.087 153.767  24.675  0.00  0.00    +0.000 C 
ATOM      6  N   UNL     1      54.251 154.913  24.986  0.00  0.00    +0.000 NA
ATOM      7  C   UNL     1      52.898 154.495  24.796  0.00  0.00    +0.000 C 
ATOM      8  C   UNL     1      52.503 153.622  25.981  0.00  0.00    +0.000 C 
ATOM      9  H   UNL     1      54.491 155.319  25.893  0.00  0.00    +0.000 HD
ENDROOT
BRANCH   8  10
ATOM     10  N   UNL     1      52.778 154.286  27.236  0.00  0.00    +0.000 NA
ATOM     11  C   UNL     1      52.643 155.734  27.095  0.00  0.00    +0.000 C 
ATOM     12  C   UNL     1      51.913 156.383  28.242  0.00  0.00    +0.000 C 
ATOM     13  C   UNL     1      52.515 155.804  29.530  0.00  0.00    +0.000 C 
ATOM     14  C   UNL     1      52.028 154.367  29.568  0.00  0.00    +0.000 C 
ATOM     15  C   UNL     1      51.707 153.874  28.165  0.00  0.00    +0.000 C 
BRANCH  12  16
ATOM     16  C   UNL     1      52.180 157.873  28.212  0.00  0.00    +0.000 C 
BRANCH  16  17
ATOM     17  C   UNL     1      52.158 158.495  29.565  0.00  0.00    +0.000 C 
BRANCH  17  18
ATOM     18  N   UNL     1      51.079 159.435  29.759  0.00  0.00    +0.000 NA
ATOM     19  C   UNL     1      51.593 160.475  30.662  0.00  0.00    +0.000 C 
ATOM     20  C   UNL     1      49.946 158.843  30.435  0.00  0.00    +0.000 C 
ENDBRANCH  17  18
ENDBRANCH  16  17
ENDBRANCH  12  16
ENDBRANCH   8  10
BRANCH   4  21
ATOM     21  C   UNL     1      55.679 152.607  26.684  0.00  0.00    +0.000 C 
ATOM     22  O   UNL     1      56.908 152.494  26.537  0.00  0.00    +0.000 OA
ATOM     23  N   UNL     1      55.177 152.777  28.036  0.00  0.00    +0.000 N 
ATOM     24  H   UNL     1      54.930 151.950  28.614  0.00  0.00    +0.000 HD
ATOM     25  H   UNL     1      55.070 153.740  28.412  0.00  0.00    +0.000 HD
ENDBRANCH   4  21
BRANCH   2  26
ATOM     26  O   UNL     1      53.598 150.032  25.964  0.00  0.00    +0.000 OA
BRANCH  26  27
ATOM     27  C   UNL     1      53.740 149.273  24.796  0.00  0.00    +0.000 C 
ATOM     28  C   UNL     1      52.614 148.279  24.727  0.00  0.00    +0.000 C 
ATOM     29  C   UNL     1      55.096 148.586  24.726  0.00  0.00    +0.000 C 
ATOM     30  C   UNL     1      53.692 150.243  23.617  0.00  0.00    +0.000 C 
ENDBRANCH  26  27
ENDBRANCH   2  26
TORSDOF 7
ENDMDL
