MODEL 1
REMARK VINA RESULT:    -9.318      0.000      0.000
REMARK INTER + INTRA:         -10.612
REMARK INTER:                 -11.770
REMARK INTRA:                   1.157
REMARK UNBOUND:                 1.157
REMARK  Name = 
REMARK  6 active torsions:
REMARK  status: ('A' for Active; 'I' for Inactive)
REMARK    1  A    between atoms: N_1  and  C_16
REMARK    2  A    between atoms: C_2  and  S_15
REMARK    3  A    between atoms: C_5  and  C_6
REMARK    4  A    between atoms: C_6  and  O_7
REMARK    5  A    between atoms: O_7  and  C_8
REMARK    6  A    between atoms: C_11  and  C_14
REMARK                            x       y       z     vdW  Elec       q    Type
REMARK                         _______ _______ _______ _____ _____    ______ ____
ROOT
ATOM      1  N   UNL     1      53.488 153.974  25.525  0.00  0.00    +0.000 N 
ATOM      2  C   UNL     1      54.164 154.778  24.682  0.00  0.00    +0.000 A 
ATOM      3  N   UNL     1      53.995 156.076  25.065  0.00  0.00    +0.000 NA
ATOM      4  N   UNL     1      53.212 156.046  26.145  0.00  0.00    +0.000 NA
ATOM      5  C   UNL     1      52.889 154.773  26.447  0.00  0.00    +0.000 A 
ENDROOT
BRANCH   1   6
ATOM      6  C   UNL     1      53.376 152.557  25.520  0.00  0.00    +0.000 A 
ATOM      7  C   UNL     1      52.433 151.847  26.231  0.00  0.00    +0.000 A 
ATOM      8  C   UNL     1      52.357 150.474  26.201  0.00  0.00    +0.000 A 
ATOM      9  C   UNL     1      53.243 149.751  25.440  0.00  0.00    +0.000 A 
ATOM     10  C   UNL     1      54.198 150.428  24.718  0.00  0.00    +0.000 A 
ATOM     11  C   UNL     1      54.250 151.781  24.767  0.00  0.00    +0.000 A 
ATOM     12  F   UNL     1      53.179 148.372  25.400  0.00  0.00    +0.000 F 
ENDBRANCH   1   6
BRANCH   2  13
ATOM     13  S   UNL     1      55.121 154.186  23.290  0.00  0.00    +0.000 S 
ATOM     14  H   UNL     1      56.073 155.199  22.994  0.00  0.00    +0.000 HD
ENDBRANCH   2  13
BRANCH   5  15
ATOM     15  C   UNL     1      52.046 154.300  27.559  0.00  0.00    +0.000 C 
BRANCH  15  16
ATOM     16  O   UNL     1      52.424 154.859  28.803  0.00  0.00    +0.000 OA
BRANCH  16  17
ATOM     17  C   UNL     1      51.809 156.036  29.206  0.00  0.00    +0.000 A 
ATOM     18  C   UNL     1      50.494 156.020  29.656  0.00  0.00    +0.000 A 
ATOM     19  C   UNL     1      49.892 157.207  30.056  0.00  0.00    +0.000 A 
ATOM     20  C   UNL     1      50.565 158.392  30.018  0.00  0.00    +0.000 A 
ATOM     21  C   UNL     1      51.867 158.429  29.577  0.00  0.00    +0.000 A 
ATOM     22  C   UNL     1      52.458 157.246  29.180  0.00  0.00    +0.000 A 
ATOM     23  C   UNL     1      49.956 159.685  30.438  0.00  0.00    +0.000 C 
ENDBRANCH  16  17
ENDBRANCH  15  16
ENDBRANCH   5  15
TORSDOF 5
ENDMDL
