MODEL 1
REMARK VINA RESULT:    -7.868      0.000      0.000
REMARK INTER + INTRA:         -12.352
REMARK INTER:                 -12.698
REMARK INTRA:                   0.346
REMARK UNBOUND:                 0.346
REMARK  Name = 
REMARK  15 active torsions:
REMARK  status: ('A' for Active; 'I' for Inactive)
REMARK    1  A    between atoms: S_1  and  C_4
REMARK    2  A    between atoms: S_1  and  N_17
REMARK    3  A    between atoms: C_7  and  N_8
REMARK    4  A    between atoms: C_9  and  C_14
REMARK    5  A    between atoms: C_12  and  C_13
REMARK    6  A    between atoms: N_17  and  N_18
REMARK    7  A    between atoms: N_18  and  C_19
REMARK    8  A    between atoms: N_18  and  C_30
REMARK    9  A    between atoms: C_19  and  C_20
REMARK   10  A    between atoms: C_20  and  C_21
REMARK   11  A    between atoms: C_20  and  O_29
REMARK   12  A    between atoms: C_21  and  O_22
REMARK   13  A    between atoms: O_22  and  C_23
REMARK   14  A    between atoms: C_30  and  C_31
REMARK   15  A    between atoms: C_30  and  C_32
REMARK                            x       y       z     vdW  Elec       q    Type
REMARK                         _______ _______ _______ _____ _____    ______ ____
ROOT
ATOM      1  N   UNL     1      52.772 155.685  27.931  0.00  0.00    +0.000 NA
ATOM      2  H   UNL     1      53.655 155.770  28.413  0.00  0.00    +0.000 HD
ENDROOT
BRANCH   1   3
ATOM      3  S   UNL     1      51.377 155.426  28.891  0.00  0.00    +0.000 S 
ATOM      4  O   UNL     1      50.268 154.817  28.115  0.00  0.00    +0.000 OA
ATOM      5  O   UNL     1      51.714 154.472  30.026  0.00  0.00    +0.000 OA
BRANCH   3   6
ATOM      6  C   UNL     1      50.923 156.956  29.606  0.00  0.00    +0.000 A 
ATOM      7  C   UNL     1      49.705 157.041  30.260  0.00  0.00    +0.000 A 
ATOM      8  C   UNL     1      49.286 158.228  30.848  0.00  0.00    +0.000 A 
ATOM      9  C   UNL     1      50.071 159.361  30.798  0.00  0.00    +0.000 A 
ATOM     10  C   UNL     1      51.280 159.267  30.146  0.00  0.00    +0.000 A 
ATOM     11  C   UNL     1      51.708 158.084  29.554  0.00  0.00    +0.000 A 
BRANCH   9  12
ATOM     12  N   UNL     1      49.628 160.590  31.410  0.00  0.00    +0.000 N 
ATOM     13  C   UNL     1      48.353 160.966  31.623  0.00  0.00    +0.000 A 
ATOM     14  C   UNL     1      48.322 162.200  32.230  0.00  0.00    +0.000 A 
ATOM     15  C   UNL     1      49.641 162.569  32.379  0.00  0.00    +0.000 A 
ATOM     16  C   UNL     1      50.431 161.565  31.869  0.00  0.00    +0.000 A 
ATOM     17  C   UNL     1      51.928 161.516  31.811  0.00  0.00    +0.000 C 
ATOM     18  C   UNL     1      47.177 160.122  31.237  0.00  0.00    +0.000 C 
ENDBRANCH   9  12
ENDBRANCH   3   6
ENDBRANCH   1   3
BRANCH   1  19
ATOM     19  N   UNL     1      52.776 154.922  26.775  0.00  0.00    +0.000 NA
BRANCH  19  20
ATOM     20  C   UNL     1      52.744 155.791  25.598  0.00  0.00    +0.000 C 
ATOM     21  C   UNL     1      52.825 154.967  24.332  0.00  0.00    +0.000 C 
ATOM     22  C   UNL     1      53.953 156.715  25.587  0.00  0.00    +0.000 C 
ENDBRANCH  19  20
BRANCH  19  23
ATOM     23  C   UNL     1      53.975 154.089  26.745  0.00  0.00    +0.000 C 
BRANCH  23  24
ATOM     24  C   UNL     1      53.711 152.858  27.576  0.00  0.00    +0.000 C 
BRANCH  24  25
ATOM     25  O   UNL     1      53.935 153.144  28.941  0.00  0.00    +0.000 OA
ATOM     26  H   UNL     1      53.637 152.405  29.525  0.00  0.00    +0.000 HD
ENDBRANCH  24  25
BRANCH  24  27
ATOM     27  C   UNL     1      52.245 152.442  27.405  0.00  0.00    +0.000 C 
BRANCH  27  28
ATOM     28  O   UNL     1      52.050 152.038  26.084  0.00  0.00    +0.000 OA
BRANCH  28  29
ATOM     29  C   UNL     1      52.788 150.945  25.605  0.00  0.00    +0.000 A 
ATOM     30  C   UNL     1      53.934 151.118  24.863  0.00  0.00    +0.000 A 
ATOM     31  C   UNL     1      54.636 150.005  24.408  0.00  0.00    +0.000 A 
ATOM     32  C   UNL     1      54.232 148.716  24.668  0.00  0.00    +0.000 A 
ATOM     33  C   UNL     1      53.079 148.541  25.414  0.00  0.00    +0.000 A 
ATOM     34  C   UNL     1      52.378 149.638  25.868  0.00  0.00    +0.000 A 
ENDBRANCH  28  29
ENDBRANCH  27  28
ENDBRANCH  24  27
ENDBRANCH  23  24
ENDBRANCH  19  23
ENDBRANCH   1  19
TORSDOF 11
ENDMDL
