MODEL 1
REMARK VINA RESULT:    -5.219      0.000      0.000
REMARK INTER + INTRA:          -4.778
REMARK INTER:                  -6.592
REMARK INTRA:                   1.814
REMARK UNBOUND:                 1.814
REMARK  Name = 
REMARK  6 active torsions:
REMARK  status: ('A' for Active; 'I' for Inactive)
REMARK    1  A    between atoms: C_1  and  C_19
REMARK    2  A    between atoms: C_2  and  N_18
REMARK    3  A    between atoms: C_6  and  C_7
REMARK    4  A    between atoms: C_19  and  O_21
REMARK    5  A    between atoms: O_21  and  C_22
REMARK    6  A    between atoms: C_22  and  C_23
REMARK                            x       y       z     vdW  Elec       q    Type
REMARK                         _______ _______ _______ _____ _____    ______ ____
ROOT
ATOM      1  C   UNL     1      52.182 152.084  26.729  0.00  0.00    +0.000 C 
ATOM      2  C   UNL     1      51.645 151.975  27.915  0.00  0.00    +0.000 C 
ATOM      3  O   UNL     1      51.339 153.046  28.736  0.00  0.00    +0.000 OA
ATOM      4  C   UNL     1      51.639 154.312  28.228  0.00  0.00    +0.000 C 
ATOM      5  C   UNL     1      52.177 154.495  27.047  0.00  0.00    +0.000 C 
ATOM      6  C   UNL     1      52.508 153.392  26.164  0.00  0.00    +0.000 C 
ATOM      7  C   UNL     1      52.434 155.906  26.658  0.00  0.00    +0.000 C 
ATOM      8  O   UNL     1      52.227 156.187  25.448  0.00  0.00    +0.000 OA
ATOM      9  C   UNL     1      52.906 156.901  27.649  0.00  0.00    +0.000 C 
ATOM     10  C   UNL     1      52.507 156.507  29.059  0.00  0.00    +0.000 C 
ATOM     11  C   UNL     1      51.344 155.539  29.041  0.00  0.00    +0.000 C 
ENDROOT
BRANCH   6  12
ATOM     12  C   UNL     1      53.904 153.457  25.652  0.00  0.00    +0.000 A 
ATOM     13  C   UNL     1      54.957 152.841  26.275  0.00  0.00    +0.000 A 
ATOM     14  N   UNL     1      56.209 152.920  25.786  0.00  0.00    +0.000 NA
ATOM     15  C   UNL     1      56.460 153.614  24.658  0.00  0.00    +0.000 A 
ATOM     16  C   UNL     1      55.442 154.268  23.967  0.00  0.00    +0.000 A 
ATOM     17  C   UNL     1      54.169 154.162  24.504  0.00  0.00    +0.000 A 
ENDBRANCH   6  12
BRANCH   2  18
ATOM     18  N   UNL     1      51.348 150.643  28.413  0.00  0.00    +0.000 N 
ATOM     19  H   UNL     1      51.744 149.794  27.958  0.00  0.00    +0.000 HD
ATOM     20  H   UNL     1      50.732 150.503  29.237  0.00  0.00    +0.000 HD
ENDBRANCH   2  18
BRANCH   1  21
ATOM     21  C   UNL     1      52.440 150.830  25.989  0.00  0.00    +0.000 C 
ATOM     22  O   UNL     1      51.972 149.767  26.464  0.00  0.00    +0.000 OA
BRANCH  21  23
ATOM     23  O   UNL     1      53.153 150.781  24.829  0.00  0.00    +0.000 OA
BRANCH  23  24
ATOM     24  C   UNL     1      54.309 149.948  24.660  0.00  0.00    +0.000 C 
ATOM     25  C   UNL     1      53.934 148.492  24.659  0.00  0.00    +0.000 C 
ENDBRANCH  23  24
ENDBRANCH  21  23
ENDBRANCH   1  21
TORSDOF 5
ENDMDL
