MODEL 1
REMARK VINA RESULT:     2.817      0.000      0.000
REMARK INTER + INTRA:           3.976
REMARK INTER:                   3.476
REMARK INTRA:                   0.500
REMARK UNBOUND:                 0.500
REMARK  Name = 
REMARK  6 active torsions:
REMARK  status: ('A' for Active; 'I' for Inactive)
REMARK    1  A    between atoms: C_6  and  O_7
REMARK    2  A    between atoms: C_9  and  N_10
REMARK    3  A    between atoms: C_11  and  C_12
REMARK    4  A    between atoms: C_12  and  O_14
REMARK    5  A    between atoms: C_17  and  C_18
REMARK    6  A    between atoms: C_31  and  C_33
REMARK                            x       y       z     vdW  Elec       q    Type
REMARK                         _______ _______ _______ _____ _____    ______ ____
ROOT
ATOM      1  N   UNL     1      53.036 151.289  25.708  0.00  0.00    +0.000 N 
ATOM      2  C   UNL     1      53.793 151.541  24.621  0.00  0.00    +0.000 A 
ATOM      3  N   UNL     1      54.051 152.801  24.319  0.00  0.00    +0.000 NA
ATOM      4  C   UNL     1      53.594 153.872  25.044  0.00  0.00    +0.000 A 
ATOM      5  C   UNL     1      52.839 153.600  26.127  0.00  0.00    +0.000 A 
ATOM      6  C   UNL     1      52.551 152.274  26.468  0.00  0.00    +0.000 A 
ATOM      7  C   UNL     1      52.176 154.456  27.150  0.00  0.00    +0.000 C 
ATOM      8  C   UNL     1      52.481 155.898  26.963  0.00  0.00    +0.000 C 
ATOM      9  N   UNL     1      53.921 155.963  26.715  0.00  0.00    +0.000 NA
ATOM     10  C   UNL     1      54.132 156.314  25.364  0.00  0.00    +0.000 C 
ATOM     11  C   UNL     1      54.026 155.142  24.466  0.00  0.00    +0.000 C 
ATOM     12  C   UNL     1      52.929 157.214  25.047  0.00  0.00    +0.000 C 
ATOM     13  C   UNL     1      51.819 156.417  25.728  0.00  0.00    +0.000 C 
ATOM     14  C   UNL     1      54.142 150.343  24.046  0.00  0.00    +0.000 A 
ATOM     15  C   UNL     1      53.573 149.358  24.817  0.00  0.00    +0.000 A 
ATOM     16  N   UNL     1      52.918 149.980  25.805  0.00  0.00    +0.000 NA
ATOM     17  C   UNL     1      53.619 147.889  24.670  0.00  0.00    +0.000 C 
ATOM     18  H   UNL     1      54.407 155.103  27.004  0.00  0.00    +0.000 HD
ENDROOT
BRANCH   8  19
ATOM     19  N   UNL     1      52.188 156.750  28.100  0.00  0.00    +0.000 NA
ATOM     20  C   UNL     1      53.263 156.842  29.005  0.00  0.00    +0.000 C 
ATOM     21  C   UNL     1      53.175 155.898  30.138  0.00  0.00    +0.000 C 
ATOM     22  S   UNL     1      51.402 155.417  30.106  0.00  0.00    +0.000 S 
ATOM     23  C   UNL     1      50.947 156.501  28.714  0.00  0.00    +0.000 C 
BRANCH  23  24
ATOM     24  C   UNL     1      50.137 157.618  29.181  0.00  0.00    +0.000 A 
ATOM     25  C   UNL     1      50.366 158.911  28.787  0.00  0.00    +0.000 A 
ATOM     26  C   UNL     1      49.568 159.961  29.236  0.00  0.00    +0.000 A 
ATOM     27  C   UNL     1      48.528 159.677  30.093  0.00  0.00    +0.000 A 
ATOM     28  C   UNL     1      48.276 158.383  30.504  0.00  0.00    +0.000 A 
ATOM     29  C   UNL     1      49.082 157.372  30.042  0.00  0.00    +0.000 A 
ATOM     30 CL   UNL     1      47.506 160.976  30.668  0.00  0.00    +0.000 Cl
ENDBRANCH  23  24
BRANCH  20  31
ATOM     31  C   UNL     1      53.591 158.256  29.399  0.00  0.00    +0.000 C 
ATOM     32  O   UNL     1      52.761 159.035  29.919  0.00  0.00    +0.000 OA
BRANCH  31  33
ATOM     33  O   UNL     1      54.862 158.800  29.204  0.00  0.00    +0.000 OA
ATOM     34  H   UNL     1      54.987 159.823  29.091  0.00  0.00    +0.000 HD
ENDBRANCH  31  33
ENDBRANCH  20  31
ENDBRANCH   8  19
BRANCH   6  35
ATOM     35  O   UNL     1      51.781 151.969  27.567  0.00  0.00    +0.000 OA
ATOM     36  H   UNL     1      50.999 152.564  27.793  0.00  0.00    +0.000 HD
ENDBRANCH   6  35
TORSDOF 5
ENDMDL
