MODEL 1
REMARK VINA RESULT:    -6.693      0.000      0.000
REMARK INTER + INTRA:          -0.353
REMARK INTER:                  -7.867
REMARK INTRA:                   7.514
REMARK UNBOUND:                 7.514
REMARK  Name = 
REMARK  3 active torsions:
REMARK  status: ('A' for Active; 'I' for Inactive)
REMARK    1  A    between atoms: C_2  and  C_4
REMARK    2  A    between atoms: C_10  and  C_11
REMARK    3  A    between atoms: C_12  and  C_18
REMARK                            x       y       z     vdW  Elec       q    Type
REMARK                         _______ _______ _______ _____ _____    ______ ____
ROOT
ATOM      1  C   UNL     1      53.558 154.216  26.387  0.00  0.00    +0.000 A 
ATOM      2  C   UNL     1      53.857 153.423  25.303  0.00  0.00    +0.000 A 
ATOM      3  C   UNL     1      54.366 154.050  24.166  0.00  0.00    +0.000 A 
ATOM      4  N   UNL     1      54.553 155.376  24.136  0.00  0.00    +0.000 NA
ATOM      5  C   UNL     1      54.260 156.160  25.198  0.00  0.00    +0.000 A 
ATOM      6  N   UNL     1      53.774 155.558  26.284  0.00  0.00    +0.000 NA
ATOM      7  N   UNL     1      54.478 157.556  25.131  0.00  0.00    +0.000 N 
ATOM      8  H   UNL     1      53.718 158.164  24.787  0.00  0.00    +0.000 HD
ATOM      9  H   UNL     1      55.368 157.959  25.417  0.00  0.00    +0.000 HD
ENDROOT
BRANCH   1  13
ATOM     10  N   UNL     1      52.450 154.803  28.502  0.00  0.00    +0.000 N 
ATOM     11  C   UNL     1      52.288 156.133  28.137  0.00  0.00    +0.000 C 
ATOM     12  O   UNL     1      52.636 156.431  26.917  0.00  0.00    +0.000 OA
ATOM     13  C   UNL     1      53.061 153.724  27.667  0.00  0.00    +0.000 C 
ATOM     14  C   UNL     1      51.763 152.889  27.524  0.00  0.00    +0.000 C 
ATOM     15  C   UNL     1      51.390 152.802  29.000  0.00  0.00    +0.000 C 
ATOM     16  C   UNL     1      52.023 154.051  29.656  0.00  0.00    +0.000 C 
BRANCH  11  17
ATOM     17  C   UNL     1      51.793 157.243  28.895  0.00  0.00    +0.000 A 
ATOM     18  C   UNL     1      52.462 158.414  29.171  0.00  0.00    +0.000 A 
ATOM     19  N   UNL     1      51.930 159.369  29.959  0.00  0.00    +0.000 NA
ATOM     20  C   UNL     1      50.725 159.250  30.523  0.00  0.00    +0.000 A 
ATOM     21  C   UNL     1      49.982 158.114  30.300  0.00  0.00    +0.000 A 
ATOM     22  C   UNL     1      50.519 157.139  29.500  0.00  0.00    +0.000 A 
ENDBRANCH  11  17
ENDBRANCH   1  13
BRANCH   2  23
ATOM     23  C   UNL     1      53.600 151.991  25.320  0.00  0.00    +0.000 A 
ATOM     24  C   UNL     1      52.605 151.359  25.999  0.00  0.00    +0.000 A 
ATOM     25  C   UNL     1      52.413 149.986  25.921  0.00  0.00    +0.000 A 
ATOM     26  C   UNL     1      53.267 149.259  25.130  0.00  0.00    +0.000 A 
ATOM     27  C   UNL     1      54.285 149.855  24.430  0.00  0.00    +0.000 A 
ATOM     28  C   UNL     1      54.441 151.191  24.530  0.00  0.00    +0.000 A 
ATOM     29 CL   UNL     1      53.054 147.526  25.009  0.00  0.00    +0.000 Cl
ENDBRANCH   2  23
TORSDOF 3
ENDMDL
