MODEL 1
REMARK VINA RESULT:     0.695      0.000      0.000
REMARK INTER + INTRA:           3.421
REMARK INTER:                   0.979
REMARK INTRA:                   2.443
REMARK UNBOUND:                 2.443
REMARK  Name = 
REMARK  10 active torsions:
REMARK  status: ('A' for Active; 'I' for Inactive)
REMARK    1  A    between atoms: C_1  and  C_13
REMARK    2  A    between atoms: C_6  and  C_7
REMARK    3  A    between atoms: C_6  and  C_12
REMARK    4  A    between atoms: C_7  and  O_9
REMARK    5  A    between atoms: C_18  and  N_19
REMARK    6  A    between atoms: C_20  and  C_21
REMARK    7  A    between atoms: C_21  and  O_23
REMARK    8  A    between atoms: C_26  and  C_27
REMARK    9  A    between atoms: C_29  and  O_30
REMARK   10  A    between atoms: O_30  and  C_31
REMARK                            x       y       z     vdW  Elec       q    Type
REMARK                         _______ _______ _______ _____ _____    ______ ____
ROOT
ATOM      1  C   UNL     1      52.285 158.053  29.512  0.00  0.00    +0.000 A 
ATOM      2  C   UNL     1      52.850 159.276  29.971  0.00  0.00    +0.000 A 
ATOM      3  C   UNL     1      54.143 159.561  29.622  0.00  0.00    +0.000 A 
ATOM      4  C   UNL     1      54.899 158.710  28.849  0.00  0.00    +0.000 A 
ATOM      5  C   UNL     1      54.311 157.542  28.428  0.00  0.00    +0.000 A 
ATOM      6  C   UNL     1      52.984 157.195  28.758  0.00  0.00    +0.000 A 
ENDROOT
BRANCH   1   7
ATOM      7  C   UNL     1      50.919 157.815  29.898  0.00  0.00    +0.000 C 
ATOM      8  O   UNL     1      50.544 156.666  30.169  0.00  0.00    +0.000 OA
ATOM      9  N   UNL     1      50.007 158.883  29.973  0.00  0.00    +0.000 N 
ATOM     10  C   UNL     1      50.363 160.273  29.696  0.00  0.00    +0.000 C 
ATOM     11  C   UNL     1      50.100 161.126  30.913  0.00  0.00    +0.000 C 
ATOM     12  C   UNL     1      48.729 160.915  31.480  0.00  0.00    +0.000 C 
ATOM     13  C   UNL     1      47.971 160.019  30.550  0.00  0.00    +0.000 C 
ATOM     14  C   UNL     1      48.605 158.687  30.342  0.00  0.00    +0.000 C 
ATOM     15  C   UNL     1      47.947 162.213  31.616  0.00  0.00    +0.000 C 
BRANCH  12  16
ATOM     16  C   UNL     1      48.819 160.314  32.853  0.00  0.00    +0.000 C 
ATOM     17  O   UNL     1      49.020 159.095  33.037  0.00  0.00    +0.000 OA
BRANCH  16  18
ATOM     18  O   UNL     1      48.674 161.140  33.956  0.00  0.00    +0.000 OA
ATOM     19  H   UNL     1      47.826 161.091  34.530  0.00  0.00    +0.000 HD
ENDBRANCH  16  18
ENDBRANCH  12  16
ENDBRANCH   1   7
BRANCH   6  20
ATOM     20  N   UNL     1      52.455 155.951  28.290  0.00  0.00    +0.000 N 
ATOM     21  C   UNL     1      52.198 154.753  29.001  0.00  0.00    +0.000 C 
ATOM     22  C   UNL     1      50.716 154.405  28.760  0.00  0.00    +0.000 C 
ATOM     23  S   UNL     1      50.686 154.657  26.940  0.00  0.00    +0.000 S 
ATOM     24  C   UNL     1      52.047 155.879  26.877  0.00  0.00    +0.000 C 
BRANCH  24  25
ATOM     25  C   UNL     1      53.059 155.515  25.924  0.00  0.00    +0.000 A 
ATOM     26  C   UNL     1      53.097 154.206  25.446  0.00  0.00    +0.000 A 
ATOM     27  C   UNL     1      54.031 153.790  24.511  0.00  0.00    +0.000 A 
ATOM     28  C   UNL     1      54.945 154.698  24.044  0.00  0.00    +0.000 A 
ATOM     29  C   UNL     1      54.926 155.996  24.501  0.00  0.00    +0.000 A 
ATOM     30  C   UNL     1      53.981 156.407  25.443  0.00  0.00    +0.000 A 
BRANCH  27  31
ATOM     31  O   UNL     1      54.028 152.468  24.062  0.00  0.00    +0.000 OA
ATOM     32  C   UNL     1      53.984 151.433  25.015  0.00  0.00    +0.000 C 
ENDBRANCH  27  31
ENDBRANCH  24  25
BRANCH  21  33
ATOM     33  C   UNL     1      53.043 153.598  28.775  0.00  0.00    +0.000 C 
ATOM     34  O   UNL     1      52.612 152.546  28.198  0.00  0.00    +0.000 OA
BRANCH  33  35
ATOM     35  O   UNL     1      54.357 153.558  29.161  0.00  0.00    +0.000 OA
ATOM     36  H   UNL     1      55.039 153.045  28.580  0.00  0.00    +0.000 HD
ENDBRANCH  33  35
ENDBRANCH  21  33
ENDBRANCH   6  20
TORSDOF 8
ENDMDL
