REMARK  Name = =
REMARK  12 active torsions:
REMARK  status: ('A' for Active; 'I' for Inactive)
REMARK    1  A    between atoms: C_1  and  C_8
REMARK    2  A    between atoms: C_1  and  S_19
REMARK    3  A    between atoms: C_8  and  S_15
REMARK    4  A    between atoms: S_15  and  C_16
REMARK    5  A    between atoms: C_16  and  N_18
REMARK    6  A    between atoms: S_19  and  S_20
REMARK    7  A    between atoms: S_19  and  S_25
REMARK    8  A    between atoms: S_20  and  S_21
REMARK    9  A    between atoms: S_21  and  C_22
REMARK   10  A    between atoms: C_22  and  O_24
REMARK   11  A    between atoms: S_25  and  C_26
REMARK   12  A    between atoms: C_26  and  O_28
REMARK                            x       y       z     vdW  Elec       q    Type
REMARK                         _______ _______ _______ _____ _____    ______ ____
ROOT
ATOM      1  C   UNL     1     -10.676 -44.077  30.900  0.00  0.00    +0.065 C 
ATOM      2  C   UNL     1      -9.952 -44.958  31.890  0.00  0.00    +0.012 C 
ATOM      3  C   UNL     1      -9.828 -46.345  31.307  0.00  0.00    +0.001 C 
ATOM      4  C   UNL     1     -11.342 -46.443  30.965  0.00  0.00    +0.001 C 
ATOM      5  C   UNL     1     -11.374 -45.216  30.112  0.00  0.00    +0.011 C 
ATOM      6  C   UNL     1     -10.376 -45.702  29.046  0.00  0.00    +0.001 C 
ATOM      7  C   UNL     1      -9.333 -46.354  29.887  0.00  0.00    +0.000 C 
ENDROOT
BRANCH   1   8
ATOM      8  C   UNL     1     -11.867 -43.371  31.527  0.00  0.00    +0.082 C 
ATOM      9  C   UNL     1     -12.414 -44.158  32.644  0.00  0.00    -0.009 C 
ATOM     10  C   UNL     1     -13.675 -44.449  32.430  0.00  0.00    +0.038 C 
ATOM     11  C   UNL     1     -14.124 -43.883  31.158  0.00  0.00    +0.192 C 
ATOM     12  O   UNL     1     -15.301 -44.031  30.716  0.00  0.00    -0.287 OA
ATOM     13  C   UNL     1     -13.002 -43.174  30.574  0.00  0.00    +0.029 C 
ATOM     14  C   UNL     1     -13.076 -42.479  29.468  0.00  0.00    -0.000 C 
BRANCH   8  15
ATOM     15  S   UNL     1     -11.476 -41.652  31.921  0.00  0.00    -0.155 S 
ATOM     16  H   UNL     1     -12.552 -40.873  31.631  0.00  0.00    +0.099 HD
BRANCH  15  17
ATOM     17  C   UNL     1     -11.073 -41.469  33.645  0.00  0.00    +0.093 C 
ATOM     18  S   UNL     1      -9.516 -41.718  34.100  0.00  0.00    -0.029 S 
BRANCH  17  19
ATOM     19  N   UNL     1     -11.987 -41.121  34.663  0.00  0.00    -0.348 N 
ATOM     20  H   UNL     1     -12.933 -40.961  34.442  0.00  0.00    +0.143 HD
ATOM     21  H   UNL     1     -11.679 -41.038  35.594  0.00  0.00    +0.143 HD
ENDBRANCH  17  19
ENDBRANCH  15  17
ENDBRANCH   8  15
ENDBRANCH   1   8
BRANCH   1  22
ATOM     22  S   UNL     1      -9.704 -43.123  29.965  0.00  0.00    -0.065 S 
BRANCH  22  23
ATOM     23  S   UNL     1      -9.944 -42.929  28.622  0.00  0.00    -0.015 S 
BRANCH  23  24
ATOM     24  S   UNL     1     -10.891 -42.028  27.155  0.00  0.00    -0.001 S 
BRANCH  24  25
ATOM     25  C   UNL     1     -12.537 -42.656  26.906  0.00  0.00    +0.209 C 
ATOM     26  S   UNL     1     -12.781 -44.258  26.906  0.00  0.00    -0.003 S 
BRANCH  25  27
ATOM     27  O   UNL     1     -13.596 -41.795  26.715  0.00  0.00    -0.495 OA
ATOM     28  H   UNL     1     -14.459 -42.136  26.585  0.00  0.00    +0.293 HD
ENDBRANCH  25  27
ENDBRANCH  24  25
ENDBRANCH  23  24
ENDBRANCH  22  23
BRANCH  22  29
ATOM     29  S   UNL     1      -8.359 -42.529  30.363  0.00  0.00    -0.011 S 
BRANCH  29  30
ATOM     30  C   UNL     1      -7.046 -42.838  31.272  0.00  0.00    +0.209 C 
ATOM     31  S   UNL     1      -6.869 -44.135  32.290  0.00  0.00    -0.003 S 
BRANCH  30  32
ATOM     32  O   UNL     1      -5.900 -42.003  31.278  0.00  0.00    -0.495 OA
ATOM     33  H   UNL     1      -5.877 -41.235  30.742  0.00  0.00    +0.293 HD
ENDBRANCH  30  32
ENDBRANCH  29  30
ENDBRANCH  22  29
ENDBRANCH   1  22
TORSDOF 12
