REMARK  Name = =
REMARK  0 active torsions:
REMARK  status: ('A' for Active; 'I' for Inactive)
REMARK                            x       y       z     vdW  Elec       q    Type
REMARK                         _______ _______ _______ _____ _____    ______ ____
ROOT
ATOM      1  C   UNL     1     -13.259 -44.792  26.873  0.00  0.00    +0.008 C 
ATOM      2  C   UNL     1     -13.615 -43.517  27.639  0.00  0.00    +0.008 C 
ATOM      3  C   UNL     1     -12.187 -43.016  27.918  0.00  0.00    +0.065 C 
ATOM      4  C   UNL     1     -11.563 -44.293  28.396  0.00  0.00    +0.151 C 
ATOM      5  O   UNL     1     -10.577 -44.331  29.092  0.00  0.00    -0.296 OA
ATOM      6  C   UNL     1     -12.341 -45.454  27.882  0.00  0.00    +0.065 C 
ENDROOT
TORSDOF 0
