REMARK  Name = =
REMARK  8 active torsions:
REMARK  status: ('A' for Active; 'I' for Inactive)
REMARK    1  A    between atoms: N_1  and  C_30
REMARK    2  A    between atoms: C_6  and  N_10
REMARK    3  A    between atoms: C_7  and  C_22
REMARK    4  A    between atoms: C_14  and  N_15
REMARK    5  A    between atoms: C_30  and  N_31
REMARK    6  A    between atoms: N_31  and  C_34
REMARK    7  A    between atoms: C_32  and  O_44
REMARK    8  A    between atoms: C_41  and  O_43
REMARK                            x       y       z     vdW  Elec       q    Type
REMARK                         _______ _______ _______ _____ _____    ______ ____
ROOT
ATOM      1  N   UNL     1     -12.935 -17.274  21.694  0.00  0.00    -0.290 N 
ATOM      2  C   UNL     1     -11.813 -16.915  20.885  0.00  0.00    +0.046 C 
ATOM      3  C   UNL     1     -10.714 -17.457  21.527  0.00  0.00    -0.007 C 
ATOM      4  C   UNL     1      -9.446 -17.196  21.051  0.00  0.00    -0.002 C 
ATOM      5  C   UNL     1      -9.297 -16.407  19.949  0.00  0.00    +0.014 C 
ATOM      6  C   UNL     1     -10.394 -15.832  19.252  0.00  0.00    +0.051 C 
ATOM      7  C   UNL     1     -11.628 -16.112  19.752  0.00  0.00    +0.030 C 
ATOM      8  C   UNL     1     -11.141 -18.301  22.689  0.00  0.00    +0.049 C 
ATOM      9  C   UNL     1     -12.594 -18.532  22.363  0.00  0.00    +0.097 C 
ENDROOT
BRANCH   7  10
ATOM     10  C   UNL     1     -12.812 -15.737  19.010  0.00  0.00    +0.044 C 
ATOM     11  C   UNL     1     -13.421 -16.549  18.169  0.00  0.00    +0.045 C 
ATOM     12  C   UNL     1     -14.609 -16.197  17.429  0.00  0.00    +0.196 C 
ATOM     13  O   UNL     1     -15.156 -17.000  16.629  0.00  0.00    -0.287 OA
ATOM     14  C   UNL     1     -15.222 -14.876  17.586  0.00  0.00    +0.045 C 
ATOM     15  C   UNL     1     -14.650 -14.055  18.413  0.00  0.00    +0.045 C 
ATOM     16  C   UNL     1     -13.429 -14.426  19.167  0.00  0.00    +0.196 C 
ATOM     17  O   UNL     1     -13.004 -13.531  19.925  0.00  0.00    -0.287 OA
ENDBRANCH   7  10
BRANCH   6  18
ATOM     18  N   UNL     1     -10.074 -15.099  18.099  0.00  0.00    -0.278 N 
ATOM     19  C   UNL     1      -9.736 -15.575  16.799  0.00  0.00    +0.112 C 
ATOM     20  C   UNL     1      -8.861 -14.453  16.248  0.00  0.00    +0.114 C 
ATOM     21  N   UNL     1      -9.286 -13.323  17.016  0.00  0.00    -0.180 NA
ATOM     22  C   UNL     1      -9.969 -13.671  18.060  0.00  0.00    +0.229 C 
BRANCH  22  23
ATOM     23  N   UNL     1     -10.500 -12.731  18.971  0.00  0.00    -0.290 N 
ATOM     24  C   UNL     1      -9.957 -11.462  19.289  0.00  0.00    +0.131 C 
ATOM     25  N   UNL     1     -10.571 -10.625  20.151  0.00  0.00    -0.229 NA
ATOM     26  C   UNL     1     -10.068  -9.424  20.474  0.00  0.00    +0.100 C 
ATOM     27  C   UNL     1      -8.878  -8.963  19.938  0.00  0.00    +0.021 C 
ATOM     28  C   UNL     1      -8.228  -9.784  19.060  0.00  0.00    +0.004 C 
ATOM     29  C   UNL     1      -8.777 -11.027  18.745  0.00  0.00    +0.034 C 
ATOM     30  H   UNL     1     -11.332 -12.984  19.432  0.00  0.00    +0.151 HD
ENDBRANCH  22  23
ENDBRANCH   6  18
BRANCH   1  31
ATOM     31  C   UNL     1     -14.138 -16.516  21.800  0.00  0.00    +0.194 C 
BRANCH  31  32
ATOM     32  N   UNL     1     -15.096 -17.236  22.673  0.00  0.00    -0.222 N 
ATOM     33  C   UNL     1     -15.828 -18.311  22.097  0.00  0.00    +0.403 C 
ATOM     34  O   UNL     1     -15.680 -18.647  20.899  0.00  0.00    -0.226 OA
BRANCH  32  35
ATOM     35  C   UNL     1     -15.384 -16.853  24.008  0.00  0.00    +0.149 C 
ATOM     36  C   UNL     1     -14.323 -16.115  24.738  0.00  0.00    +0.037 C 
ATOM     37  C   UNL     1     -14.697 -14.768  24.774  0.00  0.00    +0.136 C 
ATOM     38  O   UNL     1     -15.918 -14.619  24.086  0.00  0.00    -0.474 OA
ATOM     39  C   UNL     1     -16.546 -15.901  24.134  0.00  0.00    +0.230 C 
ATOM     40  C   UNL     1     -13.901 -13.854  25.414  0.00  0.00    +0.040 C 
ATOM     41  C   UNL     1     -12.713 -14.254  26.037  0.00  0.00    +0.040 C 
ATOM     42  C   UNL     1     -12.336 -15.577  26.008  0.00  0.00    +0.134 C 
ATOM     43  C   UNL     1     -13.161 -16.483  25.353  0.00  0.00    +0.037 C 
BRANCH  42  44
ATOM     44  O   UNL     1     -11.177 -16.038  26.604  0.00  0.00    -0.506 OA
ATOM     45  H   UNL     1     -10.610 -15.440  27.050  0.00  0.00    +0.292 HD
ENDBRANCH  42  44
ENDBRANCH  32  35
BRANCH  33  46
ATOM     46  O   UNL     1     -16.728 -19.013  22.868  0.00  0.00    -0.466 OA
ATOM     47  H   UNL     1     -16.856 -18.781  23.767  0.00  0.00    +0.297 HD
ENDBRANCH  33  46
ENDBRANCH  31  32
ENDBRANCH   1  31
TORSDOF 8
