REMARK  Name = =
REMARK  3 active torsions:
REMARK  status: ('A' for Active; 'I' for Inactive)
REMARK    1  A    between atoms: C_1  and  N_3
REMARK    2  A    between atoms: C_1  and  N_4
REMARK    3  A    between atoms: N_4  and  N_6
REMARK                            x       y       z     vdW  Elec       q    Type
REMARK                         _______ _______ _______ _____ _____    ______ ____
ROOT
ATOM      1  C   UNL     1     -16.779 -42.151  27.138  0.00  0.00    +0.147 C 
ATOM      2  S   UNL     1     -17.043 -42.150  25.508  0.00  0.00    -0.017 S 
ENDROOT
BRANCH   1   3
ATOM      3  N   UNL     1     -17.860 -41.742  27.947  0.00  0.00    -0.339 N 
ATOM      4  H   UNL     1     -17.762 -41.722  28.926  0.00  0.00    +0.144 HD
ATOM      5  H   UNL     1     -18.712 -41.476  27.532  0.00  0.00    +0.144 HD
ENDBRANCH   1   3
BRANCH   1   6
ATOM      6  N   UNL     1     -15.524 -42.546  27.652  0.00  0.00    -0.218 N 
ATOM      7  H   UNL     1     -15.306 -42.392  28.600  0.00  0.00    +0.176 HD
BRANCH   6   9
ATOM      8  C   UNL     1     -13.336 -42.873  26.853  0.00  0.00    +0.140 C 
ATOM      9  N   UNL     1     -14.602 -43.151  26.814  0.00  0.00    -0.177 NA
ENDBRANCH   6   9
ENDBRANCH   1   6
TORSDOF 3
