REMARK  Name = =
REMARK  10 active torsions:
REMARK  status: ('A' for Active; 'I' for Inactive)
REMARK    1  A    between atoms: C_1  and  O_23
REMARK    2  A    between atoms: C_2  and  C_10
REMARK    3  A    between atoms: C_3  and  O_9
REMARK    4  A    between atoms: C_4  and  O_8
REMARK    5  A    between atoms: C_5  and  O_7
REMARK    6  A    between atoms: C_10  and  C_12
REMARK    7  A    between atoms: N_11  and  N_19
REMARK    8  A    between atoms: N_19  and  C_20
REMARK    9  A    between atoms: C_20  and  N_22
REMARK   10  A    between atoms: O_23  and  C_25
REMARK                            x       y       z     vdW  Elec       q    Type
REMARK                         _______ _______ _______ _____ _____    ______ ____
ROOT
ATOM      1  C   UNL     1     -22.281 -42.393  23.777  0.00  0.00    +0.153 C 
ATOM      2  C   UNL     1     -23.396 -42.780  23.088  0.00  0.00    +0.087 C 
ATOM      3  C   UNL     1     -24.173 -41.755  22.531  0.00  0.00    +0.175 C 
ATOM      4  C   UNL     1     -23.835 -40.440  22.672  0.00  0.00    +0.202 C 
ATOM      5  C   UNL     1     -22.698 -40.058  23.378  0.00  0.00    +0.174 C 
ATOM      6  C   UNL     1     -21.939 -41.040  23.920  0.00  0.00    +0.077 C 
ENDROOT
BRANCH   5   7
ATOM      7  O   UNL     1     -22.388 -38.716  23.501  0.00  0.00    -0.503 OA
ATOM      8  H   UNL     1     -22.942 -38.069  23.109  0.00  0.00    +0.292 HD
ENDBRANCH   5   7
BRANCH   4   9
ATOM      9  O   UNL     1     -24.598 -39.437  22.127  0.00  0.00    -0.501 OA
ATOM     10  H   UNL     1     -25.372 -39.648  21.643  0.00  0.00    +0.292 HD
ENDBRANCH   4   9
BRANCH   3  11
ATOM     11  O   UNL     1     -25.295 -42.161  21.837  0.00  0.00    -0.503 OA
ATOM     12  H   UNL     1     -25.857 -41.524  21.441  0.00  0.00    +0.292 HD
ENDBRANCH   3  11
BRANCH   2  13
ATOM     13  C   UNL     1     -23.810 -44.182  22.932  0.00  0.00    +0.089 C 
ATOM     14  N   UNL     1     -24.836 -44.388  22.209  0.00  0.00    -0.184 NA
BRANCH  13  15
ATOM     15  C   UNL     1     -23.131 -45.254  23.626  0.00  0.00    +0.099 C 
ATOM     16  C   UNL     1     -23.727 -45.516  24.997  0.00  0.00    +0.013 C 
ATOM     17  C   UNL     1     -24.935 -46.458  24.868  0.00  0.00    +0.001 C 
ATOM     18  C   UNL     1     -24.557 -47.775  24.295  0.00  0.00    +0.008 C 
ATOM     19  C   UNL     1     -23.196 -47.802  23.654  0.00  0.00    +0.065 C 
ATOM     20  C   UNL     1     -22.969 -46.541  22.929  0.00  0.00    +0.156 C 
ATOM     21  O   UNL     1     -22.646 -46.583  21.759  0.00  0.00    -0.296 OA
ENDBRANCH  13  15
BRANCH  14  22
ATOM     22  N   UNL     1     -25.499 -45.516  21.850  0.00  0.00    -0.218 N 
ATOM     23  H   UNL     1     -25.672 -46.209  22.527  0.00  0.00    +0.176 HD
BRANCH  22  24
ATOM     24  C   UNL     1     -25.956 -45.722  20.498  0.00  0.00    +0.147 C 
ATOM     25  S   UNL     1     -26.697 -47.115  20.119  0.00  0.00    -0.017 S 
BRANCH  24  26
ATOM     26  N   UNL     1     -25.729 -44.684  19.572  0.00  0.00    -0.339 N 
ATOM     27  H   UNL     1     -25.274 -43.860  19.859  0.00  0.00    +0.144 HD
ATOM     28  H   UNL     1     -26.026 -44.783  18.639  0.00  0.00    +0.144 HD
ENDBRANCH  24  26
ENDBRANCH  22  24
ENDBRANCH  14  22
ENDBRANCH   2  13
BRANCH   1  29
ATOM     29  O   UNL     1     -21.420 -43.274  24.373  0.00  0.00    -0.450 OA
BRANCH  29  31
ATOM     30  C   UNL     1     -19.220 -42.554  24.268  0.00  0.00    +0.083 C 
ATOM     31  C   UNL     1     -20.256 -42.913  25.006  0.00  0.00    +0.187 C 
ATOM     32  C   UNL     1     -20.158 -42.922  26.466  0.00  0.00    +0.230 C 
ATOM     33  O   UNL     1     -21.121 -43.255  27.177  0.00  0.00    -0.283 OA
ATOM     34  C   UNL     1     -18.901 -42.530  27.128  0.00  0.00    +0.045 C 
ATOM     35  C   UNL     1     -17.840 -42.162  26.335  0.00  0.00    +0.042 C 
ATOM     36  C   UNL     1     -16.645 -41.788  26.901  0.00  0.00    +0.003 C 
ATOM     37  C   UNL     1     -16.523 -41.787  28.272  0.00  0.00    +0.000 C 
ATOM     38  C   UNL     1     -17.598 -42.159  29.059  0.00  0.00    +0.000 C 
ATOM     39  C   UNL     1     -18.782 -42.530  28.500  0.00  0.00    +0.003 C 
ATOM     40  C   UNL     1     -17.958 -42.159  24.868  0.00  0.00    +0.199 C 
ATOM     41  O   UNL     1     -17.003 -41.827  24.127  0.00  0.00    -0.286 OA
ENDBRANCH  29  31
ENDBRANCH   1  29
TORSDOF 10
