REMARK  Name = =
REMARK  3 active torsions:
REMARK  status: ('A' for Active; 'I' for Inactive)
REMARK    1  A    between atoms: C_1  and  O_22
REMARK    2  A    between atoms: C_10  and  C_12
REMARK    3  A    between atoms: O_22  and  N_24
REMARK                            x       y       z     vdW  Elec       q    Type
REMARK                         _______ _______ _______ _____ _____    ______ ____
ROOT
ATOM      1  C   UNL     1       2.131  -5.015  27.950  0.00  0.00    +0.196 C 
ATOM      2  C   UNL     1       0.723  -4.491  28.097  0.00  0.00    +0.047 C 
ATOM      3  C   UNL     1       0.573  -3.084  27.673  0.00  0.00    +0.022 C 
ATOM      4  C   UNL     1       1.864  -2.367  27.452  0.00  0.00    +0.004 C 
ATOM      5  C   UNL     1       2.650  -3.112  26.398  0.00  0.00    +0.004 C 
ATOM      6  C   UNL     1       2.629  -4.594  26.577  0.00  0.00    +0.046 C 
ATOM      7  C   UNL     1      -0.456  -2.312  28.360  0.00  0.00    -0.044 C 
ATOM      8  C   UNL     1      -0.795  -1.118  27.902  0.00  0.00    -0.009 C 
ATOM      9  C   UNL     1      -1.180  -2.784  29.583  0.00  0.00    +0.024 C 
ATOM     10  C   UNL     1      -1.300  -4.304  29.433  0.00  0.00    +0.031 C 
ATOM     11  C   UNL     1       0.094  -4.843  29.400  0.00  0.00    +0.007 C 
ENDROOT
BRANCH  10  12
ATOM     12  C   UNL     1      -2.111  -4.790  30.595  0.00  0.00    +0.116 C 
ATOM     13  O   UNL     1      -1.895  -6.115  30.906  0.00  0.00    -0.354 OA
ATOM     14  C   UNL     1      -2.383  -6.394  32.183  0.00  0.00    +0.172 C 
ATOM     15  C   UNL     1      -3.674  -5.676  32.405  0.00  0.00    +0.147 C 
ATOM     16  C   UNL     1      -4.371  -5.571  31.046  0.00  0.00    +0.035 C 
ATOM     17  C   UNL     1      -3.575  -4.525  30.269  0.00  0.00    +0.032 C 
ATOM     18  O   UNL     1      -4.484  -6.228  33.363  0.00  0.00    -0.327 OA
ATOM     19  C   UNL     1      -4.540  -7.618  33.304  0.00  0.00    +0.294 C 
ATOM     20  O   UNL     1      -3.247  -8.080  33.572  0.00  0.00    -0.324 OA
ATOM     21  C   UNL     1      -2.454  -7.872  32.451  0.00  0.00    +0.177 C 
ENDBRANCH  10  12
BRANCH   1  22
ATOM     22  O   UNL     1       3.016  -4.482  28.895  0.00  0.00    -0.381 OA
BRANCH  22  24
ATOM     23  C   UNL     1       2.797  -5.209  31.096  0.00  0.00    +0.164 C 
ATOM     24  N   UNL     1       2.575  -4.315  30.193  0.00  0.00    -0.080 NA
ENDBRANCH  22  24
ENDBRANCH   1  22
TORSDOF 3
