REMARK  Name = =
REMARK  7 active torsions:
REMARK  status: ('A' for Active; 'I' for Inactive)
REMARK    1  A    between atoms: C_1  and  C_20
REMARK    2  A    between atoms: C_8  and  N_27
REMARK    3  A    between atoms: C_11  and  O_24
REMARK    4  A    between atoms: C_15  and  C_22
REMARK    5  A    between atoms: O_24  and  N_26
REMARK    6  A    between atoms: C_28  and  C_30
REMARK    7  A    between atoms: C_31  and  O_36
REMARK                            x       y       z     vdW  Elec       q    Type
REMARK                         _______ _______ _______ _____ _____    ______ ____
ROOT
ATOM      1  C   UNL     1       2.858  -5.919  27.959  0.00  0.00    +0.116 C 
ATOM      2  O   UNL     1       1.668  -5.436  27.426  0.00  0.00    -0.354 OA
ATOM      3  C   UNL     1       0.683  -5.369  28.354  0.00  0.00    +0.172 C 
ATOM      4  C   UNL     1       1.085  -5.545  29.774  0.00  0.00    +0.149 C 
ATOM      5  C   UNL     1       2.411  -4.944  30.133  0.00  0.00    +0.035 C 
ATOM      6  C   UNL     1       3.345  -4.872  28.935  0.00  0.00    +0.032 C 
ATOM      7  O   UNL     1       0.096  -4.952  30.564  0.00  0.00    -0.315 OA
ATOM      8  C   UNL     1      -1.093  -4.791  29.852  0.00  0.00    +0.325 C 
ATOM      9  O   UNL     1      -1.447  -5.915  29.143  0.00  0.00    -0.312 OA
ATOM     10  C   UNL     1      -0.572  -6.116  28.076  0.00  0.00    +0.178 C 
ENDROOT
BRANCH   1  20
ATOM     11  C   UNL     1       4.143  -8.647  23.974  0.00  0.00    +0.197 C 
ATOM     12  C   UNL     1       4.355  -7.388  24.755  0.00  0.00    +0.047 C 
ATOM     13  C   UNL     1       5.729  -7.116  25.215  0.00  0.00    +0.022 C 
ATOM     14  C   UNL     1       6.823  -7.369  24.262  0.00  0.00    +0.009 C 
ATOM     15  C   UNL     1       6.496  -8.316  23.156  0.00  0.00    +0.026 C 
ATOM     16  C   UNL     1       5.399  -9.274  23.459  0.00  0.00    +0.051 C 
ATOM     17  C   UNL     1       5.974  -7.442  26.622  0.00  0.00    -0.044 C 
ATOM     18  C   UNL     1       6.828  -8.326  27.089  0.00  0.00    -0.009 C 
ATOM     19  C   UNL     1       5.146  -6.674  27.612  0.00  0.00    +0.024 C 
ATOM     20  C   UNL     1       3.877  -6.254  26.906  0.00  0.00    +0.031 C 
ATOM     21  C   UNL     1       3.383  -7.250  25.908  0.00  0.00    +0.007 C 
BRANCH  15  22
ATOM     22  C   UNL     1       7.716  -9.041  22.735  0.00  0.00    -0.026 C 
ATOM     23  C   UNL     1       7.859 -10.349  22.841  0.00  0.00    -0.005 C 
ENDBRANCH  15  22
BRANCH  11  24
ATOM     24  O   UNL     1       3.503  -9.581  24.823  0.00  0.00    -0.381 OA
BRANCH  24  26
ATOM     25  C   UNL     1       1.694 -10.985  25.294  0.00  0.00    +0.164 C 
ATOM     26  N   UNL     1       2.287 -10.155  24.499  0.00  0.00    -0.080 NA
ENDBRANCH  24  26
ENDBRANCH  11  24
ENDBRANCH   1  20
BRANCH   8  27
ATOM     27  N   UNL     1      -2.142  -4.570  30.869  0.00  0.00    -0.255 N 
ATOM     28  C   UNL     1      -3.206  -3.682  30.633  0.00  0.00    +0.252 C 
ATOM     29  O   UNL     1      -3.182  -3.101  29.494  0.00  0.00    -0.270 OA
ATOM     30  H   UNL     1      -2.095  -5.053  31.726  0.00  0.00    +0.154 HD
BRANCH  28  31
ATOM     31  C   UNL     1      -4.271  -3.393  31.542  0.00  0.00    +0.087 C 
ATOM     32  C   UNL     1      -4.291  -3.855  32.828  0.00  0.00    +0.138 C 
ATOM     33  C   UNL     1      -5.373  -3.520  33.637  0.00  0.00    +0.037 C 
ATOM     34  C   UNL     1      -6.405  -2.755  33.200  0.00  0.00    +0.003 C 
ATOM     35  C   UNL     1      -6.357  -2.299  31.887  0.00  0.00    +0.000 C 
ATOM     36  C   UNL     1      -5.321  -2.599  31.057  0.00  0.00    +0.008 C 
BRANCH  32  37
ATOM     37  O   UNL     1      -3.290  -4.643  33.371  0.00  0.00    -0.505 OA
ATOM     38  H   UNL     1      -2.549  -4.884  32.850  0.00  0.00    +0.292 HD
ENDBRANCH  32  37
ENDBRANCH  28  31
ENDBRANCH   8  27
TORSDOF 7
