REMARK  Name = =
REMARK  1 active torsions:
REMARK  status: ('A' for Active; 'I' for Inactive)
REMARK    1  A    between atoms: C_1  and  O_7
REMARK                            x       y       z     vdW  Elec       q    Type
REMARK                         _______ _______ _______ _____ _____    ______ ____
ROOT
ATOM      1  C   UNL     1      51.868 156.635  29.297  0.00  0.00    +0.137 C 
ATOM      2  C   UNL     1      52.448 157.882  29.247  0.00  0.00    +0.057 C 
ATOM      3  C   UNL     1      51.760 158.974  29.730  0.00  0.00    +0.102 C 
ATOM      4  N   UNL     1      50.509 158.818  30.254  0.00  0.00    -0.242 NA
ATOM      5  C   UNL     1      49.918 157.614  30.315  0.00  0.00    +0.102 C 
ATOM      6  C   UNL     1      50.590 156.503  29.837  0.00  0.00    +0.057 C 
ENDROOT
BRANCH   1   7
ATOM      7  O   UNL     1      52.537 155.536  28.822  0.00  0.00    -0.505 OA
ATOM      8  H   UNL     1      52.135 154.690  28.860  0.00  0.00    +0.292 HD
ENDBRANCH   1   7
TORSDOF 1
