REMARK  Name = =
REMARK  3 active torsions:
REMARK  status: ('A' for Active; 'I' for Inactive)
REMARK    1  A    between atoms: C_1  and  O_7
REMARK    2  A    between atoms: C_6  and  O_8
REMARK    3  A    between atoms: O_8  and  C_9
REMARK                            x       y       z     vdW  Elec       q    Type
REMARK                         _______ _______ _______ _____ _____    ______ ____
ROOT
ATOM      1  C   UNL     1      54.034 156.939  25.951  0.00  0.00    +0.188 C 
ATOM      2  C   UNL     1      54.079 156.290  24.728  0.00  0.00    +0.139 C 
ATOM      3  N   UNL     1      53.308 155.219  24.543  0.00  0.00    -0.239 NA
ATOM      4  C   UNL     1      52.494 154.760  25.515  0.00  0.00    +0.102 C 
ATOM      5  C   UNL     1      52.442 155.402  26.743  0.00  0.00    +0.061 C 
ATOM      6  C   UNL     1      53.221 156.514  26.979  0.00  0.00    +0.182 C 
ENDROOT
BRANCH   1   7
ATOM      7  O   UNL     1      54.842 158.053  26.127  0.00  0.00    -0.502 OA
ATOM      8  H   UNL     1      54.834 158.513  26.943  0.00  0.00    +0.292 HD
ENDBRANCH   1   7
BRANCH   6   9
ATOM      9  O   UNL     1      53.219 157.192  28.161  0.00  0.00    -0.450 OA
BRANCH   9  10
ATOM     10  C   UNL     1      52.150 157.500  28.941  0.00  0.00    +0.149 C 
ATOM     11  C   UNL     1      51.961 158.768  29.438  0.00  0.00    +0.058 C 
ATOM     12  C   UNL     1      50.850 159.057  30.238  0.00  0.00    +0.102 C 
ATOM     13  N   UNL     1      49.973 158.104  30.519  0.00  0.00    -0.242 NA
ATOM     14  C   UNL     1      50.106 156.862  30.066  0.00  0.00    +0.102 C 
ATOM     15  C   UNL     1      51.210 156.554  29.264  0.00  0.00    +0.058 C 
ENDBRANCH   9  10
ENDBRANCH   6   9
TORSDOF 3
