REMARK  Name = =
REMARK  6 active torsions:
REMARK  status: ('A' for Active; 'I' for Inactive)
REMARK    1  A    between atoms: C_1  and  O_7
REMARK    2  A    between atoms: C_6  and  C_15
REMARK    3  A    between atoms: O_7  and  C_13
REMARK    4  A    between atoms: C_8  and  O_14
REMARK    5  A    between atoms: C_15  and  C_16
REMARK    6  A    between atoms: C_15  and  O_22
REMARK                            x       y       z     vdW  Elec       q    Type
REMARK                         _______ _______ _______ _____ _____    ______ ____
ROOT
ATOM      1  C   UNL     1      50.790 157.395  29.778  0.00  0.00    +0.147 C 
ATOM      2  C   UNL     1      49.457 156.957  29.685  0.00  0.00    +0.058 C 
ATOM      3  C   UNL     1      48.423 157.810  29.943  0.00  0.00    +0.102 C 
ATOM      4  N   UNL     1      48.644 159.083  30.291  0.00  0.00    -0.242 NA
ATOM      5  C   UNL     1      49.890 159.583  30.402  0.00  0.00    +0.100 C 
ATOM      6  C   UNL     1      50.956 158.713  30.140  0.00  0.00    +0.062 C 
ENDROOT
BRANCH   1   7
ATOM      7  O   UNL     1      51.831 156.551  29.518  0.00  0.00    -0.450 OA
BRANCH   7  13
ATOM      8  C   UNL     1      51.983 154.669  28.004  0.00  0.00    +0.188 C 
ATOM      9  C   UNL     1      52.430 154.116  26.784  0.00  0.00    +0.139 C 
ATOM     10  N   UNL     1      53.132 154.866  25.926  0.00  0.00    -0.239 NA
ATOM     11  C   UNL     1      53.410 156.147  26.226  0.00  0.00    +0.102 C 
ATOM     12  C   UNL     1      52.983 156.695  27.404  0.00  0.00    +0.061 C 
ATOM     13  C   UNL     1      52.243 155.971  28.352  0.00  0.00    +0.182 C 
BRANCH   8  14
ATOM     14  O   UNL     1      51.274 153.832  28.826  0.00  0.00    -0.502 OA
ATOM     15  H   UNL     1      50.952 154.145  29.649  0.00  0.00    +0.292 HD
ENDBRANCH   8  14
ENDBRANCH   7  13
ENDBRANCH   1   7
BRANCH   6  16
ATOM     16  C   UNL     1      52.322 159.263  30.310  0.00  0.00    +0.159 C 
BRANCH  16  17
ATOM     17  C   UNL     1      52.283 160.678  30.811  0.00  0.00    +0.009 C 
ATOM     18  C   UNL     1      51.195 161.175  31.512  0.00  0.00    -0.002 C 
ATOM     19  C   UNL     1      51.130 162.447  31.992  0.00  0.00    -0.000 C 
ATOM     20  C   UNL     1      52.182 163.318  31.793  0.00  0.00    -0.000 C 
ATOM     21  C   UNL     1      53.291 162.859  31.095  0.00  0.00    -0.000 C 
ATOM     22  C   UNL     1      53.329 161.567  30.621  0.00  0.00    -0.002 C 
ENDBRANCH  16  17
BRANCH  16  23
ATOM     23  O   UNL     1      53.170 159.073  29.263  0.00  0.00    -0.375 OA
ATOM     24  H   UNL     1      53.145 158.142  28.992  0.00  0.00    +0.211 HD
ENDBRANCH  16  23
ENDBRANCH   6  16
TORSDOF 6
