REMARK  Name = =
REMARK  7 active torsions:
REMARK  status: ('A' for Active; 'I' for Inactive)
REMARK    1  A    between atoms: O_1  and  C_7
REMARK    2  A    between atoms: O_1  and  C_16
REMARK    3  A    between atoms: C_2  and  O_8
REMARK    4  A    between atoms: O_8  and  C_15
REMARK    5  A    between atoms: C_21  and  C_22
REMARK    6  A    between atoms: C_22  and  C_23
REMARK    7  A    between atoms: C_22  and  O_29
REMARK                            x       y       z     vdW  Elec       q    Type
REMARK                         _______ _______ _______ _____ _____    ______ ____
ROOT
ATOM      1  O   UNL     1      51.774 157.461  28.176  0.00  0.00    -0.450 OA
ENDROOT
BRANCH   1   7
ATOM      2  C   UNL     1      51.975 155.028  28.171  0.00  0.00    +0.202 C 
ATOM      3  C   UNL     1      51.654 153.859  28.817  0.00  0.00    +0.140 C 
ATOM      4  N   UNL     1      50.914 153.803  29.964  0.00  0.00    -0.239 NA
ATOM      5  C   UNL     1      50.460 154.925  30.525  0.00  0.00    +0.102 C 
ATOM      6  C   UNL     1      50.758 156.116  29.912  0.00  0.00    +0.061 C 
ATOM      7  C   UNL     1      51.497 156.239  28.756  0.00  0.00    +0.183 C 
BRANCH   2   8
ATOM      8  O   UNL     1      52.675 155.114  27.078  0.00  0.00    -0.419 OA
BRANCH   8  15
ATOM      9  O   UNL     1      53.597 155.214  24.964  0.00  0.00    -0.420 OA
ATOM     10  C   UNL     1      54.218 154.738  23.943  0.00  0.00    +0.186 C 
ATOM     11  C   UNL     1      54.685 153.440  23.870  0.00  0.00    +0.083 C 
ATOM     12  C   UNL     1      54.449 152.655  24.972  0.00  0.00    +0.205 C 
ATOM     13  O   UNL     1      54.831 151.463  25.009  0.00  0.00    -0.286 OA
ATOM     14  C   UNL     1      53.768 153.214  26.065  0.00  0.00    +0.120 C 
ATOM     15  C   UNL     1      53.323 154.513  26.088  0.00  0.00    +0.305 C 
ENDBRANCH   8  15
ENDBRANCH   2   8
ENDBRANCH   1   7
BRANCH   1  16
ATOM     16  C   UNL     1      53.056 158.023  28.300  0.00  0.00    +0.147 C 
ATOM     17  C   UNL     1      54.016 157.579  27.370  0.00  0.00    +0.058 C 
ATOM     18  C   UNL     1      55.274 158.093  27.451  0.00  0.00    +0.102 C 
ATOM     19  N   UNL     1      55.592 159.005  28.403  0.00  0.00    -0.242 NA
ATOM     20  C   UNL     1      54.692 159.434  29.290  0.00  0.00    +0.100 C 
ATOM     21  C   UNL     1      53.405 158.943  29.247  0.00  0.00    +0.062 C 
BRANCH  21  22
ATOM     22  C   UNL     1      52.396 159.472  30.217  0.00  0.00    +0.159 C 
BRANCH  22  23
ATOM     23  C   UNL     1      52.759 160.854  30.646  0.00  0.00    +0.009 C 
ATOM     24  C   UNL     1      52.858 161.091  32.002  0.00  0.00    -0.002 C 
ATOM     25  C   UNL     1      53.190 162.352  32.443  0.00  0.00    -0.000 C 
ATOM     26  C   UNL     1      53.411 163.332  31.498  0.00  0.00    -0.000 C 
ATOM     27  C   UNL     1      53.308 163.080  30.132  0.00  0.00    -0.000 C 
ATOM     28  C   UNL     1      52.975 161.817  29.687  0.00  0.00    -0.002 C 
ENDBRANCH  22  23
BRANCH  22  29
ATOM     29  O   UNL     1      51.197 159.616  29.528  0.00  0.00    -0.375 OA
ATOM     30  H   UNL     1      50.897 158.748  29.216  0.00  0.00    +0.211 HD
ENDBRANCH  22  29
ENDBRANCH  21  22
ENDBRANCH   1  16
TORSDOF 7
