REMARK  Name = =
REMARK  0 active torsions:
REMARK  status: ('A' for Active; 'I' for Inactive)
REMARK                            x       y       z     vdW  Elec       q    Type
REMARK                         _______ _______ _______ _____ _____    ______ ____
ROOT
ATOM      1  C   UNL     1      52.973 156.568  27.719  0.00  0.00    +0.199 C 
ATOM      2  N   UNL     1      52.363 155.368  27.712  0.00  0.00    -0.222 NA
ATOM      3  C   UNL     1      51.395 155.077  28.607  0.00  0.00    +0.102 C 
ATOM      4  C   UNL     1      50.988 155.988  29.564  0.00  0.00    +0.041 C 
ATOM      5  C   UNL     1      51.635 157.208  29.543  0.00  0.00    +0.102 C 
ATOM      6  N   UNL     1      52.597 157.474  28.640  0.00  0.00    -0.222 NA
ENDROOT
TORSDOF 0
