REMARK  Name = =
REMARK  1 active torsions:
REMARK  status: ('A' for Active; 'I' for Inactive)
REMARK    1  A    between atoms: C_8  and  O_10
REMARK                            x       y       z     vdW  Elec       q    Type
REMARK                         _______ _______ _______ _____ _____    ______ ____
ROOT
ATOM      1  C   UNL     1      53.021 156.650  27.661  0.00  0.00    +0.200 C 
ATOM      2  N   UNL     1      52.726 155.344  27.440  0.00  0.00    -0.209 NA
ATOM      3  C   UNL     1      51.878 154.683  28.247  0.00  0.00    +0.140 C 
ATOM      4  C   UNL     1      51.341 155.404  29.290  0.00  0.00    +0.055 C 
ATOM      5  C   UNL     1      51.640 156.733  29.516  0.00  0.00    +0.104 C 
ATOM      6  N   UNL     1      52.491 157.350  28.682  0.00  0.00    -0.222 NA
ATOM      7  N   UNL     1      51.520 153.323  28.084  0.00  0.00    -0.235 N 
ATOM      8  C   UNL     1      52.045 152.511  27.052  0.00  0.00    +0.403 C 
ATOM      9  O   UNL     1      52.857 153.031  26.257  0.00  0.00    -0.226 OA
ATOM     10  H   UNL     1      50.878 152.926  28.716  0.00  0.00    +0.160 HD
ENDROOT
BRANCH   8  11
ATOM     11  O   UNL     1      51.702 151.173  26.878  0.00  0.00    -0.466 OA
ATOM     12  H   UNL     1      51.095 150.765  27.464  0.00  0.00    +0.297 HD
ENDBRANCH   8  11
TORSDOF 1
