REMARK  Name = =
REMARK  5 active torsions:
REMARK  status: ('A' for Active; 'I' for Inactive)
REMARK    1  A    between atoms: C_4  and  O_11
REMARK    2  A    between atoms: C_8  and  O_10
REMARK    3  A    between atoms: O_11  and  C_12
REMARK    4  A    between atoms: C_14  and  O_20
REMARK    5  A    between atoms: C_15  and  C_18
REMARK                            x       y       z     vdW  Elec       q    Type
REMARK                         _______ _______ _______ _____ _____    ______ ____
ROOT
ATOM      1  C   UNL     1      53.294 156.410  27.916  0.00  0.00    +0.200 C 
ATOM      2  N   UNL     1      52.105 155.990  28.387  0.00  0.00    -0.206 NA
ATOM      3  C   UNL     1      51.359 156.750  29.195  0.00  0.00    +0.175 C 
ATOM      4  C   UNL     1      51.832 158.014  29.556  0.00  0.00    +0.196 C 
ATOM      5  C   UNL     1      53.049 158.434  29.068  0.00  0.00    +0.141 C 
ATOM      6  N   UNL     1      53.777 157.636  28.252  0.00  0.00    -0.219 NA
ATOM      7  N   UNL     1      50.104 156.304  29.692  0.00  0.00    -0.233 N 
ATOM      8  C   UNL     1      49.545 155.126  29.155  0.00  0.00    +0.403 C 
ATOM      9  O   UNL     1      50.156 154.492  28.254  0.00  0.00    -0.226 OA
ATOM     10  H   UNL     1      49.635 156.807  30.396  0.00  0.00    +0.160 HD
ENDROOT
BRANCH   8  11
ATOM     11  O   UNL     1      48.324 154.659  29.611  0.00  0.00    -0.466 OA
ATOM     12  H   UNL     1      47.864 155.126  30.281  0.00  0.00    +0.297 HD
ENDBRANCH   8  11
BRANCH   4  13
ATOM     13  O   UNL     1      51.039 158.767  30.387  0.00  0.00    -0.449 OA
BRANCH  13  14
ATOM     14  C   UNL     1      51.345 160.012  30.863  0.00  0.00    +0.149 C 
ATOM     15  C   UNL     1      52.526 160.660  30.561  0.00  0.00    +0.074 C 
ATOM     16  C   UNL     1      52.839 161.911  31.036  0.00  0.00    +0.140 C 
ATOM     17  C   UNL     1      51.934 162.561  31.858  0.00  0.00    +0.076 C 
ATOM     18  C   UNL     1      50.742 161.925  32.171  0.00  0.00    +0.009 C 
ATOM     19  C   UNL     1      50.439 160.656  31.682  0.00  0.00    +0.038 C 
BRANCH  17  20
ATOM     20  C   UNL     1      52.233 163.886  32.378  0.00  0.00    +0.237 C 
ATOM     21  O   UNL     1      53.217 164.518  31.956  0.00  0.00    -0.283 OA
ENDBRANCH  17  20
BRANCH  16  22
ATOM     22  O   UNL     1      54.028 162.566  30.734  0.00  0.00    -0.505 OA
ATOM     23  H   UNL     1      54.662 162.154  30.181  0.00  0.00    +0.292 HD
ENDBRANCH  16  22
ENDBRANCH  13  14
ENDBRANCH   4  13
TORSDOF 5
