REMARK  Name = =
REMARK  7 active torsions:
REMARK  status: ('A' for Active; 'I' for Inactive)
REMARK    1  A    between atoms: C_1  and  C_11
REMARK    2  A    between atoms: C_3  and  N_7
REMARK    3  A    between atoms: C_4  and  O_13
REMARK    4  A    between atoms: C_8  and  O_10
REMARK    5  A    between atoms: O_13  and  C_14
REMARK    6  A    between atoms: C_16  and  O_22
REMARK    7  A    between atoms: C_17  and  C_20
REMARK                            x       y       z     vdW  Elec       q    Type
REMARK                         _______ _______ _______ _____ _____    ______ ____
ROOT
ATOM      1  C   UNL     1      54.189 161.045  30.270  0.00  0.00    +0.183 C 
ATOM      2  N   UNL     1      53.002 161.309  30.882  0.00  0.00    -0.207 NA
ATOM      3  C   UNL     1      52.034 160.368  30.952  0.00  0.00    +0.175 C 
ATOM      4  C   UNL     1      52.225 159.120  30.408  0.00  0.00    +0.196 C 
ATOM      5  C   UNL     1      53.423 158.842  29.785  0.00  0.00    +0.141 C 
ATOM      6  N   UNL     1      54.350 159.820  29.747  0.00  0.00    -0.220 NA
ENDROOT
BRANCH   3   7
ATOM      7  N   UNL     1      50.798 160.642  31.588  0.00  0.00    -0.233 N 
ATOM      8  C   UNL     1      50.566 161.957  32.083  0.00  0.00    +0.403 C 
ATOM      9  O   UNL     1      51.459 162.833  31.942  0.00  0.00    -0.226 OA
ATOM     10  H   UNL     1      50.115 159.939  31.686  0.00  0.00    +0.160 HD
BRANCH   8  11
ATOM     11  O   UNL     1      49.384 162.312  32.719  0.00  0.00    -0.466 OA
ATOM     12  H   UNL     1      48.705 161.676  32.835  0.00  0.00    +0.297 HD
ENDBRANCH   8  11
ENDBRANCH   3   7
BRANCH   1  13
ATOM     13  C   UNL     1      55.234 162.051  30.191  0.00  0.00    +0.128 C 
ATOM     14  N   UNL     1      55.216 163.106  30.917  0.00  0.00    -0.294 NA
ATOM     15  H   UNL     1      55.940 163.769  30.840  0.00  0.00    +0.187 HD
ENDBRANCH   1  13
BRANCH   4  16
ATOM     16  O   UNL     1      51.195 158.203  30.513  0.00  0.00    -0.449 OA
BRANCH  16  17
ATOM     17  C   UNL     1      51.297 157.023  29.776  0.00  0.00    +0.149 C 
ATOM     18  C   UNL     1      52.443 156.274  29.840  0.00  0.00    +0.074 C 
ATOM     19  C   UNL     1      52.516 155.094  29.092  0.00  0.00    +0.140 C 
ATOM     20  C   UNL     1      51.469 154.700  28.317  0.00  0.00    +0.076 C 
ATOM     21  C   UNL     1      50.310 155.505  28.286  0.00  0.00    +0.009 C 
ATOM     22  C   UNL     1      50.224 156.658  29.010  0.00  0.00    +0.038 C 
BRANCH  20  23
ATOM     23  C   UNL     1      51.469 153.491  27.514  0.00  0.00    +0.237 C 
ATOM     24  O   UNL     1      52.452 152.767  27.305  0.00  0.00    -0.283 OA
ENDBRANCH  20  23
BRANCH  19  25
ATOM     25  O   UNL     1      53.674 154.360  29.170  0.00  0.00    -0.505 OA
ATOM     26  H   UNL     1      54.380 154.654  29.712  0.00  0.00    +0.292 HD
ENDBRANCH  19  25
ENDBRANCH  16  17
ENDBRANCH   4  16
TORSDOF 7
