REMARK  Name = =
REMARK  9 active torsions:
REMARK  status: ('A' for Active; 'I' for Inactive)
REMARK    1  A    between atoms: C_1  and  C_7
REMARK    2  A    between atoms: C_3  and  N_14
REMARK    3  A    between atoms: C_4  and  O_29
REMARK    4  A    between atoms: C_7  and  C_10
REMARK    5  A    between atoms: N_14  and  N_17
REMARK    6  A    between atoms: C_15  and  O_28
REMARK    7  A    between atoms: O_29  and  C_30
REMARK    8  A    between atoms: C_32  and  O_38
REMARK    9  A    between atoms: C_33  and  C_36
REMARK                            x       y       z     vdW  Elec       q    Type
REMARK                         _______ _______ _______ _____ _____    ______ ____
ROOT
ATOM      1  C   UNL     1      54.403 158.803  28.958  0.00  0.00    +0.184 C 
ATOM      2  N   UNL     1      53.318 158.351  29.542  0.00  0.00    -0.205 NA
ATOM      3  C   UNL     1      52.478 157.445  29.050  0.00  0.00    +0.195 C 
ATOM      4  C   UNL     1      52.788 156.928  27.788  0.00  0.00    +0.198 C 
ATOM      5  C   UNL     1      53.931 157.401  27.168  0.00  0.00    +0.141 C 
ATOM      6  N   UNL     1      54.741 158.325  27.728  0.00  0.00    -0.220 NA
ENDROOT
BRANCH   1   7
ATOM      7  C   UNL     1      55.241 159.794  29.594  0.00  0.00    +0.142 C 
ATOM      8  N   UNL     1      56.540 159.663  29.577  0.00  0.00    -0.293 NA
ATOM      9  H   UNL     1      56.951 158.887  29.131  0.00  0.00    +0.187 HD
BRANCH   7  11
ATOM     10  O   UNL     1      55.390 161.828  30.948  0.00  0.00    -0.449 OA
ATOM     11  C   UNL     1      54.662 160.954  30.262  0.00  0.00    +0.165 C 
ATOM     12  C   UNL     1      53.354 161.365  30.326  0.00  0.00    +0.042 C 
ATOM     13  C   UNL     1      53.339 162.513  31.074  0.00  0.00    +0.044 C 
ATOM     14  C   UNL     1      54.637 162.774  31.447  0.00  0.00    +0.180 C 
ENDBRANCH   7  11
ENDBRANCH   1   7
BRANCH   3  15
ATOM     15  N   UNL     1      51.312 156.995  29.734  0.00  0.00    -0.122 N 
ATOM     16  C   UNL     1      51.142 155.612  29.973  0.00  0.00    +0.424 C 
ATOM     17  O   UNL     1      50.117 155.205  30.576  0.00  0.00    -0.224 OA
BRANCH  15  18
ATOM     18  N   UNL     1      50.322 157.873  30.181  0.00  0.00    -0.136 N 
ATOM     19  C   UNL     1      48.905 157.791  30.020  0.00  0.00    +0.272 C 
ATOM     20  O   UNL     1      48.284 156.874  29.423  0.00  0.00    -0.268 OA
ATOM     21  C   UNL     1      48.252 158.931  30.649  0.00  0.00    +0.060 C 
ATOM     22  C   UNL     1      49.244 159.719  31.198  0.00  0.00    +0.060 C 
ATOM     23  C   UNL     1      48.886 160.876  31.861  0.00  0.00    +0.005 C 
ATOM     24  C   UNL     1      47.568 161.264  31.988  0.00  0.00    +0.000 C 
ATOM     25  C   UNL     1      46.565 160.481  31.442  0.00  0.00    +0.000 C 
ATOM     26  C   UNL     1      46.930 159.326  30.781  0.00  0.00    +0.005 C 
ATOM     27  C   UNL     1      50.531 159.089  30.923  0.00  0.00    +0.272 C 
ATOM     28  O   UNL     1      51.682 159.484  31.249  0.00  0.00    -0.268 OA
ENDBRANCH  15  18
BRANCH  16  29
ATOM     29  O   UNL     1      52.051 154.657  29.576  0.00  0.00    -0.465 OA
ATOM     30  H   UNL     1      52.831 154.912  29.123  0.00  0.00    +0.297 HD
ENDBRANCH  16  29
ENDBRANCH   3  15
BRANCH   4  31
ATOM     31  O   UNL     1      51.941 155.990  27.250  0.00  0.00    -0.449 OA
BRANCH  31  32
ATOM     32  C   UNL     1      52.452 154.969  26.452  0.00  0.00    +0.149 C 
ATOM     33  C   UNL     1      52.477 153.675  26.897  0.00  0.00    +0.074 C 
ATOM     34  C   UNL     1      52.975 152.662  26.125  0.00  0.00    +0.140 C 
ATOM     35  C   UNL     1      53.477 152.914  24.846  0.00  0.00    +0.076 C 
ATOM     36  C   UNL     1      53.447 154.210  24.409  0.00  0.00    +0.009 C 
ATOM     37  C   UNL     1      52.946 155.235  25.185  0.00  0.00    +0.038 C 
BRANCH  35  38
ATOM     38  C   UNL     1      54.002 151.826  24.041  0.00  0.00    +0.237 C 
ATOM     39  O   UNL     1      54.041 150.658  24.494  0.00  0.00    -0.283 OA
ENDBRANCH  35  38
BRANCH  34  40
ATOM     40  O   UNL     1      53.006 151.347  26.567  0.00  0.00    -0.505 OA
ATOM     41  H   UNL     1      52.680 151.131  27.418  0.00  0.00    +0.292 HD
ENDBRANCH  34  40
ENDBRANCH  31  32
ENDBRANCH   4  31
TORSDOF 9
