REMARK  Name = =
REMARK  12 active torsions:
REMARK  status: ('A' for Active; 'I' for Inactive)
REMARK    1  A    between atoms: P_1  and  O_2
REMARK    2  A    between atoms: P_1  and  O_17
REMARK    3  A    between atoms: O_2  and  O_16
REMARK    4  A    between atoms: S_3  and  N_5
REMARK    5  A    between atoms: S_3  and  S_13
REMARK    6  A    between atoms: N_5  and  O_9
REMARK    7  A    between atoms: O_9  and  C_10
REMARK    8  A    between atoms: C_10  and  O_12
REMARK    9  A    between atoms: S_13  and  S_14
REMARK   10  A    between atoms: S_13  and  S_15
REMARK   11  A    between atoms: O_18  and  N_19
REMARK   12  A    between atoms: C_22  and  C_27
REMARK                            x       y       z     vdW  Elec       q    Type
REMARK                         _______ _______ _______ _____ _____    ______ ____
ROOT
ATOM      1  P   UNL     1      50.558 157.825  29.756  0.00  0.00    +0.291 P 
ENDROOT
BRANCH   1   2
ATOM      2  O   UNL     1      52.147 157.758  30.246  0.00  0.00    -0.341 OA
ATOM      3  H   UNL     1      52.653 158.455  29.799  0.00  0.00    +0.217 HD
ENDBRANCH   1   2
BRANCH   1   4
ATOM      4  O   UNL     1      50.190 156.641  30.649  0.00  0.00    -0.177 OA
BRANCH   4   5
ATOM      5  O   UNL     1      49.185 157.737  30.707  0.00  0.00    -0.244 OA
ATOM      6  H   UNL     1      48.470 157.488  31.314  0.00  0.00    +0.253 HD
ENDBRANCH   4   5
ENDBRANCH   1   4
TORSDOF 3
REMARK  Name = =
REMARK  12 active torsions:
REMARK  status: ('A' for Active; 'I' for Inactive)
REMARK    1  A    between atoms: P_1  and  O_2
REMARK    2  A    between atoms: P_1  and  O_17
REMARK    3  A    between atoms: O_2  and  O_16
REMARK    4  A    between atoms: S_3  and  N_5
REMARK    5  A    between atoms: S_3  and  S_13
REMARK    6  A    between atoms: N_5  and  O_9
REMARK    7  A    between atoms: O_9  and  C_10
REMARK    8  A    between atoms: C_10  and  O_12
REMARK    9  A    between atoms: S_13  and  S_14
REMARK   10  A    between atoms: S_13  and  S_15
REMARK   11  A    between atoms: O_18  and  N_19
REMARK   12  A    between atoms: C_22  and  C_27
REMARK                            x       y       z     vdW  Elec       q    Type
REMARK                         _______ _______ _______ _____ _____    ______ ____
ROOT
ATOM      1  N   UNL     1      49.835 161.354  30.929  0.00  0.00    -0.048 N 
ATOM      2  C   UNL     1      48.746 161.008  30.150  0.00  0.00    +0.343 C 
ATOM      3  O   UNL     1      47.575 161.047  30.648  0.00  0.00    -0.249 OA
ATOM      4  N   UNL     1      48.931 160.607  28.797  0.00  0.00    -0.310 N 
ATOM      5  H   UNL     1      48.153 160.361  28.246  0.00  0.00    +0.147 HD
ATOM      6  H   UNL     1      49.837 160.575  28.412  0.00  0.00    +0.147 HD
ENDROOT
BRANCH   1   7
ATOM      7  S   UNL     1      51.373 161.327  30.288  0.00  0.00    +0.007 S 
ATOM      8  P   UNL     1      51.684 159.601  29.731  0.00  0.00    +0.061 P 
BRANCH   7   9
ATOM      9  S   UNL     1      52.658 161.969  31.381  0.00  0.00    -0.097 S 
ATOM     10  H   UNL     1      52.111 162.573  32.469  0.00  0.00    +0.115 HD
BRANCH   9  11
ATOM     11  S   UNL     1      53.453 162.839  30.288  0.00  0.00    -0.113 S 
ATOM     12  H   UNL     1      53.905 162.022  29.300  0.00  0.00    +0.114 HD
ENDBRANCH   9  11
BRANCH   9  13
ATOM     13  S   UNL     1      53.552 161.065  32.219  0.00  0.00    -0.113 S 
ATOM     14  H   UNL     1      54.290 160.271  31.398  0.00  0.00    +0.114 HD
ENDBRANCH   9  13
ENDBRANCH   7   9
ENDBRANCH   1   7
BRANCH   1  15
ATOM     15  O   UNL     1      49.646 161.740  32.234  0.00  0.00    -0.299 OA
BRANCH  15  16
ATOM     16  C   UNL     1      49.240 160.950  33.271  0.00  0.00    +0.532 C 
ATOM     17  O   UNL     1      49.367 159.720  33.186  0.00  0.00    -0.201 OA
BRANCH  16  18
ATOM     18  O   UNL     1      48.699 161.595  34.381  0.00  0.00    -0.448 OA
ATOM     19  H   UNL     1      48.406 161.095  35.117  0.00  0.00    +0.299 HD
ENDBRANCH  16  18
ENDBRANCH  15  16
ENDBRANCH   1  15
TORSDOF 7
REMARK  Name = =
REMARK  12 active torsions:
REMARK  status: ('A' for Active; 'I' for Inactive)
REMARK    1  A    between atoms: P_1  and  O_2
REMARK    2  A    between atoms: P_1  and  O_17
REMARK    3  A    between atoms: O_2  and  O_16
REMARK    4  A    between atoms: S_3  and  N_5
REMARK    5  A    between atoms: S_3  and  S_13
REMARK    6  A    between atoms: N_5  and  O_9
REMARK    7  A    between atoms: O_9  and  C_10
REMARK    8  A    between atoms: C_10  and  O_12
REMARK    9  A    between atoms: S_13  and  S_14
REMARK   10  A    between atoms: S_13  and  S_15
REMARK   11  A    between atoms: O_18  and  N_19
REMARK   12  A    between atoms: C_22  and  C_27
REMARK                            x       y       z     vdW  Elec       q    Type
REMARK                         _______ _______ _______ _____ _____    ______ ____
ROOT
ATOM      1  N   UNL     1      51.481 155.999  28.286  0.00  0.00    -0.113 N 
ATOM      2  C   UNL     1      52.898 155.889  28.096  0.00  0.00    +0.273 C 
ATOM      3  O   UNL     1      53.621 156.902  28.192  0.00  0.00    -0.271 OA
ATOM      4  C   UNL     1      53.516 154.560  27.782  0.00  0.00    +0.161 C 
ATOM      5  N   UNL     1      52.917 153.472  28.478  0.00  0.00    -0.280 NA
ATOM      6  C   UNL     1      51.499 153.453  28.574  0.00  0.00    +0.158 C 
ATOM      7  C   UNL     1      50.827 154.753  28.560  0.00  0.00    +0.270 C 
ATOM      8  O   UNL     1      49.598 154.783  28.805  0.00  0.00    -0.271 OA
ATOM      9  H   UNL     1      53.287 153.477  29.428  0.00  0.00    +0.124 HD
ENDROOT
BRANCH   4  10
ATOM     10  C   UNL     1      53.545 154.424  26.314  0.00  0.00    +0.042 C 
ATOM     11  C   UNL     1      53.180 153.398  25.597  0.00  0.00    +0.041 C 
ATOM     12  C   UNL     1      53.390 153.727  24.171  0.00  0.00    +0.179 C 
ATOM     13  O   UNL     1      54.031 154.942  24.118  0.00  0.00    -0.448 OA
ATOM     14  C   UNL     1      54.015 155.485  25.386  0.00  0.00    +0.177 C 
ENDBRANCH   4  10
BRANCH   1  15
ATOM     15  O   UNL     1      50.829 157.173  28.211  0.00  0.00    -0.285 OA
ATOM     16  H   UNL     1      49.883 157.028  28.369  0.00  0.00    +0.242 HD
ENDBRANCH   1  15
TORSDOF 2
