MODEL 1
REMARK VINA RESULT:    -7.016      0.000      0.000
REMARK INTER + INTRA:          -8.256
REMARK INTER:                  -9.477
REMARK INTRA:                   1.221
REMARK UNBOUND:                 1.221
REMARK  Name = 
REMARK  11 active torsions:
REMARK  status: ('A' for Active; 'I' for Inactive)
REMARK    1  A    between atoms: C_1  and  C_27
REMARK    2  A    between atoms: C_2  and  O_3
REMARK    3  A    between atoms: O_3  and  C_4
REMARK    4  A    between atoms: C_4  and  C_5
REMARK    5  A    between atoms: C_5  and  N_6
REMARK    6  A    between atoms: N_6  and  C_7
REMARK    7  A    between atoms: N_6  and  C_8
REMARK    8  A    between atoms: C_10  and  C_19
REMARK    9  A    between atoms: C_12  and  C_14
REMARK   10  A    between atoms: N_21  and  C_22
REMARK   11  A    between atoms: N_21  and  C_23
REMARK                            x       y       z     vdW  Elec       q    Type
REMARK                         _______ _______ _______ _____ _____    ______ ____
ROOT
ATOM      1  C   UNL     1      -1.350  -4.980  28.765  0.00  0.00    +0.000 C 
ATOM      2  C   UNL     1      -2.379  -4.888  29.471  0.00  0.00    +0.000 C 
ATOM      3  C   UNL     1      -2.122  -6.111  30.169  0.00  0.00    +0.000 C 
ATOM      4  C   UNL     1      -0.899  -6.200  29.435  0.00  0.00    +0.000 C 
ATOM      5  N   UNL     1       0.322  -5.929  30.165  0.00  0.00    +0.000 N 
ATOM      6  C   UNL     1       0.689  -4.609  30.491  0.00  0.00    +0.000 C 
ATOM      7  O   UNL     1      -0.077  -3.669  30.195  0.00  0.00    +0.000 OA
ATOM      8  C   UNL     1       1.954  -4.251  31.173  0.00  0.00    +0.000 C 
ATOM      9  C   UNL     1       1.203  -7.021  30.622  0.00  0.00    +0.000 C 
ATOM     10  C   UNL     1       1.304  -7.053  32.136  0.00  0.00    +0.000 C 
ATOM     11  N   UNL     1       0.142  -6.391  32.658  0.00  0.00    +0.000 NA
ATOM     12  C   UNL     1      -0.653  -7.298  33.420  0.00  0.00    +0.000 C 
ATOM     13  C   UNL     1      -2.656  -6.981  31.051  0.00  0.00    +0.000 C 
ATOM     14  C   UNL     1      -2.082  -8.187  31.571  0.00  0.00    +0.000 C 
ATOM     15  C   UNL     1      -1.232  -8.363  32.566  0.00  0.00    +0.000 C 
ATOM     16  H   UNL     1       0.379  -5.595  33.319  0.00  0.00    +0.000 HD
ENDROOT
BRANCH   4  17
ATOM     17  C   UNL     1      -0.784  -7.356  28.481  0.00  0.00    +0.000 C 
ATOM     18  O   UNL     1      -1.733  -8.209  28.631  0.00  0.00    +0.000 OA
ATOM     19  N   UNL     1       0.166  -7.593  27.516  0.00  0.00    +0.000 N 
ATOM     20  C   UNL     1       1.296  -6.785  27.117  0.00  0.00    +0.000 C 
ATOM     21  C   UNL     1       0.078  -8.855  26.732  0.00  0.00    +0.000 C 
ENDBRANCH   4  17
BRANCH   1  22
ATOM     22  C   UNL     1      -0.728  -4.179  27.691  0.00  0.00    +0.000 C 
ATOM     23  O   UNL     1      -1.355  -3.185  27.262  0.00  0.00    +0.000 OA
ENDBRANCH   1  22
BRANCH   2  24
ATOM     24  O   UNL     1      -3.409  -3.885  29.506  0.00  0.00    +0.000 OA
BRANCH  24  25
ATOM     25  C   UNL     1      -3.587  -3.123  30.669  0.00  0.00    +0.000 C 
BRANCH  25  26
ATOM     26  C   UNL     1      -4.896  -3.472  31.367  0.00  0.00    +0.000 C 
BRANCH  26  27
ATOM     27  N   UNL     1      -4.635  -3.375  32.802  0.00  0.00    +0.000 NA
ATOM     28  C   UNL     1      -4.271  -4.700  33.263  0.00  0.00    +0.000 C 
ATOM     29  C   UNL     1      -5.837  -2.892  33.442  0.00  0.00    +0.000 C 
ENDBRANCH  26  27
ENDBRANCH  25  26
ENDBRANCH  24  25
ENDBRANCH   2  24
TORSDOF 6
ENDMDL
