MODEL 1
REMARK VINA RESULT:    -8.542      0.000      0.000
REMARK INTER + INTRA:         -11.633
REMARK INTER:                 -11.039
REMARK INTRA:                  -0.594
REMARK UNBOUND:                -0.594
REMARK  Name = 
REMARK  6 active torsions:
REMARK  status: ('A' for Active; 'I' for Inactive)
REMARK    1  A    between atoms: C_5  and  N_8
REMARK    2  A    between atoms: N_8  and  C_9
REMARK    3  A    between atoms: C_9  and  C_10
REMARK    4  A    between atoms: C_10  and  N_11
REMARK    5  A    between atoms: C_12  and  C_13
REMARK    6  A    between atoms: N_17  and  C_21
REMARK                            x       y       z     vdW  Elec       q    Type
REMARK                         _______ _______ _______ _____ _____    ______ ____
ROOT
ATOM      1  N   UNL     1      -7.128  -1.599  31.930  0.00  0.00    +0.000 N 
ATOM      2  C   UNL     1      -5.843  -1.827  31.688  0.00  0.00    +0.000 A 
ATOM      3  C   UNL     1      -5.224  -0.571  31.627  0.00  0.00    +0.000 A 
ATOM      4  N   UNL     1      -6.179   0.335  31.837  0.00  0.00    +0.000 NA
ATOM      5  C   UNL     1      -7.357  -0.246  32.026  0.00  0.00    +0.000 A 
ENDROOT
BRANCH   2   6
ATOM      6  C   UNL     1      -5.048  -3.037  31.537  0.00  0.00    +0.000 A 
ATOM      7  C   UNL     1      -4.926  -3.936  32.607  0.00  0.00    +0.000 A 
ATOM      8  C   UNL     1      -4.181  -5.074  32.579  0.00  0.00    +0.000 A 
ATOM      9  C   UNL     1      -3.488  -5.388  31.424  0.00  0.00    +0.000 A 
ATOM     10  N   UNL     1      -2.697  -6.580  31.367  0.00  0.00    +0.000 N 
ATOM     11  C   UNL     1      -2.788  -7.615  32.387  0.00  0.00    +0.000 C 
ATOM     12  C   UNL     1      -4.104  -7.420  33.120  0.00  0.00    +0.000 C 
ATOM     13  C   UNL     1      -4.059  -6.014  33.704  0.00  0.00    +0.000 C 
ATOM     14  C   UNL     1      -1.795  -6.734  30.262  0.00  0.00    +0.000 C 
ATOM     15  C   UNL     1      -3.567  -4.556  30.355  0.00  0.00    +0.000 A 
ATOM     16  C   UNL     1      -4.343  -3.389  30.415  0.00  0.00    +0.000 A 
ENDBRANCH   2   6
BRANCH   1  17
ATOM     17  C   UNL     1      -8.166  -2.567  32.099  0.00  0.00    +0.000 C 
BRANCH  17  18
ATOM     18  C   UNL     1      -9.380  -2.103  32.824  0.00  0.00    +0.000 C 
BRANCH  18  19
ATOM     19  N   UNL     1      -9.678  -2.927  33.989  0.00  0.00    +0.000 NA
ATOM     20  H   UNL     1      -9.250  -3.869  33.810  0.00  0.00    +0.000 HD
BRANCH  19  25
ATOM     21  S   UNL     1     -13.341  -2.677  32.911  0.00  0.00    +0.000 S 
ATOM     22  O   UNL     1     -13.568  -2.588  31.429  0.00  0.00    +0.000 OA
ATOM     23  O   UNL     1     -14.484  -2.128  33.701  0.00  0.00    +0.000 OA
ATOM     24  C   UNL     1     -11.783  -1.952  33.370  0.00  0.00    +0.000 C 
ATOM     25  C   UNL     1     -11.121  -3.063  34.113  0.00  0.00    +0.000 C 
ATOM     26  C   UNL     1     -11.515  -4.374  33.531  0.00  0.00    +0.000 C 
ATOM     27  C   UNL     1     -13.021  -4.382  33.393  0.00  0.00    +0.000 C 
ENDBRANCH  19  25
ENDBRANCH  18  19
ENDBRANCH  17  18
ENDBRANCH   1  17
TORSDOF 5
ENDMDL
