MODEL 1
REMARK VINA RESULT:    -8.020      0.000      0.000
REMARK INTER + INTRA:         -10.062
REMARK INTER:                  -9.661
REMARK INTRA:                  -0.401
REMARK UNBOUND:                -0.401
REMARK  Name = 
REMARK  7 active torsions:
REMARK  status: ('A' for Active; 'I' for Inactive)
REMARK    1  A    between atoms: C_5  and  C_14
REMARK    2  A    between atoms: C_5  and  C_15
REMARK    3  A    between atoms: C_9  and  C_11
REMARK    4  A    between atoms: C_11  and  C_12
REMARK    5  A    between atoms: C_12  and  C_13
REMARK    6  A    between atoms: C_18  and  C_20
REMARK    7  A    between atoms: C_20  and  O_22
REMARK                            x       y       z     vdW  Elec       q    Type
REMARK                         _______ _______ _______ _____ _____    ______ ____
ROOT
ATOM      1  C   UNL     1      -3.376  -5.185  30.852  0.00  0.00    +0.000 C 
ATOM      2  C   UNL     1      -2.498  -4.656  29.794  0.00  0.00    +0.000 A 
ATOM      3  C   UNL     1      -1.593  -5.538  29.215  0.00  0.00    +0.000 A 
ATOM      4  O   UNL     1      -1.579  -6.828  29.665  0.00  0.00    +0.000 OA
ATOM      5  C   UNL     1      -1.911  -7.220  30.985  0.00  0.00    +0.000 C 
ATOM      6  C   UNL     1      -2.671  -6.193  31.745  0.00  0.00    +0.000 C 
ATOM      7  C   UNL     1      -3.742  -6.792  32.643  0.00  0.00    +0.000 C 
ATOM      8  C   UNL     1      -4.312  -5.636  33.458  0.00  0.00    +0.000 C 
ATOM      9  C   UNL     1      -4.765  -4.531  32.518  0.00  0.00    +0.000 C 
ATOM     10  O   UNL     1      -3.753  -4.125  31.671  0.00  0.00    +0.000 OA
ATOM     11  C   UNL     1      -2.622  -8.555  30.920  0.00  0.00    +0.000 C 
ATOM     12  C   UNL     1      -0.577  -7.483  31.690  0.00  0.00    +0.000 C 
ATOM     13  C   UNL     1      -0.770  -5.051  28.225  0.00  0.00    +0.000 A 
ATOM     14  C   UNL     1      -0.858  -3.730  27.837  0.00  0.00    +0.000 A 
ATOM     15  C   UNL     1      -1.768  -2.875  28.431  0.00  0.00    +0.000 A 
ATOM     16  C   UNL     1      -2.600  -3.348  29.423  0.00  0.00    +0.000 A 
ENDROOT
BRANCH  15  17
ATOM     17  C   UNL     1      -1.834  -1.486  27.996  0.00  0.00    +0.000 C 
ATOM     18  O   UNL     1      -2.384  -0.620  28.698  0.00  0.00    +0.000 OA
BRANCH  17  19
ATOM     19  O   UNL     1      -1.279  -1.104  26.783  0.00  0.00    +0.000 OA
ATOM     20  H   UNL     1      -0.692  -1.791  26.300  0.00  0.00    +0.000 HD
ENDBRANCH  17  19
ENDBRANCH  15  17
BRANCH   9  21
ATOM     21  C   UNL     1      -5.249  -3.353  33.296  0.00  0.00    +0.000 C 
BRANCH  21  22
ATOM     22  C   UNL     1      -5.710  -2.212  32.445  0.00  0.00    +0.000 C 
ATOM     23  C   UNL     1      -7.080  -2.561  31.896  0.00  0.00    +0.000 C 
ENDBRANCH  21  22
ENDBRANCH   9  21
TORSDOF 4
ENDMDL
