MODEL 1
REMARK VINA RESULT:    -6.993      0.000      0.000
REMARK INTER + INTRA:         -10.109
REMARK INTER:                  -9.446
REMARK INTRA:                  -0.663
REMARK UNBOUND:                -0.663
REMARK  Name = 
REMARK  8 active torsions:
REMARK  status: ('A' for Active; 'I' for Inactive)
REMARK    1  A    between atoms: C_2  and  C_18
REMARK    2  A    between atoms: C_4  and  C_6
REMARK    3  A    between atoms: C_6  and  C_7
REMARK    4  A    between atoms: C_7  and  C_8
REMARK    5  A    between atoms: C_8  and  O_10
REMARK    6  A    between atoms: O_10  and  C_11
REMARK    7  A    between atoms: C_11  and  C_12
REMARK    8  A    between atoms: C_19  and  C_20
REMARK                            x       y       z     vdW  Elec       q    Type
REMARK                         _______ _______ _______ _____ _____    ______ ____
ROOT
ATOM      1  C   UNL     1      -3.916  -6.894  31.392  0.00  0.00    +0.000 C 
ENDROOT
BRANCH   1   2
ATOM      2  C   UNL     1      -2.434  -7.154  31.225  0.00  0.00    +0.000 C 
ATOM      3  C   UNL     1      -1.702  -5.960  30.698  0.00  0.00    +0.000 C 
ATOM      4  C   UNL     1      -1.175  -6.176  29.288  0.00  0.00    +0.000 C 
ATOM      5  N   UNL     1      -0.252  -7.279  29.221  0.00  0.00    +0.000 NA
ATOM      6  C   UNL     1      -0.737  -8.393  29.999  0.00  0.00    +0.000 C 
ATOM      7  C   UNL     1      -2.239  -8.280  30.206  0.00  0.00    +0.000 C 
ATOM      8  H   UNL     1       0.680  -6.954  29.569  0.00  0.00    +0.000 HD
BRANCH   2   9
ATOM      9  C   UNL     1      -1.886  -7.635  32.509  0.00  0.00    +0.000 C 
ATOM     10  O   UNL     1      -2.407  -8.594  33.164  0.00  0.00    +0.000 OA
BRANCH   9  11
ATOM     11  O   UNL     1      -0.768  -7.053  33.057  0.00  0.00    +0.000 OA
BRANCH  11  12
ATOM     12  C   UNL     1       0.421  -7.747  33.377  0.00  0.00    +0.000 C 
ATOM     13  C   UNL     1       1.499  -6.671  33.557  0.00  0.00    +0.000 C 
ENDBRANCH  11  12
ENDBRANCH   9  11
ENDBRANCH   2   9
ENDBRANCH   1   2
BRANCH   1  17
ATOM     14  N   UNL     1      -4.044  -3.885  33.380  0.00  0.00    +0.000 NA
ATOM     15  C   UNL     1      -4.747  -3.455  32.317  0.00  0.00    +0.000 A 
ATOM     16  C   UNL     1      -4.786  -4.522  31.445  0.00  0.00    +0.000 A 
ATOM     17  C   UNL     1      -4.095  -5.563  32.031  0.00  0.00    +0.000 A 
ATOM     18  O   UNL     1      -3.675  -5.130  33.181  0.00  0.00    +0.000 OA
BRANCH  15  19
ATOM     19  C   UNL     1      -5.343  -2.137  32.125  0.00  0.00    +0.000 A 
ATOM     20  C   UNL     1      -6.601  -1.824  32.596  0.00  0.00    +0.000 A 
ATOM     21  C   UNL     1      -7.340  -2.875  33.313  0.00  0.00    +0.000 C 
ATOM     22  C   UNL     1      -7.158  -0.562  32.406  0.00  0.00    +0.000 A 
ATOM     23  C   UNL     1      -6.408   0.375  31.725  0.00  0.00    +0.000 A 
ATOM     24  C   UNL     1      -5.161   0.108  31.243  0.00  0.00    +0.000 A 
ATOM     25  C   UNL     1      -4.642  -1.160  31.453  0.00  0.00    +0.000 A 
ENDBRANCH  15  19
ENDBRANCH   1  17
TORSDOF 6
ENDMDL
