MODEL 1
REMARK VINA RESULT:    -9.470      0.000      0.000
REMARK INTER + INTRA:         -19.972
REMARK INTER:                 -16.944
REMARK INTRA:                  -3.028
REMARK UNBOUND:                -3.028
REMARK  Name = 
REMARK  16 active torsions:
REMARK  status: ('A' for Active; 'I' for Inactive)
REMARK    1  A    between atoms: C_3  and  S_13
REMARK    2  A    between atoms: C_5  and  C_12
REMARK    3  A    between atoms: C_10  and  C_11
REMARK    4  A    between atoms: S_13  and  C_14
REMARK    5  A    between atoms: C_14  and  C_15
REMARK    6  A    between atoms: C_15  and  C_16
REMARK    7  A    between atoms: C_16  and  O_18
REMARK    8  A    between atoms: O_18  and  C_19
REMARK    9  A    between atoms: C_19  and  C_20
REMARK   10  A    between atoms: C_19  and  CA_29
REMARK   11  A    between atoms: N_22  and  C_23
REMARK   12  A    between atoms: CA_29  and  C_30
REMARK   13  A    between atoms: CA_29  and  N_33
REMARK   14  A    between atoms: C_30  and  OXT_32
REMARK   15  A    between atoms: N_33  and  C_34
REMARK   16  A    between atoms: C_34  and  C_35
REMARK                            x       y       z     vdW  Elec       q    Type
REMARK                         _______ _______ _______ _____ _____    ______ ____
ROOT
ATOM      1  C   UNL     1      -4.467  -3.709  31.599  0.00  0.00    +0.000 C 
ENDROOT
BRANCH   1   2
ATOM      2  C   UNL     1      -3.528  -3.642  30.409  0.00  0.00    +0.000 C 
ATOM      3  O   UNL     1      -3.325  -4.645  29.707  0.00  0.00    +0.000 OA
ATOM      4  N   UNL     1      -2.864  -2.435  30.124  0.00  0.00    +0.000 N 
ATOM      5  H   UNL     1      -3.137  -1.621  30.700  0.00  0.00    +0.000 HD
BRANCH   4   6
ATOM      6  C   UNL     1      -1.859  -2.304  29.117  0.00  0.00    +0.000 C 
ATOM      7  C   UNL     1      -1.802  -1.077  28.296  0.00  0.00    +0.000 C 
ATOM      8  C   UNL     1      -1.118  -1.563  26.982  0.00  0.00    +0.000 C 
ATOM      9  C   UNL     1      -0.176  -2.705  27.258  0.00  0.00    +0.000 C 
ATOM     10  C   UNL     1       0.526  -2.483  28.599  0.00  0.00    +0.000 C 
ATOM     11  C   UNL     1      -0.536  -2.653  29.685  0.00  0.00    +0.000 C 
ENDBRANCH   4   6
ENDBRANCH   1   2
BRANCH   1  12
ATOM     12  O   UNL     1      -4.702  -5.101  31.761  0.00  0.00    +0.000 OA
BRANCH  12  13
ATOM     13  C   UNL     1      -4.119  -5.726  32.936  0.00  0.00    +0.000 C 
ATOM     14  O   UNL     1      -3.389  -5.133  33.682  0.00  0.00    +0.000 OA
BRANCH  13  15
ATOM     15  C   UNL     1      -4.513  -7.182  33.087  0.00  0.00    +0.000 C 
BRANCH  15  16
ATOM     16  C   UNL     1      -3.297  -7.925  33.577  0.00  0.00    +0.000 C 
BRANCH  16  17
ATOM     17  S   UNL     1      -2.376  -8.822  32.352  0.00  0.00    +0.000 S 
BRANCH  17  20
ATOM     18  C   UNL     1       0.180  -7.067  29.881  0.00  0.00    +0.000 A 
ATOM     19  N   UNL     1      -0.869  -7.721  30.374  0.00  0.00    +0.000 NA
ATOM     20  C   UNL     1      -0.972  -7.897  31.732  0.00  0.00    +0.000 A 
ATOM     21  C   UNL     1       0.033  -7.391  32.496  0.00  0.00    +0.000 A 
ATOM     22  C   UNL     1       1.093  -6.724  32.014  0.00  0.00    +0.000 A 
ATOM     23  C   UNL     1       1.193  -6.534  30.625  0.00  0.00    +0.000 A 
ATOM     24  C   UNL     1       2.200  -5.802  30.074  0.00  0.00    +0.000 A 
ATOM     25  C   UNL     1       2.216  -5.577  28.703  0.00  0.00    +0.000 A 
ATOM     26  C   UNL     1       1.193  -6.124  27.942  0.00  0.00    +0.000 A 
ATOM     27  C   UNL     1       0.190  -6.864  28.502  0.00  0.00    +0.000 A 
ATOM     28  C   UNL     1      -0.775  -7.604  27.604  0.00  0.00    +0.000 C 
ATOM     29  C   UNL     1       2.251  -6.287  32.848  0.00  0.00    +0.000 C 
ENDBRANCH  17  20
ENDBRANCH  16  17
ENDBRANCH  15  16
ENDBRANCH  13  15
ENDBRANCH  12  13
ENDBRANCH   1  12
BRANCH   1  30
ATOM     30  CA  UNL     1      -5.397  -2.701  31.868  0.00  0.00    +0.000 C 
BRANCH  30  31
ATOM     31  C   UNL     1      -5.978  -2.784  33.331  0.00  0.00    +0.000 C 
ATOM     32  O   UNL     1      -7.194  -2.931  33.470  0.00  0.00    +0.000 OA
BRANCH  31  33
ATOM     33  OXT UNL     1      -5.159  -2.674  34.416  0.00  0.00    +0.000 OA
ATOM     34  HXT UNL     1      -4.393  -1.973  34.406  0.00  0.00    +0.000 HD
ENDBRANCH  31  33
ENDBRANCH  30  31
BRANCH  30  35
ATOM     35  N   UNL     1      -5.886  -1.521  31.420  0.00  0.00    +0.000 NA
ATOM     36  H   UNL     1      -6.811  -1.563  30.955  0.00  0.00    +0.000 HD
BRANCH  35  37
ATOM     37  C   UNL     1      -5.590  -0.231  31.903  0.00  0.00    +0.000 C 
BRANCH  37  38
ATOM     38  C   UNL     1      -6.823   0.607  31.540  0.00  0.00    +0.000 A 
ATOM     39  C   UNL     1      -8.086   0.212  31.504  0.00  0.00    +0.000 A 
ATOM     40  C   UNL     1      -9.099   1.083  31.072  0.00  0.00    +0.000 A 
ATOM     41  C   UNL     1      -8.755   2.366  30.684  0.00  0.00    +0.000 A 
ATOM     42  C   UNL     1      -7.464   2.780  30.716  0.00  0.00    +0.000 A 
ATOM     43  C   UNL     1      -6.475   1.904  31.144  0.00  0.00    +0.000 A 
ENDBRANCH  37  38
ENDBRANCH  35  37
ENDBRANCH  30  35
ENDBRANCH   1  30
TORSDOF 14
ENDMDL
