MODEL 1
REMARK VINA RESULT:    -8.978      0.000      0.000
REMARK INTER + INTRA:         -15.605
REMARK INTER:                 -13.965
REMARK INTRA:                  -1.641
REMARK UNBOUND:                -1.641
REMARK  Name = 
REMARK  12 active torsions:
REMARK  status: ('A' for Active; 'I' for Inactive)
REMARK    1  A    between atoms: C_3  and  O_4
REMARK    2  A    between atoms: O_4  and  C_5
REMARK    3  A    between atoms: C_5  and  C_6
REMARK    4  A    between atoms: C_6  and  O_7
REMARK    5  A    between atoms: C_6  and  C_8
REMARK    6  A    between atoms: C_8  and  N_9
REMARK    7  A    between atoms: N_9  and  C_10
REMARK    8  A    between atoms: C_17  and  N_18
REMARK    9  A    between atoms: C_19  and  C_20
REMARK   10  A    between atoms: C_20  and  O_22
REMARK   11  A    between atoms: O_22  and  C_23
REMARK   12  A    between atoms: C_23  and  C_24
REMARK                            x       y       z     vdW  Elec       q    Type
REMARK                         _______ _______ _______ _____ _____    ______ ____
ROOT
ATOM      1  C   UNL     1      -1.244  -3.351  29.786  0.00  0.00    +0.000 A 
ATOM      2  C   UNL     1      -0.861  -4.489  30.416  0.00  0.00    +0.000 A 
ATOM      3  C   UNL     1       0.439  -5.046  30.376  0.00  0.00    +0.000 A 
ATOM      4  C   UNL     1       1.356  -4.342  29.623  0.00  0.00    +0.000 A 
ATOM      5  C   UNL     1       1.001  -3.186  28.970  0.00  0.00    +0.000 A 
ATOM      6  C   UNL     1      -0.276  -2.670  29.030  0.00  0.00    +0.000 A 
ATOM      7  C   UNL     1      -0.601  -1.518  28.367  0.00  0.00    +0.000 A 
ATOM      8  C   UNL     1      -1.875  -1.030  28.441  0.00  0.00    +0.000 A 
ATOM      9  C   UNL     1      -2.820  -1.698  29.181  0.00  0.00    +0.000 A 
ATOM     10  C   UNL     1      -2.530  -2.872  29.871  0.00  0.00    +0.000 A 
ENDROOT
BRANCH  10  11
ATOM     11  N   UNL     1      -3.504  -3.542  30.633  0.00  0.00    +0.000 N 
ATOM     12  C   UNL     1      -3.972  -2.961  31.871  0.00  0.00    +0.000 C 
ATOM     13  C   UNL     1      -4.109  -3.963  32.972  0.00  0.00    +0.000 C 
ATOM     14  C   UNL     1      -3.751  -5.341  32.633  0.00  0.00    +0.000 A 
ATOM     15  C   UNL     1      -3.708  -5.814  31.345  0.00  0.00    +0.000 A 
ATOM     16  C   UNL     1      -4.047  -4.822  30.259  0.00  0.00    +0.000 C 
ATOM     17  C   UNL     1      -3.367  -7.118  31.097  0.00  0.00    +0.000 A 
ATOM     18  C   UNL     1      -3.061  -7.982  32.130  0.00  0.00    +0.000 A 
ATOM     19  C   UNL     1      -3.101  -7.524  33.412  0.00  0.00    +0.000 A 
ATOM     20  C   UNL     1      -3.439  -6.227  33.673  0.00  0.00    +0.000 A 
BRANCH  12  21
ATOM     21  C   UNL     1      -5.278  -2.270  31.750  0.00  0.00    +0.000 C 
ATOM     22  O   UNL     1      -5.266  -1.017  31.650  0.00  0.00    +0.000 OA
BRANCH  21  23
ATOM     23  O   UNL     1      -6.504  -2.902  31.738  0.00  0.00    +0.000 OA
BRANCH  23  24
ATOM     24  C   UNL     1      -7.576  -2.327  32.437  0.00  0.00    +0.000 C 
ATOM     25  C   UNL     1      -8.772  -2.076  31.543  0.00  0.00    +0.000 C 
ENDBRANCH  23  24
ENDBRANCH  21  23
ENDBRANCH  12  21
ENDBRANCH  10  11
BRANCH   3  26
ATOM     26  O   UNL     1       0.700  -6.173  31.044  0.00  0.00    +0.000 OA
BRANCH  26  27
ATOM     27  C   UNL     1       0.517  -6.810  32.197  0.00  0.00    +0.000 C 
BRANCH  27  28
ATOM     28  C   UNL     1       1.498  -6.717  33.318  0.00  0.00    +0.000 C 
BRANCH  28  29
ATOM     29  O   UNL     1       0.818  -6.164  34.449  0.00  0.00    +0.000 OA
ATOM     30  H   UNL     1       1.206  -5.303  34.691  0.00  0.00    +0.000 HD
ENDBRANCH  28  29
BRANCH  28  31
ATOM     31  C   UNL     1       2.709  -5.892  33.134  0.00  0.00    +0.000 C 
BRANCH  31  32
ATOM     32  N   UNL     1       2.399  -4.450  33.190  0.00  0.00    +0.000 NA
ATOM     33  C   UNL     1       3.167  -3.946  34.328  0.00  0.00    +0.000 C 
ATOM     34  H   UNL     1       2.770  -3.980  32.328  0.00  0.00    +0.000 HD
ENDBRANCH  31  32
ENDBRANCH  28  31
ENDBRANCH  27  28
ENDBRANCH  26  27
ENDBRANCH   3  26
TORSDOF 10
ENDMDL
