MODEL 1
REMARK VINA RESULT:    -8.585      0.000      0.000
REMARK INTER + INTRA:         -13.113
REMARK INTER:                 -12.098
REMARK INTRA:                  -1.015
REMARK UNBOUND:                -1.015
REMARK  Name = 
REMARK  12 active torsions:
REMARK  status: ('A' for Active; 'I' for Inactive)
REMARK    1  A    between atoms: N_2  and  C_29
REMARK    2  A    between atoms: C_3  and  C_26
REMARK    3  A    between atoms: C_5  and  C_6
REMARK    4  A    between atoms: C_9  and  C_10
REMARK    5  A    between atoms: C_10  and  N_11
REMARK    6  A    between atoms: N_11  and  C_23
REMARK    7  A    between atoms: C_12  and  C_14
REMARK    8  A    between atoms: C_17  and  N_18
REMARK    9  A    between atoms: N_18  and  C_19
REMARK   10  A    between atoms: N_18  and  C_20
REMARK   11  A    between atoms: C_26  and  N_27
REMARK   12  A    between atoms: N_27  and  C_28
REMARK                            x       y       z     vdW  Elec       q    Type
REMARK                         _______ _______ _______ _____ _____    ______ ____
ROOT
ATOM      1  C   UNL     1      -4.053  -6.260  33.462  0.00  0.00    +0.000 C 
ATOM      2  C   UNL     1      -4.554  -7.400  32.626  0.00  0.00    +0.000 C 
ATOM      3  C   UNL     1      -3.668  -7.724  31.468  0.00  0.00    +0.000 C 
ATOM      4  C   UNL     1      -2.206  -7.735  31.856  0.00  0.00    +0.000 C 
ATOM      5  C   UNL     1      -2.081  -7.719  33.333  0.00  0.00    +0.000 C 
ATOM      6  C   UNL     1      -2.599  -6.346  33.798  0.00  0.00    +0.000 C 
ENDROOT
BRANCH   1  11
ATOM      7  N   UNL     1      -3.527  -4.475  31.749  0.00  0.00    +0.000 NA
ATOM      8  N   UNL     1      -3.984  -3.321  31.303  0.00  0.00    +0.000 N 
ATOM      9  C   UNL     1      -5.100  -3.050  32.035  0.00  0.00    +0.000 A 
ATOM     10  C   UNL     1      -5.308  -4.074  32.940  0.00  0.00    +0.000 A 
ATOM     11  C   UNL     1      -4.282  -4.966  32.726  0.00  0.00    +0.000 A 
ATOM     12  C   UNL     1      -3.414  -2.497  30.240  0.00  0.00    +0.000 C 
BRANCH   9  13
ATOM     13  C   UNL     1      -5.938  -1.859  31.878  0.00  0.00    +0.000 C 
BRANCH  13  14
ATOM     14  N   UNL     1      -7.190  -2.139  31.199  0.00  0.00    +0.000 NA
ATOM     15  C   UNL     1      -8.330  -1.682  31.930  0.00  0.00    +0.000 C 
ATOM     16  H   UNL     1      -7.183  -1.932  30.197  0.00  0.00    +0.000 HD
ENDBRANCH  13  14
ENDBRANCH   9  13
ENDBRANCH   1  11
BRANCH   4  17
ATOM     17  C   UNL     1      -1.427  -8.771  31.126  0.00  0.00    +0.000 C 
BRANCH  17  18
ATOM     18  N   UNL     1      -0.584  -8.179  30.145  0.00  0.00    +0.000 N 
ATOM     19  C   UNL     1       0.466  -7.315  30.265  0.00  0.00    +0.000 C 
ATOM     20  O   UNL     1       1.021  -6.964  29.105  0.00  0.00    +0.000 OA
ATOM     21  C   UNL     1      -0.915  -8.574  28.723  0.00  0.00    +0.000 C 
BRANCH  19  22
ATOM     22  C   UNL     1       1.069  -6.725  31.442  0.00  0.00    +0.000 A 
ATOM     23  C   UNL     1       1.666  -5.445  31.312  0.00  0.00    +0.000 A 
ATOM     24  C   UNL     1       2.257  -4.812  32.368  0.00  0.00    +0.000 A 
ATOM     25  C   UNL     1       2.321  -5.356  33.631  0.00  0.00    +0.000 A 
ATOM     26  C   UNL     1       1.747  -6.593  33.766  0.00  0.00    +0.000 A 
ATOM     27  C   UNL     1       1.139  -7.253  32.693  0.00  0.00    +0.000 A 
BRANCH  25  28
ATOM     28  N   UNL     1       2.942  -4.677  34.714  0.00  0.00    +0.000 N 
ATOM     29  C   UNL     1       2.516  -4.908  36.078  0.00  0.00    +0.000 C 
ATOM     30  C   UNL     1       4.015  -3.736  34.479  0.00  0.00    +0.000 C 
ENDBRANCH  25  28
ENDBRANCH  19  22
ENDBRANCH  17  18
ENDBRANCH   4  17
TORSDOF 7
ENDMDL
