MODEL 1
REMARK VINA RESULT:    -8.634      0.000      0.000
REMARK INTER + INTRA:         -11.670
REMARK INTER:                 -10.653
REMARK INTRA:                  -1.017
REMARK UNBOUND:                -1.017
REMARK  Name = 
REMARK  5 active torsions:
REMARK  status: ('A' for Active; 'I' for Inactive)
REMARK    1  A    between atoms: C_1  and  C_10
REMARK    2  A    between atoms: C_13  and  C_15
REMARK    3  A    between atoms: C_15  and  C_16
REMARK    4  A    between atoms: C_18  and  O_19
REMARK    5  A    between atoms: O_19  and  C_20
REMARK                            x       y       z     vdW  Elec       q    Type
REMARK                         _______ _______ _______ _____ _____    ______ ____
ROOT
ATOM      1  C   UNL     1      -0.959  -6.787  30.935  0.00  0.00    +0.000 C 
ATOM      2  C   UNL     1      -1.281  -6.899  32.422  0.00  0.00    +0.000 C 
ATOM      3  N   UNL     1      -2.559  -7.631  32.468  0.00  0.00    +0.000 N 
ATOM      4  C   UNL     1      -3.652  -7.030  33.101  0.00  0.00    +0.000 C 
ATOM      5  O   UNL     1      -4.751  -7.683  33.128  0.00  0.00    +0.000 OA
ATOM      6  C   UNL     1      -2.568  -8.923  31.845  0.00  0.00    +0.000 C 
ATOM      7  C   UNL     1      -2.050  -8.900  30.433  0.00  0.00    +0.000 C 
ATOM      8  C   UNL     1      -0.722  -8.136  30.327  0.00  0.00    +0.000 C 
ENDROOT
BRANCH   1   9
ATOM      9  C   UNL     1       0.076  -5.791  30.639  0.00  0.00    +0.000 A 
ATOM     10  N   UNL     1      -0.004  -4.738  29.808  0.00  0.00    +0.000 N 
ATOM     11  C   UNL     1       1.150  -4.066  29.806  0.00  0.00    +0.000 A 
ATOM     12  N   UNL     1       1.971  -4.720  30.660  0.00  0.00    +0.000 NA
ATOM     13  N   UNL     1       1.324  -5.743  31.149  0.00  0.00    +0.000 NA
ATOM     14  C   UNL     1       1.416  -2.843  29.000  0.00  0.00    +0.000 C 
ATOM     15  N   UNL     1       0.497  -2.654  27.932  0.00  0.00    +0.000 NA
ATOM     16  C   UNL     1      -0.337  -3.780  27.670  0.00  0.00    +0.000 C 
ATOM     17  C   UNL     1      -1.057  -4.220  28.955  0.00  0.00    +0.000 C 
ATOM     18  H   UNL     1       0.906  -2.315  27.045  0.00  0.00    +0.000 HD
ENDBRANCH   1   9
BRANCH   4  19
ATOM     19  C   UNL     1      -3.541  -5.686  33.717  0.00  0.00    +0.000 C 
BRANCH  19  20
ATOM     20  C   UNL     1      -4.209  -4.649  32.899  0.00  0.00    +0.000 A 
ATOM     21  C   UNL     1      -5.111  -3.745  33.426  0.00  0.00    +0.000 A 
ATOM     22  C   UNL     1      -5.684  -2.812  32.587  0.00  0.00    +0.000 A 
ATOM     23  C   UNL     1      -5.377  -2.763  31.240  0.00  0.00    +0.000 A 
ATOM     24  C   UNL     1      -4.478  -3.659  30.698  0.00  0.00    +0.000 A 
ATOM     25  C   UNL     1      -3.909  -4.589  31.545  0.00  0.00    +0.000 A 
BRANCH  22  26
ATOM     26  O   UNL     1      -6.593  -1.897  33.105  0.00  0.00    +0.000 OA
ATOM     27  C   UNL     1      -6.596  -0.539  32.752  0.00  0.00    +0.000 C 
ENDBRANCH  22  26
ENDBRANCH  19  20
ENDBRANCH   4  19
TORSDOF 4
ENDMDL
