MODEL 1
REMARK VINA RESULT:    -8.146      0.000      0.000
REMARK INTER + INTRA:         -13.055
REMARK INTER:                 -11.003
REMARK INTRA:                  -2.053
REMARK UNBOUND:                -2.053
REMARK  Name = 
REMARK  10 active torsions:
REMARK  status: ('A' for Active; 'I' for Inactive)
REMARK    1  A    between atoms: C_1  and  C_15
REMARK    2  A    between atoms: C_2  and  C_12
REMARK    3  A    between atoms: C_3  and  C_11
REMARK    4  A    between atoms: C_12  and  C_14
REMARK    5  A    between atoms: C_15  and  O_17
REMARK    6  A    between atoms: O_17  and  N_18
REMARK    7  A    between atoms: N_18  and  C_27
REMARK    8  A    between atoms: C_19  and  C_21
REMARK    9  A    between atoms: C_28  and  C_34
REMARK   10  A    between atoms: C_32  and  C_33
REMARK                            x       y       z     vdW  Elec       q    Type
REMARK                         _______ _______ _______ _____ _____    ______ ____
ROOT
ATOM      1  N   UNL     1       1.696  -6.971  28.482  0.00  0.00    +0.000 N 
ATOM      2  C   UNL     1       2.188  -5.903  27.702  0.00  0.00    +0.000 C 
ATOM      3  O   UNL     1       2.313  -5.989  26.449  0.00  0.00    +0.000 OA
ENDROOT
BRANCH   1   4
ATOM      4  C   UNL     1       1.309  -8.168  27.800  0.00  0.00    +0.000 A 
ATOM      5  C   UNL     1       2.325  -9.100  27.575  0.00  0.00    +0.000 A 
ATOM      6  C   UNL     1       2.008 -10.273  26.928  0.00  0.00    +0.000 A 
ATOM      7  C   UNL     1       0.724 -10.562  26.492  0.00  0.00    +0.000 A 
ATOM      8  C   UNL     1      -0.234  -9.614  26.739  0.00  0.00    +0.000 A 
ATOM      9  C   UNL     1       0.035  -8.424  27.384  0.00  0.00    +0.000 A 
ATOM     10  C   UNL     1      -1.029  -7.421  27.629  0.00  0.00    +0.000 C 
ATOM     11  C   UNL     1       3.723  -8.825  28.029  0.00  0.00    +0.000 C 
ENDBRANCH   1   4
BRANCH   2  12
ATOM     12  C   UNL     1       2.596  -4.592  28.292  0.00  0.00    +0.000 C 
ATOM     13  C   UNL     1       4.043  -4.754  28.720  0.00  0.00    +0.000 C 
ATOM     14  N   UNL     1       4.917  -4.901  27.571  0.00  0.00    +0.000 NA
ATOM     15  C   UNL     1       5.119  -3.567  26.987  0.00  0.00    +0.000 C 
ATOM     16  C   UNL     1       3.881  -2.722  27.207  0.00  0.00    +0.000 C 
ATOM     17  C   UNL     1       2.649  -3.615  27.108  0.00  0.00    +0.000 C 
ATOM     18  H   UNL     1       5.849  -5.196  27.944  0.00  0.00    +0.000 HD
ENDBRANCH   2  12
BRANCH   1  19
ATOM     19  O   UNL     1       1.587  -6.936  29.813  0.00  0.00    +0.000 OA
BRANCH  19  20
ATOM     20  C   UNL     1       0.886  -6.149  30.648  0.00  0.00    +0.000 C 
ATOM     21  O   UNL     1       1.578  -5.641  31.612  0.00  0.00    +0.000 OA
BRANCH  20  22
ATOM     22  C   UNL     1      -0.510  -5.799  30.616  0.00  0.00    +0.000 A 
ATOM     23  C   UNL     1      -1.472  -6.705  31.080  0.00  0.00    +0.000 A 
ATOM     24  C   UNL     1      -2.815  -6.454  31.069  0.00  0.00    +0.000 A 
ATOM     25  N   UNL     1      -3.251  -5.291  30.597  0.00  0.00    +0.000 NA
ATOM     26  C   UNL     1      -2.360  -4.373  30.133  0.00  0.00    +0.000 A 
ATOM     27  C   UNL     1      -0.985  -4.595  30.129  0.00  0.00    +0.000 A 
ATOM     28  C   UNL     1      -0.093  -3.659  29.658  0.00  0.00    +0.000 A 
ATOM     29  C   UNL     1      -0.611  -2.451  29.174  0.00  0.00    +0.000 A 
ATOM     30  C   UNL     1      -1.966  -2.213  29.170  0.00  0.00    +0.000 A 
ATOM     31  C   UNL     1      -2.832  -3.170  29.648  0.00  0.00    +0.000 A 
ATOM     32  C   UNL     1      -3.791  -7.489  31.587  0.00  0.00    +0.000 C 
BRANCH  23  33
ATOM     33  C   UNL     1      -1.027  -7.982  31.625  0.00  0.00    +0.000 C 
ATOM     34  O   UNL     1      -0.982  -8.986  30.893  0.00  0.00    +0.000 OA
ATOM     35  C   UNL     1      -0.628  -8.091  33.047  0.00  0.00    +0.000 C 
ENDBRANCH  23  33
ENDBRANCH  20  22
ENDBRANCH  19  20
ENDBRANCH   1  19
TORSDOF 6
ENDMDL
