MODEL 1
REMARK VINA RESULT:    -8.628      0.000      0.000
REMARK INTER + INTRA:         -16.186
REMARK INTER:                 -15.185
REMARK INTRA:                  -1.001
REMARK UNBOUND:                -1.001
REMARK  Name = 
REMARK  15 active torsions:
REMARK  status: ('A' for Active; 'I' for Inactive)
REMARK    1  A    between atoms: C_1  and  N_2
REMARK    2  A    between atoms: C_3  and  C_5
REMARK    3  A    between atoms: C_5  and  N_6
REMARK    4  A    between atoms: N_6  and  C_7
REMARK    5  A    between atoms: C_7  and  C_8
REMARK    6  A    between atoms: C_8  and  O_9
REMARK    7  A    between atoms: O_9  and  C_10
REMARK    8  A    between atoms: C_11  and  C_12
REMARK    9  A    between atoms: C_21  and  C_22
REMARK   10  A    between atoms: C_22  and  C_23
REMARK   11  A    between atoms: N_25  and  C_26
REMARK   12  A    between atoms: C_28  and  C_29
REMARK   13  A    between atoms: C_29  and  O_31
REMARK   14  A    between atoms: C_32  and  O_35
REMARK   15  A    between atoms: C_36  and  C_41
REMARK                            x       y       z     vdW  Elec       q    Type
REMARK                         _______ _______ _______ _____ _____    ______ ____
ROOT
ATOM      1  C   UNL     1      -0.234  -7.341  30.499  0.00  0.00    +0.000 C 
ATOM      2  C   UNL     1      -0.880  -8.293  31.446  0.00  0.00    +0.000 C 
ATOM      3  O   UNL     1       0.051  -8.472  32.476  0.00  0.00    +0.000 OA
ATOM      4  C   UNL     1       0.807  -7.335  32.590  0.00  0.00    +0.000 C 
ATOM      5  O   UNL     1       1.370  -6.960  33.659  0.00  0.00    +0.000 OA
ATOM      6  C   UNL     1       0.840  -6.665  31.298  0.00  0.00    +0.000 C 
ENDROOT
BRANCH   1  12
ATOM      7  C   UNL     1       1.198  -7.275  28.491  0.00  0.00    +0.000 A 
ATOM      8  C   UNL     1       1.618  -7.776  27.255  0.00  0.00    +0.000 A 
ATOM      9  C   UNL     1       1.031  -8.927  26.757  0.00  0.00    +0.000 A 
ATOM     10  C   UNL     1       0.052  -9.547  27.493  0.00  0.00    +0.000 A 
ATOM     11  C   UNL     1      -0.363  -9.052  28.715  0.00  0.00    +0.000 A 
ATOM     12  C   UNL     1       0.228  -7.887  29.223  0.00  0.00    +0.000 A 
BRANCH   8  13
ATOM     13  C   UNL     1       2.651  -7.158  26.450  0.00  0.00    +0.000 A 
ATOM     14  C   UNL     1       2.263  -6.431  25.317  0.00  0.00    +0.000 A 
ATOM     15  C   UNL     1       3.244  -5.858  24.550  0.00  0.00    +0.000 A 
ATOM     16  C   UNL     1       4.587  -5.968  24.842  0.00  0.00    +0.000 A 
ATOM     17  C   UNL     1       4.967  -6.686  25.961  0.00  0.00    +0.000 A 
ATOM     18  C   UNL     1       3.979  -7.281  26.764  0.00  0.00    +0.000 A 
ENDBRANCH   8  13
BRANCH   7  19
ATOM     19  N   UNL     1       1.873  -6.125  28.923  0.00  0.00    +0.000 N 
ATOM     20  C   UNL     1       1.468  -4.842  28.521  0.00  0.00    +0.000 C 
ATOM     21  O   UNL     1       0.497  -4.641  27.756  0.00  0.00    +0.000 OA
ATOM     22  H   UNL     1       2.686  -6.211  29.544  0.00  0.00    +0.000 HD
BRANCH  20  23
ATOM     23  C   UNL     1       2.207  -3.626  29.013  0.00  0.00    +0.000 C 
BRANCH  23  24
ATOM     24  N   UNL     1       1.370  -2.499  29.248  0.00  0.00    +0.000 NA
ATOM     25  H   UNL     1       0.379  -2.713  29.439  0.00  0.00    +0.000 HD
BRANCH  24  26
ATOM     26  C   UNL     1       1.567  -1.370  28.395  0.00  0.00    +0.000 C 
BRANCH  26  27
ATOM     27  C   UNL     1       2.846  -1.484  27.575  0.00  0.00    +0.000 C 
BRANCH  27  28
ATOM     28  O   UNL     1       2.556  -1.048  26.268  0.00  0.00    +0.000 OA
ATOM     29  C   UNL     1       1.913  -2.115  25.601  0.00  0.00    +0.000 C 
ENDBRANCH  27  28
ENDBRANCH  26  27
ENDBRANCH  24  26
ENDBRANCH  23  24
ENDBRANCH  20  23
ENDBRANCH   7  19
ENDBRANCH   1  12
BRANCH   2  30
ATOM     30  C   UNL     1      -2.111  -7.759  32.108  0.00  0.00    +0.000 A 
ATOM     31  C   UNL     1      -2.089  -7.066  33.295  0.00  0.00    +0.000 A 
ATOM     32  C   UNL     1      -3.233  -6.602  33.911  0.00  0.00    +0.000 A 
ATOM     33  C   UNL     1      -4.444  -6.846  33.313  0.00  0.00    +0.000 A 
ATOM     34  C   UNL     1      -4.471  -7.541  32.125  0.00  0.00    +0.000 A 
ATOM     35  C   UNL     1      -3.331  -8.004  31.508  0.00  0.00    +0.000 A 
ENDBRANCH   2  30
BRANCH   1  36
ATOM     36  C   UNL     1      -1.249  -6.237  30.223  0.00  0.00    +0.000 C 
ATOM     37  O   UNL     1      -2.089  -6.352  29.302  0.00  0.00    +0.000 OA
ATOM     38  N   UNL     1      -1.264  -5.051  31.003  0.00  0.00    +0.000 N 
ATOM     39  H   UNL     1      -0.550  -4.996  31.796  0.00  0.00    +0.000 HD
BRANCH  38  40
ATOM     40  C   UNL     1      -2.142  -3.956  30.846  0.00  0.00    +0.000 A 
ATOM     41  C   UNL     1      -1.976  -2.891  30.015  0.00  0.00    +0.000 A 
ATOM     42  C   UNL     1      -2.861  -1.811  29.903  0.00  0.00    +0.000 A 
ATOM     43  C   UNL     1      -3.991  -1.820  30.691  0.00  0.00    +0.000 A 
ATOM     44  C   UNL     1      -4.191  -2.909  31.561  0.00  0.00    +0.000 A 
ATOM     45  C   UNL     1      -3.298  -3.940  31.637  0.00  0.00    +0.000 A 
BRANCH  42  46
ATOM     46  C   UNL     1      -2.572  -0.732  28.974  0.00  0.00    +0.000 C 
ATOM     47  O   UNL     1      -2.020  -1.011  27.871  0.00  0.00    +0.000 OA
BRANCH  46  48
ATOM     48  O   UNL     1      -2.852   0.586  29.196  0.00  0.00    +0.000 OA
ATOM     49  H   UNL     1      -3.557   0.830  29.883  0.00  0.00    +0.000 HD
ENDBRANCH  46  48
ENDBRANCH  42  46
BRANCH  43  50
ATOM     50  O   UNL     1      -4.931  -0.828  30.676  0.00  0.00    +0.000 OA
ATOM     51  H   UNL     1      -5.843  -0.773  31.023  0.00  0.00    +0.000 HD
ENDBRANCH  43  50
ENDBRANCH  38  40
ENDBRANCH   1  36
TORSDOF 14
ENDMDL
