MODEL 1
REMARK VINA RESULT:    -7.503      0.000      0.000
REMARK INTER + INTRA:         -11.319
REMARK INTER:                 -10.573
REMARK INTRA:                  -0.746
REMARK UNBOUND:                -0.746
REMARK  Name = 
REMARK  8 active torsions:
REMARK  status: ('A' for Active; 'I' for Inactive)
REMARK    1  A    between atoms: C_3  and  C_4
REMARK    2  A    between atoms: C_8  and  S_9
REMARK    3  A    between atoms: S_9  and  C_10
REMARK    4  A    between atoms: C_10  and  C_11
REMARK    5  A    between atoms: N_13  and  C_14
REMARK    6  A    between atoms: C_16  and  C_17
REMARK    7  A    between atoms: C_17  and  O_19
REMARK    8  A    between atoms: O_19  and  C_20
REMARK                            x       y       z     vdW  Elec       q    Type
REMARK                         _______ _______ _______ _____ _____    ______ ____
ROOT
ATOM      1  C   UNL     1      -5.085  -3.974  33.166  0.00  0.00    +0.000 C 
ATOM      2  O   UNL     1      -4.819  -3.878  31.814  0.00  0.00    +0.000 OA
ATOM      3  N   UNL     1      -4.550  -5.107  33.692  0.00  0.00    +0.000 N 
ATOM      4  H   UNL     1      -4.742  -5.271  34.804  0.00  0.00    +0.000 HD
ENDROOT
BRANCH   3   5
ATOM      5  C   UNL     1      -3.801  -6.158  33.182  0.00  0.00    +0.000 A 
ATOM      6  C   UNL     1      -2.400  -6.210  33.259  0.00  0.00    +0.000 A 
ATOM      7  C   UNL     1      -1.633  -7.139  32.678  0.00  0.00    +0.000 A 
ATOM      8  C   UNL     1      -2.238  -8.163  31.933  0.00  0.00    +0.000 A 
ATOM      9  C   UNL     1      -3.607  -8.160  31.846  0.00  0.00    +0.000 A 
ATOM     10  C   UNL     1      -4.411  -7.207  32.437  0.00  0.00    +0.000 A 
ATOM     11 CL   UNL     1      -1.262  -9.355  31.118  0.00  0.00    +0.000 Cl
BRANCH   7  12
ATOM     12  C   UNL     1      -0.168  -7.177  32.729  0.00  0.00    +0.000 C 
ATOM     13  O   UNL     1       0.407  -7.743  33.732  0.00  0.00    +0.000 OA
BRANCH  12  14
ATOM     14  O   UNL     1       0.646  -6.657  31.798  0.00  0.00    +0.000 OA
ATOM     15  C   UNL     1       0.382  -5.907  30.672  0.00  0.00    +0.000 C 
ENDBRANCH  12  14
ENDBRANCH   7  12
ENDBRANCH   3   5
BRANCH   1  16
ATOM     16  C   UNL     1      -5.845  -2.870  33.686  0.00  0.00    +0.000 C 
BRANCH  16  17
ATOM     17  S   UNL     1      -6.629  -1.949  32.279  0.00  0.00    +0.000 S 
BRANCH  17  23
ATOM     18  N   UNL     1      -9.267  -1.750  31.563  0.00  0.00    +0.000 NA
ATOM     19  C   UNL     1     -10.581  -1.740  31.567  0.00  0.00    +0.000 A 
ATOM     20  C   UNL     1     -11.196  -2.524  32.694  0.00  0.00    +0.000 A 
ATOM     21  C   UNL     1     -10.272  -3.087  33.447  0.00  0.00    +0.000 A 
ATOM     22  N   UNL     1      -8.926  -3.062  33.376  0.00  0.00    +0.000 NA
ATOM     23  C   UNL     1      -8.384  -2.322  32.345  0.00  0.00    +0.000 A 
ATOM     24  N   UNL     1     -11.478  -1.142  30.706  0.00  0.00    +0.000 N 
ATOM     25  H   UNL     1     -11.917  -0.193  30.850  0.00  0.00    +0.000 HD
ATOM     26  H   UNL     1     -11.776  -1.658  29.816  0.00  0.00    +0.000 HD
BRANCH  20  27
ATOM     27  C   UNL     1     -12.565  -2.413  32.833  0.00  0.00    +0.000 C 
ATOM     28  N   UNL     1     -13.750  -2.322  32.936  0.00  0.00    +0.000 NA
ENDBRANCH  20  27
ENDBRANCH  17  23
ENDBRANCH  16  17
ENDBRANCH   1  16
TORSDOF 7
ENDMDL
