MODEL 1
REMARK VINA RESULT:    -8.969      0.000      0.000
REMARK INTER + INTRA:         -11.411
REMARK INTER:                 -11.852
REMARK INTRA:                   0.441
REMARK UNBOUND:                 0.441
REMARK  Name = 
REMARK  7 active torsions:
REMARK  status: ('A' for Active; 'I' for Inactive)
REMARK    1  A    between atoms: N_1  and  C_3
REMARK    2  A    between atoms: C_15  and  O_18
REMARK    3  A    between atoms: O_18  and  C_19
REMARK    4  A    between atoms: C_28  and  N_31
REMARK    5  A    between atoms: N_31  and  C_32
REMARK    6  A    between atoms: C_32  and  C_33
REMARK    7  A    between atoms: C_33  and  N_34
REMARK                            x       y       z     vdW  Elec       q    Type
REMARK                         _______ _______ _______ _____ _____    ______ ____
ROOT
ATOM      1  C   UNL     1      -1.307  -8.083  29.343  0.00  0.00    +0.000 C 
ATOM      2  C   UNL     1      -1.346  -6.722  29.390  0.00  0.00    +0.000 A 
ATOM      3  C   UNL     1      -1.893  -5.896  30.266  0.00  0.00    +0.000 A 
ATOM      4  N   UNL     1      -1.850  -4.530  29.986  0.00  0.00    +0.000 NA
ATOM      5  C   UNL     1      -1.322  -3.912  28.958  0.00  0.00    +0.000 A 
ATOM      6  C   UNL     1      -0.731  -4.748  28.052  0.00  0.00    +0.000 A 
ATOM      7  C   UNL     1      -0.702  -6.122  28.208  0.00  0.00    +0.000 A 
ATOM      8  N   UNL     1      -0.172  -7.085  27.354  0.00  0.00    +0.000 N 
ATOM      9  C   UNL     1      -1.071  -8.173  26.917  0.00  0.00    +0.000 C 
ATOM     10  C   UNL     1      -0.760  -8.919  28.278  0.00  0.00    +0.000 C 
ATOM     11  C   UNL     1      -0.141 -10.031  28.391  0.00  0.00    +0.000 C 
ATOM     12  C   UNL     1       0.454 -10.931  27.387  0.00  0.00    +0.000 C 
ATOM     13  C   UNL     1       1.695 -10.842  26.908  0.00  0.00    +0.000 C 
ATOM     14  C   UNL     1       2.830  -9.995  27.109  0.00  0.00    +0.000 C 
ATOM     15  C   UNL     1       3.122  -8.769  27.500  0.00  0.00    +0.000 C 
ATOM     16  C   UNL     1       1.123  -7.447  27.001  0.00  0.00    +0.000 C 
ATOM     17  C   UNL     1       2.212  -7.677  27.932  0.00  0.00    +0.000 C 
ATOM     18  C   UNL     1       2.479  -6.974  29.061  0.00  0.00    +0.000 C 
ATOM     19  C   UNL     1       1.904  -5.923  29.795  0.00  0.00    +0.000 C 
ATOM     20  C   UNL     1       1.403  -5.768  31.024  0.00  0.00    +0.000 C 
ATOM     21  F   UNL     1       0.948  -4.431  31.200  0.00  0.00    +0.000 F 
ATOM     22  C   UNL     1       1.306  -6.555  32.209  0.00  0.00    +0.000 C 
ATOM     23  C   UNL     1       0.448  -7.153  32.972  0.00  0.00    +0.000 C 
ATOM     24  C   UNL     1      -2.244  -5.875  31.595  0.00  0.00    +0.000 C 
ATOM     25  C   UNL     1      -2.070  -6.919  32.590  0.00  0.00    +0.000 C 
ATOM     26  C   UNL     1      -0.950  -7.386  33.099  0.00  0.00    +0.000 C 
ENDROOT
BRANCH   1  27
ATOM     27  N   UNL     1      -1.961  -8.864  30.363  0.00  0.00    +0.000 N 
ATOM     28  O   UNL     1      -3.221  -8.971  30.344  0.00  0.00    +0.000 OA
ATOM     29  O   UNL     1      -1.223  -9.508  31.297  0.00  0.00    +0.000 OA
ENDBRANCH   1  27
BRANCH  13  30
ATOM     30  O   UNL     1       1.929 -11.883  25.930  0.00  0.00    +0.000 OA
ATOM     31  C   UNL     1       2.351 -13.155  26.443  0.00  0.00    +0.000 C 
ENDBRANCH  13  30
BRANCH  24  32
ATOM     32  N   UNL     1      -2.961  -4.728  32.140  0.00  0.00    +0.000 N 
ATOM     33  H   UNL     1      -2.626  -3.788  31.831  0.00  0.00    +0.000 HD
BRANCH  32  34
ATOM     34  C   UNL     1      -4.066  -4.920  33.053  0.00  0.00    +0.000 C 
BRANCH  34  35
ATOM     35  C   UNL     1      -5.094  -3.810  32.881  0.00  0.00    +0.000 C 
BRANCH  35  36
ATOM     36  N   UNL     1      -5.163  -2.960  34.044  0.00  0.00    +0.000 NA
ATOM     37  H   UNL     1      -4.339  -3.136  34.680  0.00  0.00    +0.000 HD
ATOM     38  H   UNL     1      -6.029  -3.220  34.569  0.00  0.00    +0.000 HD
ENDBRANCH  35  36
ENDBRANCH  34  35
ENDBRANCH  32  34
ENDBRANCH  24  32
TORSDOF 6
ENDMDL
