MODEL 1
REMARK VINA RESULT:    -7.677      0.000      0.000
REMARK INTER + INTRA:         -14.535
REMARK INTER:                 -12.165
REMARK INTRA:                  -2.370
REMARK UNBOUND:                -2.370
REMARK  Name = 
REMARK  13 active torsions:
REMARK  status: ('A' for Active; 'I' for Inactive)
REMARK    1  A    between atoms: C_2  and  C_9
REMARK    2  A    between atoms: C_4  and  C_6
REMARK    3  A    between atoms: C_6  and  C_7
REMARK    4  A    between atoms: C_7  and  O_8
REMARK    5  A    between atoms: C_14  and  C_15
REMARK    6  A    between atoms: C_15  and  C_16
REMARK    7  A    between atoms: C_15  and  C_24
REMARK    8  A    between atoms: C_15  and  N_33
REMARK    9  A    between atoms: C_19  and  O_22
REMARK   10  A    between atoms: O_22  and  C_23
REMARK   11  A    between atoms: C_24  and  C_25
REMARK   12  A    between atoms: C_28  and  O_31
REMARK   13  A    between atoms: O_31  and  C_32
REMARK                            x       y       z     vdW  Elec       q    Type
REMARK                         _______ _______ _______ _____ _____    ______ ____
ROOT
ATOM      1  C   UNL     1      -0.726  -7.678  31.089  0.00  0.00    +0.000 C 
ENDROOT
BRANCH   1   7
ATOM      2  C   UNL     1       0.964  -7.412  29.216  0.00  0.00    +0.000 C 
ATOM      3  N   UNL     1       1.052  -8.569  28.404  0.00  0.00    +0.000 NA
ATOM      4  C   UNL     1       0.401  -8.472  27.136  0.00  0.00    +0.000 C 
ATOM      5  C   UNL     1      -0.864  -7.649  27.261  0.00  0.00    +0.000 C 
ATOM      6  C   UNL     1      -1.398  -7.835  28.667  0.00  0.00    +0.000 C 
ATOM      7  C   UNL     1      -0.438  -7.181  29.656  0.00  0.00    +0.000 C 
ATOM      8  H   UNL     1       2.022  -8.952  28.321  0.00  0.00    +0.000 HD
BRANCH   2  10
ATOM      9  N   UNL     1       2.443  -6.111  27.664  0.00  0.00    +0.000 NA
ATOM     10  C   UNL     1       1.413  -6.144  28.502  0.00  0.00    +0.000 A 
ATOM     11  C   UNL     1       0.884  -4.903  28.572  0.00  0.00    +0.000 A 
ATOM     12  C   UNL     1       1.649  -4.104  27.725  0.00  0.00    +0.000 A 
ATOM     13  O   UNL     1       2.559  -4.878  27.214  0.00  0.00    +0.000 OA
BRANCH  12  14
ATOM     14  C   UNL     1       1.440  -2.662  27.484  0.00  0.00    +0.000 C 
BRANCH  14  15
ATOM     15  C   UNL     1       2.694  -1.949  27.982  0.00  0.00    +0.000 C 
BRANCH  15  16
ATOM     16  O   UNL     1       2.272  -0.918  28.790  0.00  0.00    +0.000 OA
ATOM     17  H   UNL     1       1.288  -1.014  28.948  0.00  0.00    +0.000 HD
ENDBRANCH  15  16
ENDBRANCH  14  15
ENDBRANCH  12  14
ENDBRANCH   2  10
ENDBRANCH   1   7
BRANCH   1  18
ATOM     18  C   UNL     1      -1.770  -6.855  31.744  0.00  0.00    +0.000 A 
ATOM     19  C   UNL     1      -2.401  -7.312  32.908  0.00  0.00    +0.000 A 
ATOM     20  C   UNL     1      -3.436  -6.629  33.479  0.00  0.00    +0.000 A 
ATOM     21  C   UNL     1      -3.917  -5.450  32.946  0.00  0.00    +0.000 A 
ATOM     22  C   UNL     1      -3.298  -4.977  31.802  0.00  0.00    +0.000 A 
ATOM     23  C   UNL     1      -2.230  -5.696  31.218  0.00  0.00    +0.000 A 
BRANCH  21  24
ATOM     24  O   UNL     1      -4.980  -4.777  33.524  0.00  0.00    +0.000 OA
ATOM     25  C   UNL     1      -5.199  -3.413  33.288  0.00  0.00    +0.000 C 
ENDBRANCH  21  24
ENDBRANCH   1  18
BRANCH   1  26
ATOM     26  N   UNL     1      -1.339  -9.001  30.876  0.00  0.00    +0.000 NA
ATOM     27  H   UNL     1      -0.659  -9.752  30.686  0.00  0.00    +0.000 HD
ATOM     28  H   UNL     1      -1.960  -9.292  31.649  0.00  0.00    +0.000 HD
ENDBRANCH   1  26
BRANCH   1  29
ATOM     29  C   UNL     1       0.563  -7.794  31.739  0.00  0.00    +0.000 C 
BRANCH  29  30
ATOM     30  C   UNL     1       1.202  -6.769  32.554  0.00  0.00    +0.000 A 
ATOM     31  C   UNL     1       0.994  -6.838  33.969  0.00  0.00    +0.000 A 
ATOM     32  C   UNL     1       1.570  -5.942  34.819  0.00  0.00    +0.000 A 
ATOM     33  C   UNL     1       2.378  -4.923  34.371  0.00  0.00    +0.000 A 
ATOM     34  C   UNL     1       2.597  -4.817  33.020  0.00  0.00    +0.000 A 
ATOM     35  C   UNL     1       1.991  -5.759  32.150  0.00  0.00    +0.000 A 
BRANCH  33  36
ATOM     36  O   UNL     1       2.995  -3.994  35.198  0.00  0.00    +0.000 OA
ATOM     37  C   UNL     1       4.175  -3.310  34.841  0.00  0.00    +0.000 C 
ENDBRANCH  33  36
ENDBRANCH  29  30
ENDBRANCH   1  29
TORSDOF 11
ENDMDL
