MODEL 1
REMARK VINA RESULT:    -9.141      0.000      0.000
REMARK INTER + INTRA:         -15.047
REMARK INTER:                 -13.951
REMARK INTRA:                  -1.097
REMARK UNBOUND:                -1.097
REMARK  Name = 
REMARK  11 active torsions:
REMARK  status: ('A' for Active; 'I' for Inactive)
REMARK    1  A    between atoms: C_2  and  C_14
REMARK    2  A    between atoms: C_3  and  C_11
REMARK    3  A    between atoms: C_8  and  C_10
REMARK    4  A    between atoms: C_11  and  C_12
REMARK    5  A    between atoms: C_12  and  N_13
REMARK    6  A    between atoms: C_14  and  C_15
REMARK    7  A    between atoms: C_15  and  C_25
REMARK    8  A    between atoms: C_16  and  C_22
REMARK    9  A    between atoms: C_22  and  O_24
REMARK   10  A    between atoms: N_27  and  C_28
REMARK   11  A    between atoms: C_30  and  C_31
REMARK                            x       y       z     vdW  Elec       q    Type
REMARK                         _______ _______ _______ _____ _____    ______ ____
ROOT
ATOM      1  C   UNL     1       0.055  -4.215  28.377  0.00  0.00    +0.000 C 
ATOM      2  C   UNL     1      -0.372  -2.840  28.039  0.00  0.00    +0.000 C 
ATOM      3  C   UNL     1       0.532  -2.025  28.994  0.00  0.00    +0.000 C 
ATOM      4  O   UNL     1       0.826  -2.972  29.976  0.00  0.00    +0.000 OA
ATOM      5  C   UNL     1       1.355  -3.966  29.072  0.00  0.00    +0.000 C 
ATOM      6  C   UNL     1       2.360  -3.146  28.427  0.00  0.00    +0.000 C 
ATOM      7  C   UNL     1       1.892  -1.888  28.393  0.00  0.00    +0.000 C 
ENDROOT
BRANCH   1   8
ATOM      8  C   UNL     1      -0.868  -4.551  29.566  0.00  0.00    +0.000 C 
ATOM      9  O   UNL     1      -0.386  -5.312  30.462  0.00  0.00    +0.000 OA
ATOM     10  N   UNL     1      -2.183  -4.066  29.688  0.00  0.00    +0.000 N 
ATOM     11  H   UNL     1      -2.525  -3.447  28.931  0.00  0.00    +0.000 HD
BRANCH  10  12
ATOM     12  C   UNL     1      -2.966  -4.455  30.820  0.00  0.00    +0.000 A 
ATOM     13  C   UNL     1      -3.258  -5.802  31.019  0.00  0.00    +0.000 A 
ATOM     14  C   UNL     1      -3.966  -6.175  32.142  0.00  0.00    +0.000 A 
ATOM     15  C   UNL     1      -4.394  -5.259  33.070  0.00  0.00    +0.000 A 
ATOM     16  C   UNL     1      -4.102  -3.914  32.869  0.00  0.00    +0.000 A 
ATOM     17  C   UNL     1      -3.386  -3.534  31.736  0.00  0.00    +0.000 A 
BRANCH  14  18
ATOM     18  C   UNL     1      -4.255  -7.637  32.300  0.00  0.00    +0.000 C 
ATOM     19  F   UNL     1      -5.142  -7.759  33.355  0.00  0.00    +0.000 F 
ATOM     20  F   UNL     1      -3.096  -8.366  32.487  0.00  0.00    +0.000 F 
ATOM     21  F   UNL     1      -4.833  -8.098  31.107  0.00  0.00    +0.000 F 
ENDBRANCH  14  18
ENDBRANCH  10  12
ENDBRANCH   1   8
BRANCH   2  22
ATOM     22  C   UNL     1      -0.294  -2.347  26.690  0.00  0.00    +0.000 C 
ATOM     23  O   UNL     1      -0.983  -1.411  26.283  0.00  0.00    +0.000 OA
BRANCH  22  24
ATOM     24  O   UNL     1       0.583  -2.922  25.785  0.00  0.00    +0.000 OA
ATOM     25  H   UNL     1       1.424  -2.472  25.442  0.00  0.00    +0.000 HD
ENDBRANCH  22  24
ENDBRANCH   2  22
BRANCH   1  26
ATOM     26  C   UNL     1      -0.141  -5.336  27.519  0.00  0.00    +0.000 C 
BRANCH  26  28
ATOM     27  N   UNL     1       2.010  -6.657  27.131  0.00  0.00    +0.000 N 
ATOM     28  C   UNL     1       0.693  -6.491  27.368  0.00  0.00    +0.000 A 
ATOM     29  C   UNL     1       0.150  -7.784  27.418  0.00  0.00    +0.000 A 
ATOM     30  C   UNL     1       1.158  -8.686  27.204  0.00  0.00    +0.000 A 
ATOM     31  C   UNL     1       2.320  -7.958  27.026  0.00  0.00    +0.000 A 
ATOM     32  C   UNL     1       3.519  -8.618  26.782  0.00  0.00    +0.000 A 
ATOM     33  C   UNL     1       3.572  -9.996  26.714  0.00  0.00    +0.000 A 
ATOM     34  C   UNL     1       2.405 -10.702  26.893  0.00  0.00    +0.000 A 
ATOM     35  C   UNL     1       1.218 -10.061  27.134  0.00  0.00    +0.000 A 
ATOM     36  C   UNL     1       2.458 -12.190  26.817  0.00  0.00    +0.000 C 
ATOM     37  H   UNL     1       2.688  -5.892  27.054  0.00  0.00    +0.000 HD
BRANCH  29  38
ATOM     38  C   UNL     1      -1.271  -8.188  27.715  0.00  0.00    +0.000 C 
BRANCH  38  39
ATOM     39  C   UNL     1      -1.464  -8.407  29.197  0.00  0.00    +0.000 C 
BRANCH  39  40
ATOM     40  N   UNL     1      -2.540  -9.314  29.475  0.00  0.00    +0.000 NA
ATOM     41  H   UNL     1      -2.362 -10.259  29.103  0.00  0.00    +0.000 HD
ATOM     42  H   UNL     1      -3.476  -8.929  29.371  0.00  0.00    +0.000 HD
ENDBRANCH  39  40
ENDBRANCH  38  39
ENDBRANCH  29  38
ENDBRANCH  26  28
ENDBRANCH   1  26
TORSDOF 10
ENDMDL
