MODEL 1
REMARK VINA RESULT:    -8.028      0.000      0.000
REMARK INTER + INTRA:         -12.466
REMARK INTER:                 -12.018
REMARK INTRA:                  -0.448
REMARK UNBOUND:                -0.448
REMARK  Name = 
REMARK  10 active torsions:
REMARK  status: ('A' for Active; 'I' for Inactive)
REMARK    1  A    between atoms: C_2  and  S_7
REMARK    2  A    between atoms: S_7  and  C_8
REMARK    3  A    between atoms: C_8  and  C_9
REMARK    4  A    between atoms: C_9  and  C_11
REMARK    5  A    between atoms: C_13  and  N_14
REMARK    6  A    between atoms: C_15  and  C_29
REMARK    7  A    between atoms: C_16  and  C_27
REMARK    8  A    between atoms: N_18  and  O_19
REMARK    9  A    between atoms: C_21  and  C_22
REMARK   10  A    between atoms: C_27  and  C_28
REMARK                            x       y       z     vdW  Elec       q    Type
REMARK                         _______ _______ _______ _____ _____    ______ ____
ROOT
ATOM      1  N   UNL     1      -1.026  -5.805  30.822  0.00  0.00    +0.000 NA
ATOM      2  C   UNL     1       0.277  -5.901  30.173  0.00  0.00    +0.000 C 
ATOM      3  C   UNL     1       0.365  -7.136  29.335  0.00  0.00    +0.000 C 
ATOM      4  C   UNL     1      -0.444  -8.174  29.966  0.00  0.00    +0.000 C 
ATOM      5  N   UNL     1      -1.044  -9.086  29.326  0.00  0.00    +0.000 NA
ATOM      6  C   UNL     1      -0.655  -8.161  31.457  0.00  0.00    +0.000 C 
ATOM      7  C   UNL     1      -1.157  -6.783  31.863  0.00  0.00    +0.000 C 
ENDROOT
BRANCH   7   8
ATOM      8  C   UNL     1      -2.507  -6.846  32.450  0.00  0.00    +0.000 A 
ATOM      9  O   UNL     1      -2.976  -5.900  33.260  0.00  0.00    +0.000 OA
ATOM     10  C   UNL     1      -4.187  -6.169  33.651  0.00  0.00    +0.000 A 
ATOM     11  C   UNL     1      -4.572  -7.374  33.074  0.00  0.00    +0.000 A 
ATOM     12  C   UNL     1      -3.502  -7.775  32.327  0.00  0.00    +0.000 A 
ENDBRANCH   7   8
BRANCH   2  13
ATOM     13  C   UNL     1       1.278  -5.852  31.277  0.00  0.00    +0.000 A 
ATOM     14  O   UNL     1       1.809  -6.756  32.025  0.00  0.00    +0.000 OA
ATOM     15  C   UNL     1       2.663  -6.326  32.898  0.00  0.00    +0.000 A 
ATOM     16  C   UNL     1       2.714  -4.965  32.718  0.00  0.00    +0.000 A 
ATOM     17  C   UNL     1       1.858  -4.635  31.708  0.00  0.00    +0.000 A 
ENDBRANCH   2  13
BRANCH   1  20
ATOM     18  C   UNL     1      -2.179  -4.586  28.912  0.00  0.00    +0.000 C 
ATOM     19  C   UNL     1      -3.222  -4.734  29.996  0.00  0.00    +0.000 C 
ATOM     20  C   UNL     1      -2.097  -5.699  29.903  0.00  0.00    +0.000 C 
BRANCH  18  21
ATOM     21  C   UNL     1      -1.340  -3.367  29.028  0.00  0.00    +0.000 C 
ATOM     22  O   UNL     1      -1.570  -2.547  29.891  0.00  0.00    +0.000 OA
BRANCH  21  23
ATOM     23  C   UNL     1      -0.224  -3.167  28.082  0.00  0.00    +0.000 C 
BRANCH  23  24
ATOM     24  S   UNL     1       1.040  -2.048  28.680  0.00  0.00    +0.000 S 
BRANCH  24  26
ATOM     25  S   UNL     1       3.430  -4.073  28.246  0.00  0.00    +0.000 S 
ATOM     26  C   UNL     1       2.645  -2.347  28.023  0.00  0.00    +0.000 A 
ATOM     27  N   UNL     1       3.510  -1.826  27.434  0.00  0.00    +0.000 NA
ATOM     28  N   UNL     1       4.637  -2.367  27.088  0.00  0.00    +0.000 NA
ATOM     29  C   UNL     1       4.982  -3.450  27.297  0.00  0.00    +0.000 A 
ATOM     30  N   UNL     1       6.050  -4.361  27.104  0.00  0.00    +0.000 N 
ATOM     31  H   UNL     1       5.911  -5.293  26.639  0.00  0.00    +0.000 HD
ATOM     32  H   UNL     1       7.014  -4.115  27.431  0.00  0.00    +0.000 HD
ENDBRANCH  24  26
ENDBRANCH  23  24
ENDBRANCH  21  23
ENDBRANCH  18  21
ENDBRANCH   1  20
BRANCH   5  33
ATOM     33  O   UNL     1      -1.043  -9.253  27.976  0.00  0.00    +0.000 OA
ATOM     34  H   UNL     1      -0.248  -9.716  27.556  0.00  0.00    +0.000 HD
ENDBRANCH   5  33
BRANCH   3  35
ATOM     35  C   UNL     1       1.724  -7.510  28.877  0.00  0.00    +0.000 C 
ATOM     36  C   UNL     1       1.942  -7.558  27.389  0.00  0.00    +0.000 C 
ENDBRANCH   3  35
TORSDOF 9
ENDMDL
