MODEL 1
REMARK VINA RESULT:    -6.956      0.000      0.000
REMARK INTER + INTRA:         -10.956
REMARK INTER:                  -9.802
REMARK INTRA:                  -1.153
REMARK UNBOUND:                -1.153
REMARK  Name = 
REMARK  10 active torsions:
REMARK  status: ('A' for Active; 'I' for Inactive)
REMARK    1  A    between atoms: C_1  and  C_6
REMARK    2  A    between atoms: C_6  and  C_7
REMARK    3  A    between atoms: C_6  and  N_13
REMARK    4  A    between atoms: C_7  and  C_8
REMARK    5  A    between atoms: N_13  and  C_14
REMARK    6  A    between atoms: C_14  and  C_15
REMARK    7  A    between atoms: C_16  and  C_24
REMARK    8  A    between atoms: C_17  and  C_23
REMARK    9  A    between atoms: C_18  and  O_21
REMARK   10  A    between atoms: O_21  and  C_22
REMARK                            x       y       z     vdW  Elec       q    Type
REMARK                         _______ _______ _______ _____ _____    ______ ____
ROOT
ATOM      1  N   UNL     1      -3.816  -2.568  31.048  0.00  0.00    +0.000 NA
ATOM      2  H   UNL     1      -3.044  -2.548  31.751  0.00  0.00    +0.000 HD
ENDROOT
BRANCH   1   3
ATOM      3  C   UNL     1      -4.916  -3.327  31.546  0.00  0.00    +0.000 C 
BRANCH   3   4
ATOM      4  C   UNL     1      -6.101  -2.472  31.741  0.00  0.00    +0.000 A 
ATOM      5  N   UNL     1      -7.359  -2.568  31.773  0.00  0.00    +0.000 NA
ATOM      6  C   UNL     1      -8.179  -1.599  31.968  0.00  0.00    +0.000 A 
ATOM      7  C   UNL     1      -7.691  -0.345  32.163  0.00  0.00    +0.000 A 
ATOM      8  S   UNL     1      -5.929  -0.644  32.045  0.00  0.00    +0.000 S 
ENDBRANCH   3   4
BRANCH   3   9
ATOM      9  C   UNL     1      -4.571  -3.994  32.834  0.00  0.00    +0.000 C 
BRANCH   9  10
ATOM     10  C   UNL     1      -4.122  -5.379  32.687  0.00  0.00    +0.000 A 
ATOM     11  S   UNL     1      -3.280  -6.337  34.019  0.00  0.00    +0.000 S 
ATOM     12  C   UNL     1      -3.091  -7.832  33.061  0.00  0.00    +0.000 A 
ATOM     13  C   UNL     1      -3.660  -7.509  31.841  0.00  0.00    +0.000 A 
ATOM     14  C   UNL     1      -4.161  -6.285  31.692  0.00  0.00    +0.000 A 
ENDBRANCH   9  10
ENDBRANCH   3   9
ENDBRANCH   1   3
BRANCH   1  15
ATOM     15  C   UNL     1      -3.376  -2.906  29.733  0.00  0.00    +0.000 C 
BRANCH  15  16
ATOM     16  C   UNL     1      -1.906  -3.161  29.685  0.00  0.00    +0.000 A 
ATOM     17  C   UNL     1      -1.067  -2.258  29.061  0.00  0.00    +0.000 A 
ATOM     18  C   UNL     1       0.305  -2.472  29.004  0.00  0.00    +0.000 A 
ATOM     19  C   UNL     1       0.882  -3.593  29.568  0.00  0.00    +0.000 A 
ATOM     20  C   UNL     1       0.046  -4.493  30.190  0.00  0.00    +0.000 A 
ATOM     21  C   UNL     1      -1.336  -4.281  30.249  0.00  0.00    +0.000 A 
ATOM     22  C   UNL     1       1.226  -1.503  28.331  0.00  0.00    +0.000 C 
ATOM     23  C   UNL     1      -1.625  -1.038  28.437  0.00  0.00    +0.000 C 
BRANCH  19  24
ATOM     24  O   UNL     1       2.261  -3.809  29.512  0.00  0.00    +0.000 OA
ATOM     25  C   UNL     1       2.747  -5.009  28.940  0.00  0.00    +0.000 C 
ENDBRANCH  19  24
ENDBRANCH  15  16
ENDBRANCH   1  15
TORSDOF 7
ENDMDL
