MODEL 1
REMARK VINA RESULT:    -8.614      0.000      0.000
REMARK INTER + INTRA:         -11.127
REMARK INTER:                 -10.628
REMARK INTRA:                  -0.498
REMARK UNBOUND:                -0.498
REMARK  Name = 
REMARK  6 active torsions:
REMARK  status: ('A' for Active; 'I' for Inactive)
REMARK    1  A    between atoms: C_1  and  C_3
REMARK    2  A    between atoms: C_5  and  C_18
REMARK    3  A    between atoms: C_18  and  O_20
REMARK    4  A    between atoms: N_24  and  C_25
REMARK    5  A    between atoms: C_27  and  N_32
REMARK    6  A    between atoms: C_28  and  C_31
REMARK                            x       y       z     vdW  Elec       q    Type
REMARK                         _______ _______ _______ _____ _____    ______ ____
ROOT
ATOM      1  C   UNL     1       0.695  -3.780  27.283  0.00  0.00    +0.000 C 
ATOM      2  S   UNL     1       0.312  -5.471  27.433  0.00  0.00    +0.000 S 
ATOM      3  C   UNL     1       0.906  -4.320  28.655  0.00  0.00    +0.000 C 
ATOM      4  C   UNL     1      -0.103  -4.066  29.677  0.00  0.00    +0.000 C 
ATOM      5  O   UNL     1       0.124  -2.924  30.298  0.00  0.00    +0.000 OA
ATOM      6  N   UNL     1      -1.234  -4.769  30.116  0.00  0.00    +0.000 N 
ATOM      7  C   UNL     1      -1.364  -5.911  30.950  0.00  0.00    +0.000 A 
ATOM      8  C   UNL     1      -2.680  -6.130  31.436  0.00  0.00    +0.000 A 
ATOM      9  C   UNL     1      -2.973  -7.118  32.345  0.00  0.00    +0.000 A 
ATOM     10  C   UNL     1      -1.977  -7.940  32.818  0.00  0.00    +0.000 A 
ATOM     11  C   UNL     1      -0.707  -7.745  32.359  0.00  0.00    +0.000 A 
ATOM     12  C   UNL     1      -0.353  -6.739  31.416  0.00  0.00    +0.000 A 
ATOM     13  C   UNL     1       1.037  -6.748  31.040  0.00  0.00    +0.000 C 
ATOM     14 CL   UNL     1      -4.614  -7.381  32.942  0.00  0.00    +0.000 Cl
ATOM     15 CL   UNL     1      -4.043  -5.163  30.922  0.00  0.00    +0.000 Cl
ATOM     16  C   UNL     1       0.599  -7.245  27.708  0.00  0.00    +0.000 C 
ATOM     17  C   UNL     1       1.152  -7.791  28.764  0.00  0.00    +0.000 C 
ATOM     18  C   UNL     1       1.660  -7.181  29.942  0.00  0.00    +0.000 C 
ATOM     19  H   UNL     1      -2.187  -4.313  29.769  0.00  0.00    +0.000 HD
ENDROOT
BRANCH   1  20
ATOM     20  C   UNL     1       0.749  -2.643  26.378  0.00  0.00    +0.000 C 
ATOM     21  O   UNL     1       0.139  -1.575  26.670  0.00  0.00    +0.000 OA
ATOM     22  N   UNL     1       1.472  -2.689  25.162  0.00  0.00    +0.000 N 
ATOM     23  H   UNL     1       1.963  -3.634  24.985  0.00  0.00    +0.000 HD
BRANCH  22  24
ATOM     24  C   UNL     1       1.610  -1.681  24.212  0.00  0.00    +0.000 A 
ATOM     25  C   UNL     1       2.808  -0.971  24.172  0.00  0.00    +0.000 A 
ATOM     26  C   UNL     1       3.038   0.042  23.283  0.00  0.00    +0.000 A 
ATOM     27  C   UNL     1       2.057   0.391  22.384  0.00  0.00    +0.000 A 
ATOM     28  C   UNL     1       0.876  -0.290  22.407  0.00  0.00    +0.000 A 
ATOM     29  C   UNL     1       0.648  -1.328  23.321  0.00  0.00    +0.000 A 
ATOM     30  C   UNL     1       2.303   1.502  21.408  0.00  0.00    +0.000 C 
BRANCH  26  31
ATOM     31  N   UNL     1       4.267   0.768  23.244  0.00  0.00    +0.000 N 
ATOM     32  H   UNL     1       4.467   1.550  23.917  0.00  0.00    +0.000 HD
ATOM     33  H   UNL     1       5.019   0.556  22.550  0.00  0.00    +0.000 HD
ENDBRANCH  26  31
ENDBRANCH  22  24
ENDBRANCH   1  20
BRANCH   3  34
ATOM     34  C   UNL     1       2.307  -4.308  29.105  0.00  0.00    +0.000 C 
ATOM     35  O   UNL     1       3.226  -4.516  28.280  0.00  0.00    +0.000 OA
BRANCH  34  36
ATOM     36  O   UNL     1       2.646  -4.072  30.424  0.00  0.00    +0.000 OA
ATOM     37  H   UNL     1       2.440  -3.149  30.795  0.00  0.00    +0.000 HD
ENDBRANCH  34  36
ENDBRANCH   3  34
TORSDOF 5
ENDMDL
