MODEL 1
REMARK VINA RESULT:    -7.813      0.000      0.000
REMARK INTER + INTRA:         -13.770
REMARK INTER:                 -11.923
REMARK INTRA:                  -1.847
REMARK UNBOUND:                -1.847
REMARK  Name = 
REMARK  10 active torsions:
REMARK  status: ('A' for Active; 'I' for Inactive)
REMARK    1  A    between atoms: C_2  and  S_7
REMARK    2  A    between atoms: S_7  and  C_8
REMARK    3  A    between atoms: C_8  and  N_9
REMARK    4  A    between atoms: C_8  and  C_22
REMARK    5  A    between atoms: C_11  and  C_12
REMARK    6  A    between atoms: C_12  and  C_13
REMARK    7  A    between atoms: C_23  and  C_29
REMARK    8  A    between atoms: C_25  and  C_27
REMARK    9  A    between atoms: C_29  and  C_30
REMARK   10  A    between atoms: C_30  and  C_31
REMARK                            x       y       z     vdW  Elec       q    Type
REMARK                         _______ _______ _______ _____ _____    ______ ____
ROOT
ATOM      1  C   UNL     1      -1.470  -6.569  29.379  0.00  0.00    +0.000 C 
ENDROOT
BRANCH   1   2
ATOM      2  N   UNL     1      -1.986  -6.994  30.700  0.00  0.00    +0.000 NA
ATOM      3  C   UNL     1      -1.126  -6.567  31.749  0.00  0.00    +0.000 C 
ATOM      4  C   UNL     1      -1.093  -7.322  33.008  0.00  0.00    +0.000 C 
ATOM      5  C   UNL     1      -2.188  -8.323  33.130  0.00  0.00    +0.000 C 
ATOM      6  C   UNL     1      -2.162  -9.154  31.848  0.00  0.00    +0.000 C 
ATOM      7  C   UNL     1      -2.504  -8.273  30.663  0.00  0.00    +0.000 C 
BRANCH   4   8
ATOM      8  C   UNL     1       0.283  -7.945  33.189  0.00  0.00    +0.000 C 
BRANCH   8   9
ATOM      9  C   UNL     1       1.277  -6.867  33.453  0.00  0.00    +0.000 A 
ATOM     10  N   UNL     1       2.222  -6.510  32.575  0.00  0.00    +0.000 NA
ATOM     11  C   UNL     1       3.105  -5.539  32.834  0.00  0.00    +0.000 A 
ATOM     12  C   UNL     1       3.080  -4.856  34.035  0.00  0.00    +0.000 A 
ATOM     13  C   UNL     1       2.115  -5.211  34.954  0.00  0.00    +0.000 A 
ATOM     14  C   UNL     1       1.226  -6.205  34.665  0.00  0.00    +0.000 A 
ENDBRANCH   8   9
ENDBRANCH   4   8
ENDBRANCH   1   2
BRANCH   1  15
ATOM     15  C   UNL     1      -1.549  -5.101  29.210  0.00  0.00    +0.000 A 
ATOM     16  C   UNL     1      -2.483  -4.192  29.577  0.00  0.00    +0.000 A 
ATOM     17  O   UNL     1      -1.996  -2.991  29.307  0.00  0.00    +0.000 OA
ATOM     18  C   UNL     1      -0.807  -3.060  28.783  0.00  0.00    +0.000 A 
ATOM     19  C   UNL     1      -0.468  -4.381  28.696  0.00  0.00    +0.000 A 
BRANCH  18  20
ATOM     20  C   UNL     1       0.002  -1.971  28.374  0.00  0.00    +0.000 C 
ATOM     21  N   UNL     1       0.679  -1.050  28.007  0.00  0.00    +0.000 NA
ENDBRANCH  18  20
BRANCH  16  22
ATOM     22  C   UNL     1      -3.808  -4.458  30.153  0.00  0.00    +0.000 C 
BRANCH  22  23
ATOM     23  C   UNL     1      -3.888  -4.006  31.606  0.00  0.00    +0.000 C 
ATOM     24  C   UNL     1      -4.400  -4.981  32.577  0.00  0.00    +0.000 C 
ENDBRANCH  22  23
ENDBRANCH  16  22
ENDBRANCH   1  15
BRANCH   1  25
ATOM     25  S   UNL     1       0.290  -7.043  29.302  0.00  0.00    +0.000 S 
BRANCH  25  27
ATOM     26  S   UNL     1       2.171  -8.789  27.469  0.00  0.00    +0.000 S 
ATOM     27  C   UNL     1       0.488  -8.585  28.337  0.00  0.00    +0.000 A 
ATOM     28  N   UNL     1      -0.008  -9.559  27.994  0.00  0.00    +0.000 NA
ATOM     29  N   UNL     1       0.466 -10.478  27.251  0.00  0.00    +0.000 NA
ATOM     30  C   UNL     1       1.614 -10.443  26.759  0.00  0.00    +0.000 A 
ATOM     31  N   UNL     1       2.464 -11.210  25.932  0.00  0.00    +0.000 N 
ATOM     32  H   UNL     1       2.931 -10.815  25.066  0.00  0.00    +0.000 HD
ATOM     33  H   UNL     1       2.694 -12.219  26.110  0.00  0.00    +0.000 HD
ENDBRANCH  25  27
ENDBRANCH   1  25
TORSDOF 9
ENDMDL
