MODEL 1
REMARK VINA RESULT:    -8.216      0.000      0.000
REMARK INTER + INTRA:         -12.548
REMARK INTER:                 -10.618
REMARK INTRA:                  -1.930
REMARK UNBOUND:                -1.930
REMARK  Name = 
REMARK  6 active torsions:
REMARK  status: ('A' for Active; 'I' for Inactive)
REMARK    1  A    between atoms: C_1  and  C_15
REMARK    2  A    between atoms: C_15  and  N_16
REMARK    3  A    between atoms: N_16  and  C_17
REMARK    4  A    between atoms: C_17  and  C_18
REMARK    5  A    between atoms: C_18  and  C_19
REMARK    6  A    between atoms: C_21  and  C_25
REMARK                            x       y       z     vdW  Elec       q    Type
REMARK                         _______ _______ _______ _____ _____    ______ ____
ROOT
ATOM      1  C   UNL     1      -3.012  -4.356  30.466  0.00  0.00    +0.000 A 
ATOM      2  C   UNL     1      -2.757  -2.987  30.327  0.00  0.00    +0.000 A 
ATOM      3  O   UNL     1      -3.689  -2.189  30.536  0.00  0.00    +0.000 OA
ATOM      4  N   UNL     1      -1.536  -2.544  29.979  0.00  0.00    +0.000 N 
ATOM      5  C   UNL     1      -0.568  -3.470  29.770  0.00  0.00    +0.000 A 
ATOM      6  C   UNL     1      -0.772  -4.809  29.892  0.00  0.00    +0.000 A 
ATOM      7  C   UNL     1      -2.053  -5.247  30.258  0.00  0.00    +0.000 A 
ATOM      8  C   UNL     1       0.249  -5.729  29.649  0.00  0.00    +0.000 A 
ATOM      9  C   UNL     1       1.528  -5.304  29.268  0.00  0.00    +0.000 A 
ATOM     10  C   UNL     1       1.728  -3.950  29.148  0.00  0.00    +0.000 A 
ATOM     11  C   UNL     1       0.708  -3.042  29.392  0.00  0.00    +0.000 A 
ATOM     12  O   UNL     1       3.077  -3.785  28.763  0.00  0.00    +0.000 OA
ATOM     13  C   UNL     1       3.466  -4.996  28.115  0.00  0.00    +0.000 C 
ATOM     14  O   UNL     1       2.739  -5.923  28.955  0.00  0.00    +0.000 OA
ATOM     15  H   UNL     1      -1.328  -1.534  29.879  0.00  0.00    +0.000 HD
ENDROOT
BRANCH   1  16
ATOM     16  C   UNL     1      -4.449  -4.683  30.799  0.00  0.00    +0.000 C 
BRANCH  16  17
ATOM     17  N   UNL     1      -4.617  -4.366  32.168  0.00  0.00    +0.000 NA
ATOM     18  H   UNL     1      -4.988  -3.439  32.335  0.00  0.00    +0.000 HD
BRANCH  17  19
ATOM     19  C   UNL     1      -3.993  -5.003  33.200  0.00  0.00    +0.000 C 
BRANCH  19  20
ATOM     20  C   UNL     1      -4.417  -6.464  33.437  0.00  0.00    +0.000 C 
BRANCH  20  21
ATOM     21  C   UNL     1      -3.311  -7.289  32.825  0.00  0.00    +0.000 A 
ATOM     22  C   UNL     1      -2.022  -7.169  33.276  0.00  0.00    +0.000 A 
ATOM     23  C   UNL     1      -0.995  -7.906  32.755  0.00  0.00    +0.000 A 
ATOM     24  C   UNL     1      -1.290  -8.786  31.754  0.00  0.00    +0.000 A 
ATOM     25  C   UNL     1      -2.580  -8.918  31.290  0.00  0.00    +0.000 A 
ATOM     26  C   UNL     1      -3.628  -8.159  31.828  0.00  0.00    +0.000 A 
ATOM     27  C   UNL     1       0.392  -7.734  33.276  0.00  0.00    +0.000 C 
ENDBRANCH  20  21
ENDBRANCH  19  20
ENDBRANCH  17  19
ENDBRANCH  16  17
ENDBRANCH   1  16
TORSDOF 5
ENDMDL
