MODEL 1
REMARK VINA RESULT:    -7.574      0.000      0.000
REMARK INTER + INTRA:         -12.348
REMARK INTER:                 -11.560
REMARK INTRA:                  -0.788
REMARK UNBOUND:                -0.788
REMARK  Name = 
REMARK  12 active torsions:
REMARK  status: ('A' for Active; 'I' for Inactive)
REMARK    1  A    between atoms: C_2  and  C_7
REMARK    2  A    between atoms: C_5  and  C_6
REMARK    3  A    between atoms: C_7  and  N_8
REMARK    4  A    between atoms: C_7  and  C_21
REMARK    5  A    between atoms: N_8  and  C_9
REMARK    6  A    between atoms: C_9  and  C_10
REMARK    7  A    between atoms: C_12  and  O_18
REMARK    8  A    between atoms: C_13  and  O_16
REMARK    9  A    between atoms: O_16  and  C_17
REMARK   10  A    between atoms: O_18  and  C_19
REMARK   11  A    between atoms: C_19  and  C_20
REMARK   12  A    between atoms: C_21  and  C_22
REMARK                            x       y       z     vdW  Elec       q    Type
REMARK                         _______ _______ _______ _____ _____    ______ ____
ROOT
ATOM      1  N   UNL     1      -7.312  -2.280  31.409  0.00  0.00    +0.000 NA
ATOM      2  H   UNL     1      -6.922  -1.815  30.575  0.00  0.00    +0.000 HD
ENDROOT
BRANCH   1   3
ATOM      3  C   UNL     1      -8.548  -1.712  31.823  0.00  0.00    +0.000 C 
BRANCH   3   5
ATOM      4  N   UNL     1      -8.224   0.771  31.392  0.00  0.00    +0.000 NA
ATOM      5  C   UNL     1      -8.613  -0.316  31.331  0.00  0.00    +0.000 A 
ATOM      6  S   UNL     1      -9.874  -0.083  29.945  0.00  0.00    +0.000 S 
ATOM      7  C   UNL     1      -9.524   1.705  29.746  0.00  0.00    +0.000 A 
ATOM      8  C   UNL     1      -8.516   1.853  30.749  0.00  0.00    +0.000 A 
ATOM      9  C   UNL     1      -7.876   3.231  30.981  0.00  0.00    +0.000 C 
ENDBRANCH   3   5
BRANCH   3  10
ATOM     10  C   UNL     1      -9.760  -2.514  31.439  0.00  0.00    +0.000 C 
BRANCH  10  11
ATOM     11  C   UNL     1     -10.819  -2.436  32.510  0.00  0.00    +0.000 A 
ATOM     12  C   UNL     1     -12.152  -2.271  32.160  0.00  0.00    +0.000 A 
ATOM     13  S   UNL     1     -13.042  -2.231  33.702  0.00  0.00    +0.000 S 
ATOM     14  C   UNL     1     -11.537  -2.443  34.739  0.00  0.00    +0.000 A 
ATOM     15  C   UNL     1     -10.536  -2.520  33.812  0.00  0.00    +0.000 A 
ENDBRANCH  10  11
ENDBRANCH   3  10
ENDBRANCH   1   3
BRANCH   1  16
ATOM     16  C   UNL     1      -6.306  -2.370  32.431  0.00  0.00    +0.000 C 
BRANCH  16  17
ATOM     17  C   UNL     1      -5.189  -3.281  32.013  0.00  0.00    +0.000 A 
ATOM     18  C   UNL     1      -4.785  -4.266  32.871  0.00  0.00    +0.000 A 
ATOM     19  C   UNL     1      -3.770  -5.120  32.507  0.00  0.00    +0.000 A 
ATOM     20  C   UNL     1      -3.148  -4.998  31.280  0.00  0.00    +0.000 A 
ATOM     21  C   UNL     1      -3.567  -4.004  30.432  0.00  0.00    +0.000 A 
ATOM     22  C   UNL     1      -4.578  -3.152  30.793  0.00  0.00    +0.000 A 
BRANCH  20  23
ATOM     23  O   UNL     1      -2.133  -5.873  30.946  0.00  0.00    +0.000 OA
ATOM     24  C   UNL     1      -1.665  -6.038  29.622  0.00  0.00    +0.000 C 
ENDBRANCH  20  23
BRANCH  19  25
ATOM     25  O   UNL     1      -3.382  -6.119  33.415  0.00  0.00    +0.000 OA
BRANCH  25  26
ATOM     26  C   UNL     1      -3.963  -7.382  33.339  0.00  0.00    +0.000 C 
ATOM     27  C   UNL     1      -2.880  -8.426  33.306  0.00  0.00    +0.000 C 
ENDBRANCH  25  26
ENDBRANCH  19  25
ENDBRANCH  16  17
ENDBRANCH   1  16
TORSDOF 9
ENDMDL
