MODEL 1
REMARK VINA RESULT:    -7.786      0.000      0.000
REMARK INTER + INTRA:         -10.434
REMARK INTER:                  -9.834
REMARK INTRA:                  -0.599
REMARK UNBOUND:                -0.599
REMARK  Name = 
REMARK  7 active torsions:
REMARK  status: ('A' for Active; 'I' for Inactive)
REMARK    1  A    between atoms: C_5  and  C_6
REMARK    2  A    between atoms: C_6  and  O_8
REMARK    3  A    between atoms: N_12  and  C_15
REMARK    4  A    between atoms: C_15  and  C_16
REMARK    5  A    between atoms: C_19  and  N_20
REMARK    6  A    between atoms: N_20  and  C_21
REMARK    7  A    between atoms: N_20  and  C_22
REMARK                            x       y       z     vdW  Elec       q    Type
REMARK                         _______ _______ _______ _____ _____    ______ ____
ROOT
ATOM      1  C   UNL     1      -3.364  -6.888  31.529  0.00  0.00    +0.000 C 
ATOM      2  C   UNL     1      -3.244  -7.021  33.048  0.00  0.00    +0.000 C 
ATOM      3  O   UNL     1      -1.886  -6.741  33.330  0.00  0.00    +0.000 OA
ATOM      4  C   UNL     1      -1.360  -7.673  32.395  0.00  0.00    +0.000 C 
ATOM      5  C   UNL     1      -1.906  -7.021  31.131  0.00  0.00    +0.000 C 
ATOM      6  C   UNL     1      -2.138  -8.896  32.782  0.00  0.00    +0.000 C 
ATOM      7  C   UNL     1      -3.283  -8.438  33.351  0.00  0.00    +0.000 C 
ATOM      8  C   UNL     1      -4.187  -6.081  33.661  0.00  0.00    +0.000 C 
ATOM      9  N   UNL     1      -4.047  -4.958  32.697  0.00  0.00    +0.000 N 
ATOM     10  C   UNL     1      -3.908  -5.516  31.410  0.00  0.00    +0.000 C 
ATOM     11  O   UNL     1      -4.198  -4.948  30.311  0.00  0.00    +0.000 OA
ENDROOT
BRANCH   5  12
ATOM     12  C   UNL     1      -1.672  -7.813  29.935  0.00  0.00    +0.000 C 
ATOM     13  O   UNL     1      -0.545  -7.676  29.345  0.00  0.00    +0.000 OA
BRANCH  12  14
ATOM     14  O   UNL     1      -2.549  -8.697  29.375  0.00  0.00    +0.000 OA
ATOM     15  H   UNL     1      -2.221  -9.535  28.882  0.00  0.00    +0.000 HD
ENDBRANCH  12  14
ENDBRANCH   5  12
BRANCH   9  16
ATOM     16  C   UNL     1      -4.047  -3.579  33.062  0.00  0.00    +0.000 C 
BRANCH  16  17
ATOM     17  C   UNL     1      -5.307  -2.883  32.723  0.00  0.00    +0.000 A 
ATOM     18  C   UNL     1      -5.343  -1.861  31.790  0.00  0.00    +0.000 A 
ATOM     19  C   UNL     1      -6.518  -1.213  31.457  0.00  0.00    +0.000 A 
ATOM     20  C   UNL     1      -7.709  -1.567  32.051  0.00  0.00    +0.000 A 
ATOM     21  C   UNL     1      -7.691  -2.581  32.982  0.00  0.00    +0.000 A 
ATOM     22  C   UNL     1      -6.500  -3.234  33.317  0.00  0.00    +0.000 A 
BRANCH  20  23
ATOM     23  N   UNL     1      -8.952  -0.927  31.689  0.00  0.00    +0.000 N 
ATOM     24  C   UNL     1      -8.976   0.382  31.092  0.00  0.00    +0.000 C 
ATOM     25  C   UNL     1     -10.203  -1.609  31.949  0.00  0.00    +0.000 C 
ENDBRANCH  20  23
ENDBRANCH  16  17
ENDBRANCH   9  16
TORSDOF 5
ENDMDL
