MODEL 1
REMARK VINA RESULT:    -8.329      0.000      0.000
REMARK INTER + INTRA:          -9.847
REMARK INTER:                  -9.790
REMARK INTRA:                  -0.057
REMARK UNBOUND:                -0.057
REMARK  Name = 
REMARK  4 active torsions:
REMARK  status: ('A' for Active; 'I' for Inactive)
REMARK    1  A    between atoms: N_7  and  N_8
REMARK    2  A    between atoms: N_9  and  N_10
REMARK    3  A    between atoms: N_11  and  C_12
REMARK    4  A    between atoms: N_11  and  C_18
REMARK                            x       y       z     vdW  Elec       q    Type
REMARK                         _______ _______ _______ _____ _____    ______ ____
ROOT
ATOM      1  C   UNL     1      -2.142  -4.958  29.732  0.00  0.00    +0.000 A 
ATOM      2  N   UNL     1      -2.960  -4.287  30.544  0.00  0.00    +0.000 NA
ATOM      3  C   UNL     1      -3.268  -2.991  30.369  0.00  0.00    +0.000 A 
ATOM      4  N   UNL     1      -2.705  -2.373  29.314  0.00  0.00    +0.000 NA
ATOM      5  C   UNL     1      -1.871  -3.009  28.463  0.00  0.00    +0.000 A 
ATOM      6  N   UNL     1      -1.596  -4.322  28.693  0.00  0.00    +0.000 NA
ATOM      7  N   UNL     1      -1.285  -2.330  27.359  0.00  0.00    +0.000 N 
ATOM      8  N   UNL     1      -4.143  -2.376  31.299  0.00  0.00    +0.000 N 
ATOM      9  N   UNL     1      -1.871  -6.348  30.003  0.00  0.00    +0.000 N 
ATOM     10  H   UNL     1      -0.652  -2.825  26.719  0.00  0.00    +0.000 HD
ATOM     11  H   UNL     1      -3.782  -1.873  32.152  0.00  0.00    +0.000 HD
ENDROOT
BRANCH   9  12
ATOM     12  C   UNL     1      -2.478  -6.939  31.129  0.00  0.00    +0.000 A 
ATOM     13  C   UNL     1      -1.631  -7.562  32.084  0.00  0.00    +0.000 A 
ATOM     14  C   UNL     1      -2.067  -8.142  33.221  0.00  0.00    +0.000 A 
ATOM     15  C   UNL     1      -3.428  -8.131  33.479  0.00  0.00    +0.000 A 
ATOM     16  C   UNL     1      -4.297  -7.549  32.606  0.00  0.00    +0.000 A 
ATOM     17  C   UNL     1      -3.805  -6.956  31.433  0.00  0.00    +0.000 A 
ENDBRANCH   9  12
BRANCH   9  18
ATOM     18  C   UNL     1      -0.920  -6.981  29.185  0.00  0.00    +0.000 A 
ATOM     19  C   UNL     1      -1.160  -7.830  28.159  0.00  0.00    +0.000 A 
ATOM     20  C   UNL     1      -0.117  -8.421  27.444  0.00  0.00    +0.000 A 
ATOM     21  C   UNL     1       1.193  -8.160  27.757  0.00  0.00    +0.000 A 
ATOM     22  C   UNL     1       1.443  -7.292  28.804  0.00  0.00    +0.000 A 
ATOM     23  C   UNL     1       0.432  -6.707  29.514  0.00  0.00    +0.000 A 
ENDBRANCH   9  18
BRANCH   7  24
ATOM     24  N   UNL     1      -1.572  -0.984  27.146  0.00  0.00    +0.000 NA
ATOM     25  H   UNL     1      -2.011  -0.530  27.978  0.00  0.00    +0.000 HD
ATOM     26  H   UNL     1      -0.688  -0.484  26.851  0.00  0.00    +0.000 HD
ENDBRANCH   7  24
BRANCH   8  27
ATOM     27  N   UNL     1      -5.515  -2.457  31.048  0.00  0.00    +0.000 NA
ATOM     28  H   UNL     1      -5.703  -2.559  30.027  0.00  0.00    +0.000 HD
ATOM     29  H   UNL     1      -6.011  -3.141  31.650  0.00  0.00    +0.000 HD
ENDBRANCH   8  27
TORSDOF 4
ENDMDL
