MODEL 1
REMARK VINA RESULT:    -9.495      0.000      0.000
REMARK INTER + INTRA:         -14.996
REMARK INTER:                 -13.381
REMARK INTRA:                  -1.615
REMARK UNBOUND:                -1.615
REMARK  Name = 
REMARK  9 active torsions:
REMARK  status: ('A' for Active; 'I' for Inactive)
REMARK    1  A    between atoms: C_10  and  C_11
REMARK    2  A    between atoms: C_19  and  N_20
REMARK    3  A    between atoms: N_20  and  C_21
REMARK    4  A    between atoms: N_20  and  C_29
REMARK    5  A    between atoms: C_21  and  C_22
REMARK    6  A    between atoms: C_21  and  C_28
REMARK    7  A    between atoms: C_29  and  C_30
REMARK    8  A    between atoms: C_33  and  O_36
REMARK    9  A    between atoms: O_36  and  C_37
REMARK                            x       y       z     vdW  Elec       q    Type
REMARK                         _______ _______ _______ _____ _____    ______ ____
ROOT
ATOM      1  C   UNL     1      -1.164  -3.799  29.401  0.00  0.00    +0.000 A 
ATOM      2  S   UNL     1       0.140  -3.591  28.121  0.00  0.00    +0.000 S 
ATOM      3  C   UNL     1      -0.106  -1.761  27.995  0.00  0.00    +0.000 A 
ATOM      4  C   UNL     1      -1.103  -1.594  28.911  0.00  0.00    +0.000 A 
ATOM      5  N   UNL     1      -1.546  -2.627  29.535  0.00  0.00    +0.000 NA
ATOM      6 CL   UNL     1       0.794  -0.695  26.930  0.00  0.00    +0.000 Cl
ATOM      7  N   UNL     1      -1.427  -5.088  29.905  0.00  0.00    +0.000 N 
ATOM      8  C   UNL     1      -2.428  -5.241  30.886  0.00  0.00    +0.000 A 
ATOM      9  N   UNL     1      -3.127  -4.109  31.274  0.00  0.00    +0.000 NA
ATOM     10  C   UNL     1      -4.092  -4.123  32.168  0.00  0.00    +0.000 A 
ATOM     11  C   UNL     1      -4.416  -5.349  32.743  0.00  0.00    +0.000 A 
ATOM     12  C   UNL     1      -3.778  -6.497  32.416  0.00  0.00    +0.000 A 
ATOM     13  C   UNL     1      -2.745  -6.426  31.449  0.00  0.00    +0.000 A 
ATOM     14  H   UNL     1      -0.902  -5.884  29.544  0.00  0.00    +0.000 HD
ENDROOT
BRANCH  10  15
ATOM     15  C   UNL     1      -4.840  -2.917  32.583  0.00  0.00    +0.000 C 
ATOM     16  C   UNL     1      -5.532  -2.262  31.388  0.00  0.00    +0.000 C 
ATOM     17  C   UNL     1      -6.199  -1.000  31.936  0.00  0.00    +0.000 C 
ATOM     18  N   UNL     1      -7.305  -1.370  32.795  0.00  0.00    +0.000 NA
ATOM     19  C   UNL     1      -7.260  -2.747  33.205  0.00  0.00    +0.000 C 
ATOM     20  C   UNL     1      -5.879  -3.195  33.622  0.00  0.00    +0.000 C 
ATOM     21  H   UNL     1      -8.178  -1.251  32.209  0.00  0.00    +0.000 HD
ENDBRANCH  10  15
BRANCH  13  22
ATOM     22  N   UNL     1      -2.082  -7.662  31.128  0.00  0.00    +0.000 N 
BRANCH  22  23
ATOM     23  C   UNL     1      -1.163  -8.351  32.005  0.00  0.00    +0.000 C 
ATOM     24  C   UNL     1      -1.855  -8.600  33.324  0.00  0.00    +0.000 C 
BRANCH  23  25
ATOM     25  C   UNL     1       0.044  -7.494  32.326  0.00  0.00    +0.000 A 
ATOM     26  C   UNL     1       0.888  -7.022  31.344  0.00  0.00    +0.000 A 
ATOM     27  C   UNL     1       1.997  -6.240  31.667  0.00  0.00    +0.000 A 
ATOM     28  C   UNL     1       2.252  -5.936  32.986  0.00  0.00    +0.000 A 
ATOM     29  C   UNL     1       1.429  -6.392  33.972  0.00  0.00    +0.000 A 
ATOM     30  C   UNL     1       0.326  -7.173  33.626  0.00  0.00    +0.000 A 
ENDBRANCH  23  25
ENDBRANCH  22  23
BRANCH  22  31
ATOM     31  C   UNL     1      -2.434  -8.337  29.869  0.00  0.00    +0.000 C 
BRANCH  31  32
ATOM     32  C   UNL     1      -1.355  -8.484  28.915  0.00  0.00    +0.000 A 
ATOM     33  C   UNL     1      -0.660  -9.636  28.726  0.00  0.00    +0.000 A 
ATOM     34  C   UNL     1       0.384  -9.723  27.789  0.00  0.00    +0.000 A 
ATOM     35  C   UNL     1       0.719  -8.619  27.040  0.00  0.00    +0.000 A 
ATOM     36  C   UNL     1       0.025  -7.431  27.214  0.00  0.00    +0.000 A 
ATOM     37  C   UNL     1      -0.992  -7.376  28.138  0.00  0.00    +0.000 A 
BRANCH  35  38
ATOM     38  O   UNL     1       1.758  -8.714  26.110  0.00  0.00    +0.000 OA
ATOM     39  C   UNL     1       2.911  -9.490  26.453  0.00  0.00    +0.000 C 
ENDBRANCH  35  38
ENDBRANCH  31  32
ENDBRANCH  22  31
ENDBRANCH  13  22
TORSDOF 7
ENDMDL
