MODEL 1
REMARK VINA RESULT:    -8.074      0.000      0.000
REMARK INTER + INTRA:         -12.605
REMARK INTER:                 -11.614
REMARK INTRA:                  -0.991
REMARK UNBOUND:                -0.991
REMARK  Name = 
REMARK  9 active torsions:
REMARK  status: ('A' for Active; 'I' for Inactive)
REMARK    1  A    between atoms: C_1  and  C_10
REMARK    2  A    between atoms: C_10  and  O_12
REMARK    3  A    between atoms: O_12  and  C_13
REMARK    4  A    between atoms: C_13  and  C_14
REMARK    5  A    between atoms: C_13  and  C_26
REMARK    6  A    between atoms: C_14  and  N_15
REMARK    7  A    between atoms: C_14  and  C_19
REMARK    8  A    between atoms: C_16  and  C_18
REMARK    9  A    between atoms: C_26  and  O_28
REMARK                            x       y       z     vdW  Elec       q    Type
REMARK                         _______ _______ _______ _____ _____    ______ ____
ROOT
ATOM      1  C   UNL     1      -7.627  -1.613  32.256  0.00  0.00    +0.000 C 
ENDROOT
BRANCH   1   2
ATOM      2  C   UNL     1      -7.047  -0.256  32.459  0.00  0.00    +0.000 C 
ATOM      3  O   UNL     1      -7.019   0.333  33.570  0.00  0.00    +0.000 OA
BRANCH   2   4
ATOM      4  O   UNL     1      -6.505   0.410  31.378  0.00  0.00    +0.000 OA
ATOM      5  H   UNL     1      -5.598   0.863  31.396  0.00  0.00    +0.000 HD
ENDBRANCH   2   4
ENDBRANCH   1   2
BRANCH   1   6
ATOM      6  O   UNL     1      -6.793  -2.352  31.335  0.00  0.00    +0.000 OA
BRANCH   6   7
ATOM      7  C   UNL     1      -5.457  -2.547  31.536  0.00  0.00    +0.000 C 
ATOM      8  O   UNL     1      -4.677  -1.586  31.385  0.00  0.00    +0.000 OA
BRANCH   7   9
ATOM      9  C   UNL     1      -4.908  -3.852  31.926  0.00  0.00    +0.000 A 
ATOM     10  N   UNL     1      -4.443  -4.808  31.100  0.00  0.00    +0.000 NA
ATOM     11  N   UNL     1      -4.025  -5.850  31.792  0.00  0.00    +0.000 N 
ATOM     12  C   UNL     1      -4.196  -5.629  33.122  0.00  0.00    +0.000 A 
ATOM     13  C   UNL     1      -4.751  -4.370  33.194  0.00  0.00    +0.000 A 
ATOM     14  N   UNL     1      -3.838  -6.564  34.037  0.00  0.00    +0.000 NA
ATOM     15  C   UNL     1      -3.303  -7.740  33.672  0.00  0.00    +0.000 A 
ATOM     16  C   UNL     1      -3.122  -7.984  32.325  0.00  0.00    +0.000 A 
ATOM     17  C   UNL     1      -3.492  -7.021  31.402  0.00  0.00    +0.000 A 
ENDBRANCH   7   9
ENDBRANCH   6   7
ENDBRANCH   1   6
BRANCH   1  18
ATOM     18  C   UNL     1      -8.970  -1.546  31.531  0.00  0.00    +0.000 C 
BRANCH  18  19
ATOM     19  C   UNL     1     -10.030  -2.329  32.158  0.00  0.00    +0.000 A 
ATOM     20  C   UNL     1      -9.735  -3.254  33.132  0.00  0.00    +0.000 A 
ATOM     21  C   UNL     1     -10.718  -3.990  33.744  0.00  0.00    +0.000 A 
ATOM     22  C   UNL     1     -12.026  -3.792  33.370  0.00  0.00    +0.000 A 
ATOM     23  C   UNL     1     -12.374  -2.876  32.400  0.00  0.00    +0.000 A 
ATOM     24  C   UNL     1     -11.347  -2.152  31.805  0.00  0.00    +0.000 A 
ATOM     25  F   UNL     1     -13.020  -4.518  33.971  0.00  0.00    +0.000 F 
ENDBRANCH  18  19
BRANCH  18  26
ATOM     26  N   UNL     1      -9.258  -0.132  31.376  0.00  0.00    +0.000 N 
ATOM     27  C   UNL     1      -9.606   0.437  30.122  0.00  0.00    +0.000 C 
ATOM     28  O   UNL     1      -9.659  -0.316  29.136  0.00  0.00    +0.000 OA
ATOM     29  C   UNL     1      -9.905   1.875  29.929  0.00  0.00    +0.000 C 
ATOM     30  H   UNL     1      -9.217   0.514  32.195  0.00  0.00    +0.000 HD
ENDBRANCH  18  26
ENDBRANCH   1  18
TORSDOF 8
ENDMDL
