MODEL 1
REMARK VINA RESULT:    -8.556      0.000      0.000
REMARK INTER + INTRA:         -15.334
REMARK INTER:                 -15.558
REMARK INTRA:                   0.224
REMARK UNBOUND:                 0.224
REMARK  Name = 
REMARK  16 active torsions:
REMARK  status: ('A' for Active; 'I' for Inactive)
REMARK    1  A    between atoms: C_1  and  C_11
REMARK    2  A    between atoms: N_5  and  C_6
REMARK    3  A    between atoms: C_11  and  C_12
REMARK    4  A    between atoms: C_12  and  C_13
REMARK    5  A    between atoms: C_13  and  O_15
REMARK    6  A    between atoms: O_15  and  C_16
REMARK    7  A    between atoms: C_16  and  C_39
REMARK    8  A    between atoms: C_17  and  C_33
REMARK    9  A    between atoms: C_18  and  C_26
REMARK   10  A    between atoms: C_19  and  C_20
REMARK   11  A    between atoms: C_26  and  O_28
REMARK   12  A    between atoms: O_28  and  C_29
REMARK   13  A    between atoms: C_29  and  C_30
REMARK   14  A    between atoms: C_30  and  C_31
REMARK   15  A    between atoms: C_31  and  O_32
REMARK   16  A    between atoms: C_39  and  O_41
REMARK                            x       y       z     vdW  Elec       q    Type
REMARK                         _______ _______ _______ _____ _____    ______ ____
ROOT
ATOM      1  C   UNL     1       0.471  -3.883  28.645  0.00  0.00    +0.000 C 
ATOM      2  C   UNL     1       1.729  -3.646  29.553  0.00  0.00    +0.000 C 
ATOM      3  C   UNL     1       1.160  -4.630  30.426  0.00  0.00    +0.000 C 
ATOM      4  C   UNL     1       0.183  -5.153  29.466  0.00  0.00    +0.000 C 
ENDROOT
BRANCH   4   5
ATOM      5  C   UNL     1       0.229  -6.395  28.757  0.00  0.00    +0.000 A 
ATOM      6  C   UNL     1      -0.956  -6.846  28.130  0.00  0.00    +0.000 A 
ATOM      7  C   UNL     1      -1.037  -8.016  27.421  0.00  0.00    +0.000 A 
ATOM      8  C   UNL     1       0.052  -8.830  27.280  0.00  0.00    +0.000 A 
ATOM      9  C   UNL     1       1.223  -8.445  27.866  0.00  0.00    +0.000 A 
ATOM     10  C   UNL     1       1.272  -7.267  28.570  0.00  0.00    +0.000 A 
ENDBRANCH   4   5
BRANCH   2  11
ATOM     11  C   UNL     1       2.905  -3.599  28.732  0.00  0.00    +0.000 A 
ATOM     12  C   UNL     1       3.802  -4.616  28.599  0.00  0.00    +0.000 A 
ATOM     13  C   UNL     1       4.903  -4.474  27.753  0.00  0.00    +0.000 A 
ATOM     14  C   UNL     1       5.081  -3.301  27.053  0.00  0.00    +0.000 A 
ATOM     15  C   UNL     1       4.170  -2.261  27.184  0.00  0.00    +0.000 A 
ATOM     16  C   UNL     1       3.097  -2.399  28.008  0.00  0.00    +0.000 A 
ENDBRANCH   2  11
BRANCH   3  17
ATOM     17  C   UNL     1       1.795  -5.425  31.441  0.00  0.00    +0.000 C 
ATOM     18  O   UNL     1       1.953  -6.647  31.411  0.00  0.00    +0.000 OA
BRANCH  17  19
ATOM     19  O   UNL     1       2.294  -4.786  32.560  0.00  0.00    +0.000 OA
BRANCH  19  20
ATOM     20  C   UNL     1       2.375  -5.311  33.835  0.00  0.00    +0.000 C 
BRANCH  20  21
ATOM     21  C   UNL     1       2.678  -4.296  34.868  0.00  0.00    +0.000 C 
BRANCH  21  22
ATOM     22  C   UNL     1       4.114  -3.822  34.880  0.00  0.00    +0.000 C 
BRANCH  22  23
ATOM     23  O   UNL     1       4.893  -4.833  34.285  0.00  0.00    +0.000 OA
ATOM     24  H   UNL     1       4.459  -5.101  33.418  0.00  0.00    +0.000 HD
ENDBRANCH  22  23
ENDBRANCH  21  22
ENDBRANCH  20  21
ENDBRANCH  19  20
ENDBRANCH  17  19
ENDBRANCH   3  17
BRANCH   1  25
ATOM     25  C   UNL     1       0.803  -4.104  27.249  0.00  0.00    +0.000 C 
ATOM     26  O   UNL     1       1.506  -5.037  26.773  0.00  0.00    +0.000 OA
BRANCH  25  27
ATOM     27  O   UNL     1       0.333  -3.229  26.243  0.00  0.00    +0.000 OA
ATOM     28  H   UNL     1      -0.194  -2.409  26.438  0.00  0.00    +0.000 HD
ENDBRANCH  25  27
ENDBRANCH   1  25
BRANCH   1  29
ATOM     29  O   UNL     1      -0.464  -2.842  28.820  0.00  0.00    +0.000 OA
BRANCH  29  30
ATOM     30  C   UNL     1      -1.825  -2.985  28.887  0.00  0.00    +0.000 C 
ATOM     31  O   UNL     1      -2.446  -3.336  27.877  0.00  0.00    +0.000 OA
BRANCH  30  32
ATOM     32  C   UNL     1      -2.486  -2.710  30.184  0.00  0.00    +0.000 C 
BRANCH  32  33
ATOM     33  C   UNL     1      -3.773  -3.489  30.272  0.00  0.00    +0.000 C 
BRANCH  33  34
ATOM     34  C   UNL     1      -3.521  -4.815  30.923  0.00  0.00    +0.000 A 
ATOM     35  N   UNL     1      -2.955  -5.921  30.413  0.00  0.00    +0.000 NA
ATOM     36  C   UNL     1      -2.925  -6.902  31.360  0.00  0.00    +0.000 A 
ATOM     37  C   UNL     1      -3.492  -6.367  32.477  0.00  0.00    +0.000 A 
ATOM     38  N   UNL     1      -3.846  -5.097  32.188  0.00  0.00    +0.000 N 
ATOM     39  C   UNL     1      -4.483  -4.182  33.108  0.00  0.00    +0.000 C 
ATOM     40  C   UNL     1      -3.614  -7.126  33.642  0.00  0.00    +0.000 A 
ATOM     41  C   UNL     1      -3.156  -8.431  33.661  0.00  0.00    +0.000 A 
ATOM     42  C   UNL     1      -2.590  -8.944  32.519  0.00  0.00    +0.000 A 
ATOM     43  C   UNL     1      -2.467  -8.205  31.378  0.00  0.00    +0.000 A 
ENDBRANCH  33  34
ENDBRANCH  32  33
ENDBRANCH  30  32
ENDBRANCH  29  30
ENDBRANCH   1  29
TORSDOF 15
ENDMDL
