MODEL 1
REMARK VINA RESULT:    -7.041      0.000      0.000
REMARK INTER + INTRA:         -13.373
REMARK INTER:                 -11.775
REMARK INTRA:                  -1.598
REMARK UNBOUND:                -1.598
REMARK  Name = 
REMARK  15 active torsions:
REMARK  status: ('A' for Active; 'I' for Inactive)
REMARK    1  A    between atoms: C_1  and  C_2
REMARK    2  A    between atoms: C_2  and  C_3
REMARK    3  A    between atoms: C_2  and  C_8
REMARK    4  A    between atoms: C_2  and  C_13
REMARK    5  A    between atoms: C_3  and  O_5
REMARK    6  A    between atoms: O_5  and  C_6
REMARK    7  A    between atoms: C_6  and  C_7
REMARK    8  A    between atoms: C_8  and  C_9
REMARK    9  A    between atoms: C_9  and  C_10
REMARK   10  A    between atoms: C_10  and  O_12
REMARK   11  A    between atoms: C_13  and  C_14
REMARK   12  A    between atoms: C_14  and  C_15
REMARK   13  A    between atoms: C_15  and  C_16
REMARK   14  A    between atoms: N_21  and  C_22
REMARK   15  A    between atoms: C_25  and  C_28
REMARK                            x       y       z     vdW  Elec       q    Type
REMARK                         _______ _______ _______ _____ _____    ______ ____
ROOT
ATOM      1  C   UNL     1       1.535  -4.990  29.649  0.00  0.00    +0.000 C 
ENDROOT
BRANCH   1   2
ATOM      2  C   UNL     1       0.480  -6.108  29.549  0.00  0.00    +0.000 A 
ATOM      3  N   UNL     1      -0.710  -6.073  30.103  0.00  0.00    +0.000 NA
ATOM      4  C   UNL     1      -1.562  -6.817  30.119  0.00  0.00    +0.000 A 
ATOM      5  S   UNL     1      -0.800  -8.213  29.084  0.00  0.00    +0.000 S 
ATOM      6  C   UNL     1       0.748  -7.263  28.857  0.00  0.00    +0.000 A 
ATOM      7  N   UNL     1      -2.936  -7.081  30.606  0.00  0.00    +0.000 N 
ATOM      8  H   UNL     1      -3.399  -7.988  30.365  0.00  0.00    +0.000 HD
BRANCH   7   9
ATOM      9  C   UNL     1      -3.576  -6.105  31.379  0.00  0.00    +0.000 A 
ATOM     10  C   UNL     1      -3.795  -6.192  32.730  0.00  0.00    +0.000 A 
ATOM     11  C   UNL     1      -4.444  -5.161  33.402  0.00  0.00    +0.000 A 
ATOM     12  C   UNL     1      -4.880  -4.040  32.747  0.00  0.00    +0.000 A 
ATOM     13  C   UNL     1      -4.665  -3.946  31.393  0.00  0.00    +0.000 A 
ATOM     14  C   UNL     1      -4.023  -4.965  30.725  0.00  0.00    +0.000 A 
ATOM     15  C   UNL     1      -5.568  -2.969  33.515  0.00  0.00    +0.000 C 
ENDBRANCH   7   9
ENDBRANCH   1   2
BRANCH   1  16
ATOM     16  C   UNL     1       0.715  -3.826  29.097  0.00  0.00    +0.000 C 
ATOM     17  O   UNL     1       0.431  -2.909  29.860  0.00  0.00    +0.000 OA
BRANCH  16  18
ATOM     18  O   UNL     1       0.313  -3.807  27.789  0.00  0.00    +0.000 OA
BRANCH  18  19
ATOM     19  C   UNL     1      -0.908  -3.287  27.342  0.00  0.00    +0.000 C 
ATOM     20  C   UNL     1      -0.735  -1.921  26.702  0.00  0.00    +0.000 C 
ENDBRANCH  18  19
ENDBRANCH  16  18
ENDBRANCH   1  16
BRANCH   1  21
ATOM     21  C   UNL     1       1.931  -4.680  31.013  0.00  0.00    +0.000 C 
BRANCH  21  22
ATOM     22  C   UNL     1       2.230  -5.818  31.895  0.00  0.00    +0.000 C 
BRANCH  22  23
ATOM     23  C   UNL     1       2.751  -5.589  33.238  0.00  0.00    +0.000 C 
ATOM     24  O   UNL     1       1.992  -5.696  34.237  0.00  0.00    +0.000 OA
BRANCH  23  25
ATOM     25  O   UNL     1       4.070  -5.254  33.469  0.00  0.00    +0.000 OA
ATOM     26  H   UNL     1       4.627  -4.835  32.724  0.00  0.00    +0.000 HD
ENDBRANCH  23  25
ENDBRANCH  22  23
ENDBRANCH  21  22
ENDBRANCH   1  21
BRANCH   1  27
ATOM     27  C   UNL     1       2.549  -5.273  28.612  0.00  0.00    +0.000 C 
BRANCH  27  28
ATOM     28  C   UNL     1       3.737  -4.438  28.475  0.00  0.00    +0.000 C 
BRANCH  28  29
ATOM     29  C   UNL     1       3.988  -3.570  27.318  0.00  0.00    +0.000 C 
ATOM     30  C   UNL     1       3.687  -2.125  27.449  0.00  0.00    +0.000 C 
ENDBRANCH  28  29
ENDBRANCH  27  28
ENDBRANCH   1  27
TORSDOF 12
ENDMDL
