MODEL 1
REMARK VINA RESULT:    -6.864      0.000      0.000
REMARK INTER + INTRA:          -9.548
REMARK INTER:                  -9.070
REMARK INTRA:                  -0.478
REMARK UNBOUND:                -0.478
REMARK  Name = 
REMARK  7 active torsions:
REMARK  status: ('A' for Active; 'I' for Inactive)
REMARK    1  A    between atoms: S_1  and  C_4
REMARK    2  A    between atoms: S_1  and  N_21
REMARK    3  A    between atoms: C_7  and  N_8
REMARK    4  A    between atoms: C_9  and  C_11
REMARK    5  A    between atoms: C_11  and  S_12
REMARK    6  A    between atoms: S_12  and  C_13
REMARK    7  A    between atoms: N_14  and  C_18
REMARK                            x       y       z     vdW  Elec       q    Type
REMARK                         _______ _______ _______ _____ _____    ______ ____
ROOT
ATOM      1  C   UNL     1      -5.237  -2.425  32.121  0.00  0.00    +0.000 A 
ATOM      2  C   UNL     1      -5.328  -3.254  33.222  0.00  0.00    +0.000 A 
ATOM      3  C   UNL     1      -4.592  -4.414  33.265  0.00  0.00    +0.000 A 
ATOM      4  C   UNL     1      -3.738  -4.803  32.222  0.00  0.00    +0.000 A 
ATOM      5  C   UNL     1      -3.674  -3.962  31.155  0.00  0.00    +0.000 A 
ATOM      6  C   UNL     1      -4.407  -2.780  31.083  0.00  0.00    +0.000 A 
ENDROOT
BRANCH   4   7
ATOM      7  N   UNL     1      -3.038  -6.010  32.411  0.00  0.00    +0.000 N 
ATOM      8  C   UNL     1      -3.468  -7.307  32.049  0.00  0.00    +0.000 C 
ATOM      9  O   UNL     1      -4.584  -7.448  31.498  0.00  0.00    +0.000 OA
ATOM     10  H   UNL     1      -2.070  -6.000  32.874  0.00  0.00    +0.000 HD
BRANCH   8  11
ATOM     11  C   UNL     1      -2.635  -8.522  32.298  0.00  0.00    +0.000 C 
BRANCH  11  12
ATOM     12  S   UNL     1      -1.095  -8.443  31.342  0.00  0.00    +0.000 S 
BRANCH  12  13
ATOM     13  C   UNL     1       0.177  -7.566  32.213  0.00  0.00    +0.000 A 
ATOM     14  N   UNL     1       1.167  -6.849  31.700  0.00  0.00    +0.000 N 
ATOM     15  C   UNL     1       1.931  -6.340  32.713  0.00  0.00    +0.000 A 
ATOM     16  N   UNL     1       1.368  -6.774  33.859  0.00  0.00    +0.000 NA
ATOM     17  N   UNL     1       0.302  -7.520  33.548  0.00  0.00    +0.000 NA
ATOM     18  C   UNL     1       1.428  -6.619  30.295  0.00  0.00    +0.000 C 
ENDBRANCH  12  13
ENDBRANCH  11  12
ENDBRANCH   8  11
ENDBRANCH   4   7
BRANCH   1  19
ATOM     19  S   UNL     1      -6.179  -0.939  32.079  0.00  0.00    +0.000 S 
ATOM     20  O   UNL     1      -5.449   0.087  31.258  0.00  0.00    +0.000 OA
ATOM     21  O   UNL     1      -7.542  -1.199  31.508  0.00  0.00    +0.000 OA
BRANCH  19  22
ATOM     22  N   UNL     1      -6.367  -0.314  33.673  0.00  0.00    +0.000 NA
ATOM     23  H   UNL     1      -6.416  -1.141  34.334  0.00  0.00    +0.000 HD
ATOM     24  H   UNL     1      -5.500   0.206  33.916  0.00  0.00    +0.000 HD
ENDBRANCH  19  22
ENDBRANCH   1  19
TORSDOF 6
ENDMDL
