MODEL 1
REMARK VINA RESULT:    -8.200      0.000      0.000
REMARK INTER + INTRA:         -12.364
REMARK INTER:                 -11.316
REMARK INTRA:                  -1.048
REMARK UNBOUND:                -1.048
REMARK  Name = 
REMARK  8 active torsions:
REMARK  status: ('A' for Active; 'I' for Inactive)
REMARK    1  A    between atoms: C_1  and  C_2
REMARK    2  A    between atoms: N_4  and  C_5
REMARK    3  A    between atoms: C_5  and  C_6
REMARK    4  A    between atoms: C_9  and  C_10
REMARK    5  A    between atoms: C_10  and  N_11
REMARK    6  A    between atoms: C_10  and  C_15
REMARK    7  A    between atoms: C_12  and  C_14
REMARK    8  A    between atoms: C_23  and  N_28
REMARK                            x       y       z     vdW  Elec       q    Type
REMARK                         _______ _______ _______ _____ _____    ______ ____
ROOT
ATOM      1  C   UNL     1      -6.620  -1.461  32.139  0.00  0.00    +0.000 C 
ATOM      2  C   UNL     1      -7.503  -2.608  31.651  0.00  0.00    +0.000 C 
ATOM      3  C   UNL     1      -8.731  -2.636  32.519  0.00  0.00    +0.000 C 
ATOM      4  C   UNL     1      -9.628  -1.486  32.154  0.00  0.00    +0.000 C 
ATOM      5  C   UNL     1      -8.772  -0.381  31.556  0.00  0.00    +0.000 C 
ATOM      6  C   UNL     1      -7.541  -0.276  32.460  0.00  0.00    +0.000 C 
ENDROOT
BRANCH   1   7
ATOM      7  C   UNL     1      -5.915  -1.936  33.370  0.00  0.00    +0.000 C 
BRANCH   7  10
ATOM      8  C   UNL     1      -4.443  -3.849  32.671  0.00  0.00    +0.000 C 
ATOM      9  O   UNL     1      -3.592  -2.982  32.243  0.00  0.00    +0.000 OA
ATOM     10  N   UNL     1      -5.632  -3.365  33.251  0.00  0.00    +0.000 N 
ATOM     11  H   UNL     1      -6.341  -4.073  33.610  0.00  0.00    +0.000 HD
BRANCH   8  12
ATOM     12  C   UNL     1      -4.140  -5.265  32.539  0.00  0.00    +0.000 A 
ATOM     13  C   UNL     1      -3.975  -5.850  31.277  0.00  0.00    +0.000 A 
ATOM     14  N   UNL     1      -3.695  -7.159  31.123  0.00  0.00    +0.000 NA
ATOM     15  C   UNL     1      -3.558  -7.989  32.171  0.00  0.00    +0.000 A 
ATOM     16  C   UNL     1      -3.713  -7.453  33.423  0.00  0.00    +0.000 A 
ATOM     17  C   UNL     1      -4.002  -6.103  33.613  0.00  0.00    +0.000 A 
BRANCH  13  18
ATOM     18  N   UNL     1      -4.116  -4.973  30.164  0.00  0.00    +0.000 N 
ATOM     19  H   UNL     1      -4.142  -5.264  29.171  0.00  0.00    +0.000 HD
ATOM     20  H   UNL     1      -4.201  -3.955  30.370  0.00  0.00    +0.000 HD
ENDBRANCH  13  18
ENDBRANCH   8  12
ENDBRANCH   7  10
ENDBRANCH   1   7
BRANCH   4  21
ATOM     21  C   UNL     1     -10.695  -1.968  31.205  0.00  0.00    +0.000 C 
BRANCH  21  22
ATOM     22  C   UNL     1     -12.000  -1.869  31.908  0.00  0.00    +0.000 A 
ATOM     23  N   UNL     1     -13.141  -1.507  31.303  0.00  0.00    +0.000 NA
ATOM     24  C   UNL     1     -14.316  -1.423  31.938  0.00  0.00    +0.000 A 
ATOM     25  C   UNL     1     -14.378  -1.716  33.273  0.00  0.00    +0.000 A 
ATOM     26  C   UNL     1     -13.237  -2.091  33.939  0.00  0.00    +0.000 A 
ATOM     27  C   UNL     1     -12.044  -2.167  33.252  0.00  0.00    +0.000 A 
ENDBRANCH  21  22
BRANCH  21  28
ATOM     28  N   UNL     1     -10.653  -1.064  30.059  0.00  0.00    +0.000 N 
ATOM     29  C   UNL     1     -10.795  -1.526  28.725  0.00  0.00    +0.000 C 
ATOM     30  O   UNL     1     -10.964  -2.762  28.533  0.00  0.00    +0.000 OA
ATOM     31  C   UNL     1     -10.742  -0.547  27.599  0.00  0.00    +0.000 C 
ATOM     32  H   UNL     1     -10.513  -0.058  30.256  0.00  0.00    +0.000 HD
ENDBRANCH  21  28
ENDBRANCH   4  21
TORSDOF 7
ENDMDL
