MODEL 1
REMARK VINA RESULT:    -8.928      0.000      0.000
REMARK INTER + INTRA:         -12.527
REMARK INTER:                 -12.060
REMARK INTRA:                  -0.467
REMARK UNBOUND:                -0.467
REMARK  Name = 
REMARK  8 active torsions:
REMARK  status: ('A' for Active; 'I' for Inactive)
REMARK    1  A    between atoms: C_3  and  C_25
REMARK    2  A    between atoms: C_4  and  C_8
REMARK    3  A    between atoms: C_5  and  C_7
REMARK    4  A    between atoms: C_8  and  C_9
REMARK    5  A    between atoms: C_9  and  C_10
REMARK    6  A    between atoms: N_12  and  C_13
REMARK    7  A    between atoms: C_15  and  C_16
REMARK    8  A    between atoms: C_16  and  N_17
REMARK                            x       y       z     vdW  Elec       q    Type
REMARK                         _______ _______ _______ _____ _____    ______ ____
ROOT
ATOM      1  C   UNL     1      -4.580  -3.738  32.218  0.00  0.00    +0.000 C 
ATOM      2  O   UNL     1      -4.087  -3.573  33.349  0.00  0.00    +0.000 OA
ATOM      3  N   UNL     1      -4.432  -4.972  31.578  0.00  0.00    +0.000 N 
ATOM      4  H   UNL     1      -4.886  -5.037  30.611  0.00  0.00    +0.000 HD
ENDROOT
BRANCH   3   5
ATOM      5  C   UNL     1      -3.765  -6.130  32.043  0.00  0.00    +0.000 A 
ATOM      6  C   UNL     1      -2.479  -6.414  31.540  0.00  0.00    +0.000 A 
ATOM      7  C   UNL     1      -1.799  -7.518  31.976  0.00  0.00    +0.000 A 
ATOM      8  C   UNL     1      -2.310  -8.399  32.904  0.00  0.00    +0.000 A 
ATOM      9  C   UNL     1      -3.560  -8.146  33.410  0.00  0.00    +0.000 A 
ATOM     10  C   UNL     1      -4.259  -7.013  32.964  0.00  0.00    +0.000 A 
BRANCH   7  11
ATOM     11  C   UNL     1      -0.423  -7.832  31.444  0.00  0.00    +0.000 C 
BRANCH  11  12
ATOM     12  N   UNL     1       0.535  -7.122  32.245  0.00  0.00    +0.000 N 
ATOM     13  N   UNL     1       0.559  -7.043  33.561  0.00  0.00    +0.000 NA
ATOM     14  C   UNL     1       1.575  -6.308  33.996  0.00  0.00    +0.000 A 
ATOM     15  C   UNL     1       2.255  -5.883  32.878  0.00  0.00    +0.000 A 
ATOM     16  C   UNL     1       1.573  -6.413  31.786  0.00  0.00    +0.000 A 
ENDBRANCH  11  12
ENDBRANCH   7  11
ENDBRANCH   3   5
BRANCH   1  17
ATOM     17  C   UNL     1      -5.311  -2.586  31.604  0.00  0.00    +0.000 C 
BRANCH  17  18
ATOM     18  C   UNL     1      -6.029  -1.810  32.680  0.00  0.00    +0.000 C 
BRANCH  18  22
ATOM     19  C   UNL     1      -8.795   0.922  31.048  0.00  0.00    +0.000 A 
ATOM     20  N   UNL     1      -7.490   1.270  31.155  0.00  0.00    +0.000 NA
ATOM     21  C   UNL     1      -6.591   0.416  31.673  0.00  0.00    +0.000 A 
ATOM     22  C   UNL     1      -6.962  -0.823  32.103  0.00  0.00    +0.000 A 
ATOM     23  C   UNL     1      -8.288  -1.195  32.001  0.00  0.00    +0.000 A 
ATOM     24  N   UNL     1      -9.148  -0.306  31.477  0.00  0.00    +0.000 NA
ATOM     25  C   UNL     1      -8.727  -2.546  32.463  0.00  0.00    +0.000 C 
ATOM     26  C   UNL     1      -5.180   0.845  31.769  0.00  0.00    +0.000 C 
ATOM     27  N   UNL     1      -9.773   1.772  30.517  0.00  0.00    +0.000 N 
ATOM     28  H   UNL     1     -10.029   2.642  31.026  0.00  0.00    +0.000 HD
ATOM     29  H   UNL     1     -10.237   1.537  29.629  0.00  0.00    +0.000 HD
ENDBRANCH  18  22
ENDBRANCH  17  18
ENDBRANCH   1  17
TORSDOF 6
ENDMDL
