MODEL 1
REMARK VINA RESULT:    -7.522      0.000      0.000
REMARK INTER + INTRA:         -14.787
REMARK INTER:                 -12.578
REMARK INTRA:                  -2.209
REMARK UNBOUND:                -2.209
REMARK  Name = 
REMARK  14 active torsions:
REMARK  status: ('A' for Active; 'I' for Inactive)
REMARK    1  A    between atoms: N_1  and  C_2
REMARK    2  A    between atoms: N_1  and  C_8
REMARK    3  A    between atoms: N_1  and  C_14
REMARK    4  A    between atoms: C_14  and  N_15
REMARK    5  A    between atoms: N_15  and  C_16
REMARK    6  A    between atoms: C_17  and  O_24
REMARK    7  A    between atoms: C_19  and  O_22
REMARK    8  A    between atoms: O_22  and  C_23
REMARK    9  A    between atoms: O_24  and  C_25
REMARK   10  A    between atoms: C_26  and  C_28
REMARK   11  A    between atoms: C_28  and  S_29
REMARK   12  A    between atoms: S_29  and  C_30
REMARK   13  A    between atoms: C_30  and  C_31
REMARK   14  A    between atoms: C_31  and  O_33
REMARK                            x       y       z     vdW  Elec       q    Type
REMARK                         _______ _______ _______ _____ _____    ______ ____
ROOT
ATOM      1  N   UNL     1      -0.881  -7.052  29.665  0.00  0.00    +0.000 N 
ATOM      2  C   UNL     1      -0.809  -8.210  28.881  0.00  0.00    +0.000 C 
ATOM      3  O   UNL     1      -0.541  -9.317  29.375  0.00  0.00    +0.000 OA
ENDROOT
BRANCH   1   4
ATOM      4  C   UNL     1      -0.220  -6.990  30.936  0.00  0.00    +0.000 A 
ATOM      5  C   UNL     1       1.073  -6.435  30.894  0.00  0.00    +0.000 A 
ATOM      6  C   UNL     1       1.787  -6.249  32.043  0.00  0.00    +0.000 A 
ATOM      7  C   UNL     1       1.305  -6.580  33.283  0.00  0.00    +0.000 A 
ATOM      8  C   UNL     1       0.045  -7.127  33.335  0.00  0.00    +0.000 A 
ATOM      9  C   UNL     1      -0.702  -7.325  32.156  0.00  0.00    +0.000 A 
BRANCH   7  10
ATOM     10  O   UNL     1       2.025  -6.380  34.429  0.00  0.00    +0.000 OA
ATOM     11  C   UNL     1       2.360  -5.104  34.934  0.00  0.00    +0.000 C 
ENDBRANCH   7  10
BRANCH   5  12
ATOM     12  O   UNL     1       1.601  -6.089  29.673  0.00  0.00    +0.000 OA
ATOM     13  C   UNL     1       2.592  -5.082  29.575  0.00  0.00    +0.000 C 
ENDBRANCH   5  12
ENDBRANCH   1   4
BRANCH   1  14
ATOM     14  C   UNL     1      -1.591  -5.898  29.213  0.00  0.00    +0.000 C 
BRANCH  14  15
ATOM     15  N   UNL     1      -2.050  -4.905  30.026  0.00  0.00    +0.000 NA
BRANCH  15  16
ATOM     16  C   UNL     1      -1.805  -3.587  29.476  0.00  0.00    +0.000 C 
ATOM     17  C   UNL     1      -1.955  -3.503  27.988  0.00  0.00    +0.000 C 
ATOM     18  C   UNL     1      -1.885  -2.017  27.607  0.00  0.00    +0.000 C 
ATOM     19  N   UNL     1      -0.938  -1.299  28.397  0.00  0.00    +0.000 NA
ATOM     20  C   UNL     1       0.133  -2.129  28.877  0.00  0.00    +0.000 C 
ATOM     21  C   UNL     1      -0.413  -3.153  29.857  0.00  0.00    +0.000 C 
ATOM     22  H   UNL     1      -1.425  -0.887  29.203  0.00  0.00    +0.000 HD
ENDBRANCH  15  16
BRANCH  15  23
ATOM     23  C   UNL     1      -2.969  -4.900  31.048  0.00  0.00    +0.000 C 
ATOM     24  C   UNL     1      -3.885  -6.129  31.165  0.00  0.00    +0.000 C 
ATOM     25  C   UNL     1      -4.239  -6.403  32.606  0.00  0.00    +0.000 C 
ATOM     26  C   UNL     1      -4.340  -5.130  33.397  0.00  0.00    +0.000 C 
ATOM     27  C   UNL     1      -4.734  -4.004  32.508  0.00  0.00    +0.000 C 
ATOM     28  C   UNL     1      -3.674  -3.658  31.456  0.00  0.00    +0.000 C 
ENDBRANCH  15  23
ENDBRANCH  14  15
ENDBRANCH   1  14
BRANCH   2  29
ATOM     29  C   UNL     1      -1.051  -8.144  27.397  0.00  0.00    +0.000 C 
BRANCH  29  30
ATOM     30  S   UNL     1       0.317  -8.752  26.411  0.00  0.00    +0.000 S 
BRANCH  30  31
ATOM     31  C   UNL     1       0.125 -10.431  25.855  0.00  0.00    +0.000 C 
BRANCH  31  32
ATOM     32  C   UNL     1       0.455 -11.467  26.852  0.00  0.00    +0.000 C 
ATOM     33  O   UNL     1       1.593 -12.032  26.731  0.00  0.00    +0.000 OA
BRANCH  32  34
ATOM     34  O   UNL     1      -0.316 -11.894  27.888  0.00  0.00    +0.000 OA
ATOM     35  H   UNL     1      -1.045 -11.278  28.301  0.00  0.00    +0.000 HD
ENDBRANCH  32  34
ENDBRANCH  31  32
ENDBRANCH  30  31
ENDBRANCH  29  30
ENDBRANCH   2  29
TORSDOF 12
ENDMDL
