MODEL 1
REMARK VINA RESULT:    -9.467      0.000      0.000
REMARK INTER + INTRA:         -16.502
REMARK INTER:                 -13.894
REMARK INTRA:                  -2.608
REMARK UNBOUND:                -2.608
REMARK  Name = 
REMARK  11 active torsions:
REMARK  status: ('A' for Active; 'I' for Inactive)
REMARK    1  A    between atoms: C_1  and  C_11
REMARK    2  A    between atoms: C_20  and  N_21
REMARK    3  A    between atoms: N_21  and  C_22
REMARK    4  A    between atoms: C_23  and  C_29
REMARK    5  A    between atoms: C_25  and  C_28
REMARK    6  A    between atoms: C_30  and  C_32
REMARK    7  A    between atoms: C_32  and  O_33
REMARK    8  A    between atoms: O_33  and  C_34
REMARK    9  A    between atoms: C_35  and  O_42
REMARK   10  A    between atoms: C_37  and  C_38
REMARK   11  A    between atoms: O_42  and  C_43
REMARK                            x       y       z     vdW  Elec       q    Type
REMARK                         _______ _______ _______ _____ _____    ______ ____
ROOT
ATOM      1  N   UNL     1      -1.828  -7.039  31.413  0.00  0.00    +0.000 N 
ATOM      2  C   UNL     1      -2.114  -7.965  30.401  0.00  0.00    +0.000 C 
ATOM      3  O   UNL     1      -3.316  -8.019  29.943  0.00  0.00    +0.000 OA
ENDROOT
BRANCH   1  13
ATOM      4  C   UNL     1       1.142  -4.301  30.150  0.00  0.00    +0.000 C 
ATOM      5  N   UNL     1       0.289  -5.463  30.271  0.00  0.00    +0.000 N 
ATOM      6  C   UNL     1       0.453  -6.260  31.437  0.00  0.00    +0.000 A 
ATOM      7  C   UNL     1       1.731  -6.223  32.023  0.00  0.00    +0.000 A 
ATOM      8  C   UNL     1       2.780  -5.377  31.407  0.00  0.00    +0.000 C 
ATOM      9  O   UNL     1       2.451  -4.816  30.213  0.00  0.00    +0.000 OA
ATOM     10  C   UNL     1       1.983  -6.960  33.145  0.00  0.00    +0.000 A 
ATOM     11  C   UNL     1       0.977  -7.731  33.686  0.00  0.00    +0.000 A 
ATOM     12  C   UNL     1      -0.285  -7.796  33.147  0.00  0.00    +0.000 A 
ATOM     13  C   UNL     1      -0.531  -7.031  31.991  0.00  0.00    +0.000 A 
ATOM     14  H   UNL     1      -0.427  -5.782  29.605  0.00  0.00    +0.000 HD
BRANCH   4  15
ATOM     15  C   UNL     1       0.950  -3.567  28.897  0.00  0.00    +0.000 A 
ATOM     16  N   UNL     1       2.004  -3.025  28.246  0.00  0.00    +0.000 NA
ATOM     17  C   UNL     1       1.876  -2.349  27.099  0.00  0.00    +0.000 A 
ATOM     18  C   UNL     1       0.602  -2.207  26.565  0.00  0.00    +0.000 A 
ATOM     19  N   UNL     1      -0.459  -2.734  27.190  0.00  0.00    +0.000 NA
ATOM     20  C   UNL     1      -0.286  -3.408  28.345  0.00  0.00    +0.000 A 
ATOM     21  C   UNL     1       0.434  -1.511  25.375  0.00  0.00    +0.000 A 
ATOM     22  C   UNL     1       1.489  -0.958  24.705  0.00  0.00    +0.000 A 
ATOM     23  C   UNL     1       2.762  -1.090  25.221  0.00  0.00    +0.000 A 
ATOM     24  C   UNL     1       2.922  -1.781  26.403  0.00  0.00    +0.000 A 
ENDBRANCH   4  15
ENDBRANCH   1  13
BRANCH   1  25
ATOM     25  C   UNL     1      -2.828  -6.152  31.871  0.00  0.00    +0.000 A 
ATOM     26  C   UNL     1      -3.678  -6.455  32.903  0.00  0.00    +0.000 A 
ATOM     27  C   UNL     1      -4.639  -5.500  33.290  0.00  0.00    +0.000 A 
ATOM     28  C   UNL     1      -4.727  -4.286  32.650  0.00  0.00    +0.000 A 
ATOM     29  C   UNL     1      -3.855  -4.012  31.614  0.00  0.00    +0.000 A 
ATOM     30  C   UNL     1      -2.912  -4.924  31.218  0.00  0.00    +0.000 A 
ATOM     31  C   UNL     1      -5.747  -3.267  33.060  0.00  0.00    +0.000 C 
ATOM     32  C   UNL     1      -3.718  -7.687  33.682  0.00  0.00    +0.000 C 
ENDBRANCH   1  25
BRANCH   2  33
ATOM     33  C   UNL     1      -1.219  -8.923  29.757  0.00  0.00    +0.000 C 
BRANCH  33  34
ATOM     34  O   UNL     1      -0.851  -8.677  28.443  0.00  0.00    +0.000 OA
BRANCH  34  35
ATOM     35  C   UNL     1       0.220  -9.392  27.930  0.00  0.00    +0.000 A 
ATOM     36  C   UNL     1       1.467  -8.824  27.782  0.00  0.00    +0.000 A 
ATOM     37  C   UNL     1       2.516  -9.559  27.268  0.00  0.00    +0.000 A 
ATOM     38  C   UNL     1       2.363 -10.867  26.890  0.00  0.00    +0.000 A 
ATOM     39  C   UNL     1       1.137 -11.458  27.026  0.00  0.00    +0.000 A 
ATOM     40  C   UNL     1       0.089 -10.716  27.541  0.00  0.00    +0.000 A 
BRANCH  38  41
ATOM     41  C   UNL     1       3.512 -11.616  26.346  0.00  0.00    +0.000 C 
ATOM     42  O   UNL     1       3.657 -12.837  26.572  0.00  0.00    +0.000 OA
ENDBRANCH  38  41
BRANCH  36  43
ATOM     43  O   UNL     1       1.648  -7.505  28.154  0.00  0.00    +0.000 OA
ATOM     44  C   UNL     1       2.173  -6.577  27.240  0.00  0.00    +0.000 C 
ENDBRANCH  36  43
ENDBRANCH  34  35
ENDBRANCH  33  34
ENDBRANCH   2  33
TORSDOF 8
ENDMDL
