MODEL 1
REMARK VINA RESULT:    -8.347      0.000      0.000
REMARK INTER + INTRA:         -12.009
REMARK INTER:                 -11.274
REMARK INTRA:                  -0.735
REMARK UNBOUND:                -0.735
REMARK  Name = 
REMARK  8 active torsions:
REMARK  status: ('A' for Active; 'I' for Inactive)
REMARK    1  A    between atoms: N_5  and  C_10
REMARK    2  A    between atoms: C_7  and  C_8
REMARK    3  A    between atoms: C_8  and  C_9
REMARK    4  A    between atoms: C_10  and  C_11
REMARK    5  A    between atoms: N_13  and  C_14
REMARK    6  A    between atoms: C_14  and  C_15
REMARK    7  A    between atoms: C_15  and  C_16
REMARK    8  A    between atoms: C_25  and  C_27
REMARK                            x       y       z     vdW  Elec       q    Type
REMARK                         _______ _______ _______ _____ _____    ______ ____
ROOT
ATOM      1  N   UNL     1      -3.889  -4.608  31.685  0.00  0.00    +0.000 N 
ATOM      2  C   UNL     1      -4.601  -4.436  32.805  0.00  0.00    +0.000 A 
ATOM      3  C   UNL     1      -5.359  -3.297  33.048  0.00  0.00    +0.000 A 
ATOM      4  O   UNL     1      -5.995  -3.239  34.139  0.00  0.00    +0.000 OA
ATOM      5  N   UNL     1      -5.394  -2.316  32.139  0.00  0.00    +0.000 N 
ATOM      6  N   UNL     1      -4.700  -2.467  31.032  0.00  0.00    +0.000 NA
ATOM      7  C   UNL     1      -3.961  -3.581  30.796  0.00  0.00    +0.000 A 
ATOM      8  C   UNL     1      -4.415  -5.565  33.603  0.00  0.00    +0.000 A 
ATOM      9  C   UNL     1      -3.566  -6.371  32.878  0.00  0.00    +0.000 A 
ATOM     10  C   UNL     1      -3.219  -5.810  31.687  0.00  0.00    +0.000 A 
ATOM     11  C   UNL     1      -2.382  -6.497  30.881  0.00  0.00    +0.000 A 
ATOM     12  C   UNL     1      -1.921  -7.700  31.268  0.00  0.00    +0.000 A 
ATOM     13  S   UNL     1      -2.684  -7.932  32.871  0.00  0.00    +0.000 S 
ATOM     14  C   UNL     1      -1.021  -8.674  30.635  0.00  0.00    +0.000 C 
ENDROOT
BRANCH   7  15
ATOM     15  C   UNL     1      -3.273  -3.627  29.494  0.00  0.00    +0.000 C 
ATOM     16  C   UNL     1      -2.006  -2.797  29.466  0.00  0.00    +0.000 C 
ENDBRANCH   7  15
BRANCH   5  17
ATOM     17  C   UNL     1      -6.179  -1.133  32.386  0.00  0.00    +0.000 C 
BRANCH  17  18
ATOM     18  C   UNL     1      -7.566  -1.271  31.864  0.00  0.00    +0.000 C 
ATOM     19  O   UNL     1      -8.061  -0.318  31.227  0.00  0.00    +0.000 OA
ATOM     20  N   UNL     1      -8.338  -2.448  32.068  0.00  0.00    +0.000 N 
ATOM     21  H   UNL     1      -7.895  -3.207  32.593  0.00  0.00    +0.000 HD
BRANCH  20  22
ATOM     22  C   UNL     1      -9.687  -2.587  31.562  0.00  0.00    +0.000 C 
BRANCH  22  23
ATOM     23  C   UNL     1     -10.642  -1.864  32.483  0.00  0.00    +0.000 C 
BRANCH  23  24
ATOM     24  C   UNL     1     -11.154  -2.712  33.583  0.00  0.00    +0.000 A 
ATOM     25  N   UNL     1     -11.011  -4.051  33.648  0.00  0.00    +0.000 NA
ATOM     26  C   UNL     1     -11.577  -4.510  34.767  0.00  0.00    +0.000 A 
ATOM     27  N   UNL     1     -12.089  -3.462  35.430  0.00  0.00    +0.000 N 
ATOM     28  C   UNL     1     -11.839  -2.343  34.717  0.00  0.00    +0.000 A 
ATOM     29  H   UNL     1     -12.604  -3.512  36.357  0.00  0.00    +0.000 HD
ENDBRANCH  23  24
ENDBRANCH  22  23
ENDBRANCH  20  22
ENDBRANCH  17  18
ENDBRANCH   5  17
TORSDOF 6
ENDMDL
