MODEL 1
REMARK VINA RESULT:    -7.693      0.000      0.000
REMARK INTER + INTRA:         -12.922
REMARK INTER:                 -12.190
REMARK INTRA:                  -0.732
REMARK UNBOUND:                -0.732
REMARK  Name = 
REMARK  13 active torsions:
REMARK  status: ('A' for Active; 'I' for Inactive)
REMARK    1  A    between atoms: C_1  and  C_2
REMARK    2  A    between atoms: C_1  and  C_11
REMARK    3  A    between atoms: C_2  and  O_4
REMARK    4  A    between atoms: N_6  and  C_10
REMARK    5  A    between atoms: C_11  and  C_12
REMARK    6  A    between atoms: C_17  and  C_18
REMARK    7  A    between atoms: C_18  and  N_19
REMARK    8  A    between atoms: N_19  and  C_20
REMARK    9  A    between atoms: N_19  and  C_26
REMARK   10  A    between atoms: C_26  and  C_27
REMARK   11  A    between atoms: N_34  and  C_35
REMARK   12  A    between atoms: C_35  and  C_36
REMARK   13  A    between atoms: C_36  and  O_38
REMARK                            x       y       z     vdW  Elec       q    Type
REMARK                         _______ _______ _______ _____ _____    ______ ____
ROOT
ATOM      1  C   UNL     1      -0.639  -6.895  30.428  0.00  0.00    +0.000 C 
ATOM      2  C   UNL     1      -0.371  -6.890  28.895  0.00  0.00    +0.000 C 
ATOM      3  C   UNL     1      -0.481  -8.325  28.451  0.00  0.00    +0.000 C 
ATOM      4  O   UNL     1      -1.267  -8.891  29.462  0.00  0.00    +0.000 OA
ATOM      5  C   UNL     1      -0.615  -8.420  30.624  0.00  0.00    +0.000 C 
ATOM      6  C   UNL     1      -1.164  -8.337  27.129  0.00  0.00    +0.000 C 
ATOM      7  C   UNL     1      -0.684  -9.280  26.101  0.00  0.00    +0.000 C 
ATOM      8  N   UNL     1       0.442 -10.086  26.472  0.00  0.00    +0.000 NA
ATOM      9  C   UNL     1       1.413  -9.125  27.032  0.00  0.00    +0.000 C 
ATOM     10  C   UNL     1       0.916  -8.902  28.450  0.00  0.00    +0.000 C 
ENDROOT
BRANCH   1  16
ATOM     11  C   UNL     1       1.219  -5.165  30.740  0.00  0.00    +0.000 A 
ATOM     12  C   UNL     1       2.380  -4.768  31.443  0.00  0.00    +0.000 A 
ATOM     13  C   UNL     1       2.818  -5.494  32.499  0.00  0.00    +0.000 A 
ATOM     14  C   UNL     1       2.133  -6.624  32.891  0.00  0.00    +0.000 A 
ATOM     15  C   UNL     1       1.010  -7.018  32.213  0.00  0.00    +0.000 A 
ATOM     16  C   UNL     1       0.522  -6.287  31.100  0.00  0.00    +0.000 A 
BRANCH  11  17
ATOM     17  C   UNL     1       0.778  -4.265  29.683  0.00  0.00    +0.000 C 
BRANCH  17  18
ATOM     18  C   UNL     1       1.710  -3.800  28.632  0.00  0.00    +0.000 C 
ATOM     19  C   UNL     1       2.979  -4.552  28.374  0.00  0.00    +0.000 C 
ATOM     20  N   UNL     1       3.534  -3.980  27.166  0.00  0.00    +0.000 NA
ATOM     21  C   UNL     1       3.604  -2.599  27.039  0.00  0.00    +0.000 C 
ATOM     22  C   UNL     1       2.741  -1.808  27.955  0.00  0.00    +0.000 C 
ATOM     23  O   UNL     1       2.045  -2.464  28.905  0.00  0.00    +0.000 OA
ATOM     24  C   UNL     1       3.763  -4.804  26.074  0.00  0.00    +0.000 C 
BRANCH  18  25
ATOM     25  C   UNL     1       1.041  -3.835  27.249  0.00  0.00    +0.000 C 
ATOM     26  O   UNL     1       0.501  -2.807  26.774  0.00  0.00    +0.000 OA
BRANCH  25  27
ATOM     27  O   UNL     1       1.013  -4.988  26.492  0.00  0.00    +0.000 OA
ATOM     28  H   UNL     1       1.547  -5.805  26.765  0.00  0.00    +0.000 HD
ENDBRANCH  25  27
ENDBRANCH  18  25
ENDBRANCH  17  18
ENDBRANCH  11  17
ENDBRANCH   1  16
BRANCH   1  29
ATOM     29  N   UNL     1      -1.965  -6.493  30.590  0.00  0.00    +0.000 N 
BRANCH  29  30
ATOM     30  C   UNL     1      -2.829  -6.727  31.686  0.00  0.00    +0.000 A 
ATOM     31  C   UNL     1      -3.963  -7.478  31.696  0.00  0.00    +0.000 A 
ATOM     32  C   UNL     1      -4.774  -7.642  32.813  0.00  0.00    +0.000 A 
ATOM     33  C   UNL     1      -4.465  -7.041  33.986  0.00  0.00    +0.000 A 
ATOM     34  C   UNL     1      -3.325  -6.269  34.021  0.00  0.00    +0.000 A 
ATOM     35  C   UNL     1      -2.529  -6.110  32.920  0.00  0.00    +0.000 A 
ENDBRANCH  29  30
BRANCH  29  36
ATOM     36  C   UNL     1      -2.507  -5.566  29.558  0.00  0.00    +0.000 C 
ATOM     37  C   UNL     1      -2.809  -4.260  30.222  0.00  0.00    +0.000 C 
ENDBRANCH  29  36
ENDBRANCH   1  29
BRANCH   8  38
ATOM     38  C   UNL     1       1.051 -10.685  25.328  0.00  0.00    +0.000 C 
BRANCH  38  39
ATOM     39  C   UNL     1       0.445 -12.000  25.065  0.00  0.00    +0.000 C 
ATOM     40  O   UNL     1       0.102 -12.316  23.911  0.00  0.00    +0.000 OA
BRANCH  39  41
ATOM     41  O   UNL     1       0.222 -12.947  26.063  0.00  0.00    +0.000 OA
ATOM     42  H   UNL     1       0.831 -13.082  26.844  0.00  0.00    +0.000 HD
ENDBRANCH  39  41
ENDBRANCH  38  39
ENDBRANCH   8  38
TORSDOF 11
ENDMDL
