MODEL 1
REMARK VINA RESULT:    -8.522      0.000      0.000
REMARK INTER + INTRA:         -12.274
REMARK INTER:                 -11.512
REMARK INTRA:                  -0.762
REMARK UNBOUND:                -0.762
REMARK  Name = 
REMARK  7 active torsions:
REMARK  status: ('A' for Active; 'I' for Inactive)
REMARK    1  A    between atoms: S_1  and  N_4
REMARK    2  A    between atoms: S_1  and  C_14
REMARK    3  A    between atoms: N_4  and  C_5
REMARK    4  A    between atoms: C_8  and  C_9
REMARK    5  A    between atoms: C_9  and  O_11
REMARK    6  A    between atoms: C_16  and  C_17
REMARK    7  A    between atoms: C_17  and  O_19
REMARK                            x       y       z     vdW  Elec       q    Type
REMARK                         _______ _______ _______ _____ _____    ______ ____
ROOT
ATOM      1  S   UNL     1      -1.638  -7.480  30.306  0.00  0.00    +0.000 S 
ATOM      2  O   UNL     1      -2.332  -8.597  29.543  0.00  0.00    +0.000 OA
ATOM      3  O   UNL     1      -1.391  -6.302  29.410  0.00  0.00    +0.000 OA
ENDROOT
BRANCH   1   4
ATOM      4  C   UNL     1      -2.714  -6.960  31.594  0.00  0.00    +0.000 A 
ATOM      5  C   UNL     1      -3.047  -5.632  31.758  0.00  0.00    +0.000 A 
ATOM      6  C   UNL     1      -3.898  -5.190  32.769  0.00  0.00    +0.000 A 
ATOM      7  C   UNL     1      -4.443  -6.101  33.657  0.00  0.00    +0.000 A 
ATOM      8  C   UNL     1      -4.121  -7.421  33.506  0.00  0.00    +0.000 A 
ATOM      9  C   UNL     1      -3.276  -7.844  32.499  0.00  0.00    +0.000 A 
BRANCH   6  10
ATOM     10  C   UNL     1      -4.225  -3.786  32.911  0.00  0.00    +0.000 C 
ATOM     11  O   UNL     1      -5.339  -3.469  33.386  0.00  0.00    +0.000 OA
BRANCH  10  12
ATOM     12  O   UNL     1      -3.352  -2.785  32.538  0.00  0.00    +0.000 OA
ATOM     13  H   UNL     1      -3.662  -1.844  32.282  0.00  0.00    +0.000 HD
ENDBRANCH  10  12
ENDBRANCH   6  10
ENDBRANCH   1   4
BRANCH   1  14
ATOM     14  N   UNL     1      -0.155  -8.053  30.902  0.00  0.00    +0.000 N 
ATOM     15  H   UNL     1       0.218  -9.014  30.689  0.00  0.00    +0.000 HD
BRANCH  14  16
ATOM     16  C   UNL     1       0.663  -7.236  31.733  0.00  0.00    +0.000 A 
ATOM     17  C   UNL     1       1.552  -6.325  31.147  0.00  0.00    +0.000 A 
ATOM     18  C   UNL     1       2.374  -5.507  31.882  0.00  0.00    +0.000 A 
ATOM     19  C   UNL     1       2.294  -5.616  33.257  0.00  0.00    +0.000 A 
ATOM     20  C   UNL     1       1.442  -6.491  33.882  0.00  0.00    +0.000 A 
ATOM     21  C   UNL     1       0.633  -7.294  33.108  0.00  0.00    +0.000 A 
BRANCH  19  22
ATOM     22  C   UNL     1       3.160  -4.755  34.041  0.00  0.00    +0.000 C 
ATOM     23  O   UNL     1       2.660  -3.863  34.781  0.00  0.00    +0.000 OA
BRANCH  22  24
ATOM     24  O   UNL     1       4.536  -4.852  34.030  0.00  0.00    +0.000 OA
ATOM     25  H   UNL     1       5.044  -4.735  33.140  0.00  0.00    +0.000 HD
ENDBRANCH  22  24
ENDBRANCH  19  22
ENDBRANCH  14  16
ENDBRANCH   1  14
TORSDOF 7
ENDMDL
