MODEL 1
REMARK VINA RESULT:    -6.330      0.000      0.000
REMARK INTER + INTRA:          -9.510
REMARK INTER:                  -8.736
REMARK INTRA:                  -0.774
REMARK UNBOUND:                -0.774
REMARK  Name = 
REMARK  11 active torsions:
REMARK  status: ('A' for Active; 'I' for Inactive)
REMARK    1  A    between atoms: C_1  and  C_21
REMARK    2  A    between atoms: C_2  and  C_20
REMARK    3  A    between atoms: C_4  and  N_19
REMARK    4  A    between atoms: C_5  and  C_17
REMARK    5  A    between atoms: C_6  and  C_7
REMARK    6  A    between atoms: C_9  and  O_15
REMARK    7  A    between atoms: C_10  and  O_13
REMARK    8  A    between atoms: O_13  and  C_14
REMARK    9  A    between atoms: O_15  and  C_16
REMARK   10  A    between atoms: C_21  and  O_23
REMARK   11  A    between atoms: O_23  and  C_24
REMARK                            x       y       z     vdW  Elec       q    Type
REMARK                         _______ _______ _______ _____ _____    ______ ____
ROOT
ATOM      1  C   UNL     1      -2.348  -6.858  31.641  0.00  0.00    +0.000 C 
ATOM      2  C   UNL     1      -3.566  -6.597  32.007  0.00  0.00    +0.000 C 
ATOM      3  O   UNL     1      -4.271  -5.575  31.431  0.00  0.00    +0.000 OA
ATOM      4  C   UNL     1      -3.833  -4.732  30.486  0.00  0.00    +0.000 C 
ATOM      5  C   UNL     1      -2.493  -4.881  30.052  0.00  0.00    +0.000 C 
ATOM      6  C   UNL     1      -1.692  -5.881  30.661  0.00  0.00    +0.000 C 
ATOM      7  C   UNL     1      -4.271  -7.431  33.088  0.00  0.00    +0.000 C 
ENDROOT
BRANCH   6   8
ATOM      8  C   UNL     1      -0.452  -6.360  30.060  0.00  0.00    +0.000 A 
ATOM      9  C   UNL     1      -0.553  -7.267  28.999  0.00  0.00    +0.000 A 
ATOM     10  C   UNL     1       0.486  -7.730  28.272  0.00  0.00    +0.000 A 
ATOM     11  C   UNL     1       1.808  -7.231  28.634  0.00  0.00    +0.000 A 
ATOM     12  C   UNL     1       1.922  -6.354  29.650  0.00  0.00    +0.000 A 
ATOM     13  C   UNL     1       0.822  -5.890  30.403  0.00  0.00    +0.000 A 
BRANCH  11  14
ATOM     14  O   UNL     1       2.736  -7.707  27.897  0.00  0.00    +0.000 OA
ATOM     15  C   UNL     1       3.696  -8.190  27.152  0.00  0.00    +0.000 C 
ENDBRANCH  11  14
BRANCH  10  16
ATOM     16  O   UNL     1       0.375  -8.624  27.232  0.00  0.00    +0.000 OA
ATOM     17  C   UNL     1       0.133 -10.000  27.631  0.00  0.00    +0.000 C 
ENDBRANCH  10  16
ENDBRANCH   6   8
BRANCH   4  18
ATOM     18  N   UNL     1      -4.550  -3.700  29.862  0.00  0.00    +0.000 N 
ATOM     19  H   UNL     1      -4.431  -2.706  30.231  0.00  0.00    +0.000 HD
ATOM     20  H   UNL     1      -5.190  -3.829  29.071  0.00  0.00    +0.000 HD
ENDBRANCH   4  18
BRANCH   5  21
ATOM     21  C   UNL     1      -2.065  -4.047  28.976  0.00  0.00    +0.000 C 
ATOM     22  N   UNL     1      -1.720  -3.348  28.098  0.00  0.00    +0.000 NA
ENDBRANCH   5  21
BRANCH   1  23
ATOM     23  C   UNL     1      -1.457  -7.868  32.124  0.00  0.00    +0.000 C 
ATOM     24  O   UNL     1      -1.036  -8.913  32.030  0.00  0.00    +0.000 OA
BRANCH  23  25
ATOM     25  O   UNL     1      -0.704  -7.197  33.329  0.00  0.00    +0.000 OA
ATOM     26  C   UNL     1       0.595  -7.775  33.471  0.00  0.00    +0.000 C 
ENDBRANCH  23  25
ENDBRANCH   1  23
TORSDOF 7
ENDMDL
