MODEL 1
REMARK VINA RESULT:    -8.738      0.000      0.000
REMARK INTER + INTRA:         -12.986
REMARK INTER:                 -11.547
REMARK INTRA:                  -1.438
REMARK UNBOUND:                -1.438
REMARK  Name = 
REMARK  7 active torsions:
REMARK  status: ('A' for Active; 'I' for Inactive)
REMARK    1  A    between atoms: C_5  and  C_8
REMARK    2  A    between atoms: C_10  and  C_15
REMARK    3  A    between atoms: C_13  and  C_14
REMARK    4  A    between atoms: C_15  and  N_16
REMARK    5  A    between atoms: N_16  and  C_17
REMARK    6  A    between atoms: N_16  and  C_24
REMARK    7  A    between atoms: C_19  and  N_20
REMARK                            x       y       z     vdW  Elec       q    Type
REMARK                         _______ _______ _______ _____ _____    ______ ____
ROOT
ATOM      1  N   UNL     1      -0.963  -7.600  30.344  0.00  0.00    +0.000 N 
ENDROOT
BRANCH   1   2
ATOM      2  C   UNL     1      -0.312  -7.935  29.108  0.00  0.00    +0.000 A 
ATOM      3  C   UNL     1      -0.415  -9.293  28.765  0.00  0.00    +0.000 A 
ATOM      4  C   UNL     1       0.136  -9.801  27.616  0.00  0.00    +0.000 A 
ATOM      5  C   UNL     1       0.806  -8.938  26.777  0.00  0.00    +0.000 A 
ATOM      6  C   UNL     1       0.911  -7.606  27.102  0.00  0.00    +0.000 A 
ATOM      7  C   UNL     1       0.346  -7.102  28.282  0.00  0.00    +0.000 A 
BRANCH   4   8
ATOM      8  N   UNL     1       0.026 -11.205  27.296  0.00  0.00    +0.000 N 
ATOM      9  H   UNL     1      -0.183 -11.556  26.342  0.00  0.00    +0.000 HD
ATOM     10  H   UNL     1       0.166 -11.917  28.048  0.00  0.00    +0.000 HD
ENDBRANCH   4   8
ENDBRANCH   1   2
BRANCH   1  11
ATOM     11  C   UNL     1      -0.106  -7.320  31.436  0.00  0.00    +0.000 A 
ATOM     12  C   UNL     1       0.812  -6.277  31.357  0.00  0.00    +0.000 A 
ATOM     13  C   UNL     1       1.675  -5.999  32.387  0.00  0.00    +0.000 A 
ATOM     14  C   UNL     1       1.640  -6.762  33.526  0.00  0.00    +0.000 A 
ATOM     15  C   UNL     1       0.741  -7.799  33.631  0.00  0.00    +0.000 A 
ATOM     16  C   UNL     1      -0.123  -8.070  32.588  0.00  0.00    +0.000 A 
ENDBRANCH   1  11
BRANCH   1  17
ATOM     17  C   UNL     1      -2.384  -7.594  30.410  0.00  0.00    +0.000 C 
BRANCH  17  25
ATOM     18  N   UNL     1      -3.590  -2.942  30.978  0.00  0.00    +0.000 NA
ATOM     19  C   UNL     1      -3.614  -4.227  31.437  0.00  0.00    +0.000 A 
ATOM     20  C   UNL     1      -3.001  -5.251  30.746  0.00  0.00    +0.000 A 
ATOM     21  C   UNL     1      -2.371  -4.884  29.568  0.00  0.00    +0.000 A 
ATOM     22  C   UNL     1      -2.350  -3.584  29.110  0.00  0.00    +0.000 A 
ATOM     23  C   UNL     1      -2.979  -2.583  29.837  0.00  0.00    +0.000 A 
ATOM     24 CL   UNL     1      -2.959  -0.926  29.259  0.00  0.00    +0.000 Cl
ATOM     25  C   UNL     1      -3.019  -6.558  31.216  0.00  0.00    +0.000 A 
ATOM     26  C   UNL     1      -3.672  -6.791  32.402  0.00  0.00    +0.000 A 
ATOM     27  C   UNL     1      -4.293  -5.759  33.105  0.00  0.00    +0.000 A 
ATOM     28  C   UNL     1      -4.270  -4.469  32.629  0.00  0.00    +0.000 A 
ATOM     29  C   UNL     1      -4.930  -3.379  33.374  0.00  0.00    +0.000 C 
BRANCH  22  30
ATOM     30  C   UNL     1      -1.682  -3.197  27.874  0.00  0.00    +0.000 C 
ATOM     31  O   UNL     1      -0.654  -3.852  27.476  0.00  0.00    +0.000 OA
ENDBRANCH  22  30
ENDBRANCH  17  25
ENDBRANCH   1  17
TORSDOF 6
ENDMDL
