MODEL 1
REMARK VINA RESULT:    -8.475      0.000      0.000
REMARK INTER + INTRA:         -13.868
REMARK INTER:                 -12.439
REMARK INTRA:                  -1.429
REMARK UNBOUND:                -1.429
REMARK  Name = 
REMARK  11 active torsions:
REMARK  status: ('A' for Active; 'I' for Inactive)
REMARK    1  A    between atoms: C_1  and  C_15
REMARK    2  A    between atoms: C_3  and  N_13
REMARK    3  A    between atoms: C_5  and  C_7
REMARK    4  A    between atoms: N_13  and  C_14
REMARK    5  A    between atoms: C_15  and  N_16
REMARK    6  A    between atoms: N_16  and  C_29
REMARK    7  A    between atoms: C_17  and  C_19
REMARK    8  A    between atoms: C_19  and  C_20
REMARK    9  A    between atoms: C_20  and  C_21
REMARK   10  A    between atoms: C_24  and  O_27
REMARK   11  A    between atoms: O_27  and  C_28
REMARK                            x       y       z     vdW  Elec       q    Type
REMARK                         _______ _______ _______ _____ _____    ______ ____
ROOT
ATOM      1  C   UNL     1      -3.233  -3.993  30.263  0.00  0.00    +0.000 A 
ATOM      2  N   UNL     1      -3.849  -2.929  30.766  0.00  0.00    +0.000 NA
ATOM      3  C   UNL     1      -4.576  -3.043  31.884  0.00  0.00    +0.000 A 
ATOM      4  C   UNL     1      -4.667  -4.278  32.493  0.00  0.00    +0.000 A 
ATOM      5  C   UNL     1      -4.033  -5.393  31.985  0.00  0.00    +0.000 A 
ATOM      6  N   UNL     1      -3.327  -5.185  30.861  0.00  0.00    +0.000 NA
ENDROOT
BRANCH   5   7
ATOM      7  C   UNL     1      -4.098  -6.734  32.614  0.00  0.00    +0.000 C 
ATOM      8  C   UNL     1      -2.798  -6.942  33.344  0.00  0.00    +0.000 C 
ATOM      9  N   UNL     1      -2.371  -8.318  33.369  0.00  0.00    +0.000 NA
ATOM     10  C   UNL     1      -2.144  -8.885  32.065  0.00  0.00    +0.000 C 
ATOM     11  C   UNL     1      -3.147  -8.472  31.046  0.00  0.00    +0.000 C 
ATOM     12  C   UNL     1      -4.363  -7.804  31.584  0.00  0.00    +0.000 C 
ATOM     13  H   UNL     1      -1.508  -8.354  33.957  0.00  0.00    +0.000 HD
ENDBRANCH   5   7
BRANCH   3  14
ATOM     14  N   UNL     1      -5.238  -1.919  32.424  0.00  0.00    +0.000 N 
ATOM     15  C   UNL     1      -6.600  -2.024  32.851  0.00  0.00    +0.000 C 
ATOM     16  H   UNL     1      -4.729  -1.025  32.507  0.00  0.00    +0.000 HD
ENDBRANCH   3  14
BRANCH   1  17
ATOM     17  C   UNL     1      -2.398  -3.903  29.021  0.00  0.00    +0.000 C 
BRANCH  17  18
ATOM     18  N   UNL     1      -1.021  -4.262  29.311  0.00  0.00    +0.000 N 
ATOM     19  C   UNL     1      -0.538  -5.580  28.984  0.00  0.00    +0.000 C 
ATOM     20  O   UNL     1      -1.340  -6.360  28.428  0.00  0.00    +0.000 OA
ATOM     21  C   UNL     1      -0.097  -3.347  29.919  0.00  0.00    +0.000 C 
BRANCH  19  22
ATOM     22  C   UNL     1       0.821  -5.992  29.285  0.00  0.00    +0.000 C 
BRANCH  22  23
ATOM     23  C   UNL     1       1.039  -6.981  30.362  0.00  0.00    +0.000 C 
BRANCH  23  24
ATOM     24  C   UNL     1       1.448  -6.453  31.674  0.00  0.00    +0.000 A 
ATOM     25  C   UNL     1       0.998  -6.992  32.864  0.00  0.00    +0.000 A 
ATOM     26  C   UNL     1       1.385  -6.442  34.080  0.00  0.00    +0.000 A 
ATOM     27  C   UNL     1       2.219  -5.353  34.187  0.00  0.00    +0.000 A 
ATOM     28  C   UNL     1       2.670  -4.813  32.974  0.00  0.00    +0.000 A 
ATOM     29  C   UNL     1       2.290  -5.353  31.767  0.00  0.00    +0.000 A 
BRANCH  27  30
ATOM     30  O   UNL     1       2.624  -4.777  35.375  0.00  0.00    +0.000 OA
ATOM     31  C   UNL     1       3.786  -3.989  35.416  0.00  0.00    +0.000 C 
ENDBRANCH  27  30
ENDBRANCH  23  24
ENDBRANCH  22  23
ENDBRANCH  19  22
ENDBRANCH  17  18
ENDBRANCH   1  17
TORSDOF 8
ENDMDL
