MODEL 1
REMARK VINA RESULT:    -7.993      0.000      0.000
REMARK INTER + INTRA:         -13.758
REMARK INTER:                 -12.431
REMARK INTRA:                  -1.327
REMARK UNBOUND:                -1.327
REMARK  Name = 
REMARK  11 active torsions:
REMARK  status: ('A' for Active; 'I' for Inactive)
REMARK    1  A    between atoms: C_1  and  N_13
REMARK    2  A    between atoms: C_1  and  C_22
REMARK    3  A    between atoms: C_2  and  C_3
REMARK    4  A    between atoms: C_6  and  O_7
REMARK    5  A    between atoms: O_7  and  C_8
REMARK    6  A    between atoms: C_8  and  C_10
REMARK    7  A    between atoms: C_14  and  C_16
REMARK    8  A    between atoms: N_24  and  C_25
REMARK    9  A    between atoms: C_25  and  C_26
REMARK   10  A    between atoms: C_26  and  C_27
REMARK   11  A    between atoms: C_27  and  O_29
REMARK                            x       y       z     vdW  Elec       q    Type
REMARK                         _______ _______ _______ _____ _____    ______ ____
ROOT
ATOM      1  C   UNL     1      -0.408  -3.027  29.884  0.00  0.00    +0.000 C 
ATOM      2  C   UNL     1      -0.242  -2.325  28.811  0.00  0.00    +0.000 C 
ENDROOT
BRANCH   2   3
ATOM      3  C   UNL     1       0.883  -2.260  27.903  0.00  0.00    +0.000 A 
ATOM      4  C   UNL     1       0.879  -2.963  26.684  0.00  0.00    +0.000 A 
ATOM      5  C   UNL     1       1.973  -2.905  25.841  0.00  0.00    +0.000 A 
ATOM      6  C   UNL     1       3.077  -2.158  26.187  0.00  0.00    +0.000 A 
ATOM      7  C   UNL     1       3.116  -1.456  27.372  0.00  0.00    +0.000 A 
ATOM      8  C   UNL     1       2.012  -1.532  28.193  0.00  0.00    +0.000 A 
BRANCH   6   9
ATOM      9  O   UNL     1       4.186  -2.099  25.328  0.00  0.00    +0.000 OA
BRANCH   9  10
ATOM     10  C   UNL     1       5.451  -2.391  25.786  0.00  0.00    +0.000 C 
ATOM     11  O   UNL     1       5.647  -3.500  26.343  0.00  0.00    +0.000 OA
ATOM     12  C   UNL     1       6.612  -1.475  25.666  0.00  0.00    +0.000 C 
ENDBRANCH   9  10
ENDBRANCH   6   9
ENDBRANCH   2   3
BRANCH   1  13
ATOM     13  N   UNL     1      -1.612  -2.950  30.690  0.00  0.00    +0.000 N 
ATOM     14  C   UNL     1      -2.799  -3.624  30.511  0.00  0.00    +0.000 C 
ATOM     15  O   UNL     1      -2.942  -4.430  29.558  0.00  0.00    +0.000 OA
ATOM     16  H   UNL     1      -1.532  -2.273  31.508  0.00  0.00    +0.000 HD
BRANCH  14  17
ATOM     17  C   UNL     1      -3.957  -3.441  31.419  0.00  0.00    +0.000 A 
ATOM     18  C   UNL     1      -4.072  -4.155  32.580  0.00  0.00    +0.000 A 
ATOM     19  C   UNL     1      -5.182  -3.929  33.387  0.00  0.00    +0.000 A 
ATOM     20  C   UNL     1      -6.171  -3.022  33.077  0.00  0.00    +0.000 A 
ATOM     21  C   UNL     1      -6.006  -2.328  31.898  0.00  0.00    +0.000 A 
ATOM     22  C   UNL     1      -4.914  -2.538  31.083  0.00  0.00    +0.000 A 
ENDBRANCH  14  17
ENDBRANCH   1  13
BRANCH   1  23
ATOM     23  C   UNL     1       0.524  -4.108  30.231  0.00  0.00    +0.000 C 
ATOM     24  O   UNL     1       0.366  -5.145  29.452  0.00  0.00    +0.000 OA
ATOM     25  N   UNL     1       1.491  -4.153  31.215  0.00  0.00    +0.000 N 
ATOM     26  H   UNL     1       1.710  -3.354  31.793  0.00  0.00    +0.000 HD
BRANCH  25  27
ATOM     27  C   UNL     1       2.295  -5.364  31.386  0.00  0.00    +0.000 C 
BRANCH  27  28
ATOM     28  C   UNL     1       2.381  -5.836  32.796  0.00  0.00    +0.000 C 
BRANCH  28  29
ATOM     29  C   UNL     1       3.210  -4.933  33.647  0.00  0.00    +0.000 C 
ATOM     30  O   UNL     1       2.642  -3.974  34.211  0.00  0.00    +0.000 OA
BRANCH  29  31
ATOM     31  O   UNL     1       4.556  -5.116  33.830  0.00  0.00    +0.000 OA
ATOM     32  H   UNL     1       4.923  -5.654  34.596  0.00  0.00    +0.000 HD
ENDBRANCH  29  31
ENDBRANCH  28  29
ENDBRANCH  27  28
ENDBRANCH  25  27
ENDBRANCH   1  23
TORSDOF 10
ENDMDL
