MODEL 1
REMARK VINA RESULT:    -8.226      0.000      0.000
REMARK INTER + INTRA:         -13.404
REMARK INTER:                 -12.313
REMARK INTRA:                  -1.090
REMARK UNBOUND:                -1.090
REMARK  Name = 
REMARK  9 active torsions:
REMARK  status: ('A' for Active; 'I' for Inactive)
REMARK    1  A    between atoms: C_2  and  C_12
REMARK    2  A    between atoms: C_12  and  C_13
REMARK    3  A    between atoms: C_13  and  C_14
REMARK    4  A    between atoms: C_14  and  O_16
REMARK    5  A    between atoms: O_16  and  N_17
REMARK    6  A    between atoms: C_23  and  C_25
REMARK    7  A    between atoms: N_27  and  C_28
REMARK    8  A    between atoms: C_28  and  C_29
REMARK    9  A    between atoms: C_29  and  O_30
REMARK                            x       y       z     vdW  Elec       q    Type
REMARK                         _______ _______ _______ _____ _____    ______ ____
ROOT
ATOM      1  O   UNL     1      -3.912  -5.113  31.045  0.00  0.00    +0.000 OA
ENDROOT
BRANCH   1   2
ATOM      2  N   UNL     1      -2.573  -5.225  30.791  0.00  0.00    +0.000 N 
ATOM      3  C   UNL     1      -1.835  -4.156  30.142  0.00  0.00    +0.000 A 
ATOM      4  N   UNL     1      -0.846  -3.521  30.255  0.00  0.00    +0.000 NA
ATOM      5  C   UNL     1      -0.401  -2.558  29.490  0.00  0.00    +0.000 A 
ATOM      6  C   UNL     1      -1.157  -2.240  28.433  0.00  0.00    +0.000 A 
ATOM      7  S   UNL     1      -2.562  -3.406  28.592  0.00  0.00    +0.000 S 
ATOM      8  C   UNL     1      -1.889  -6.384  31.163  0.00  0.00    +0.000 C 
ATOM      9  O   UNL     1      -2.558  -7.327  31.730  0.00  0.00    +0.000 OA
BRANCH   8  10
ATOM     10  C   UNL     1      -0.478  -6.663  30.982  0.00  0.00    +0.000 C 
ATOM     11  O   UNL     1      -0.020  -7.493  30.134  0.00  0.00    +0.000 OA
ATOM     12  N   UNL     1       0.508  -6.004  31.758  0.00  0.00    +0.000 N 
ATOM     13  H   UNL     1       0.193  -5.309  32.467  0.00  0.00    +0.000 HD
BRANCH  12  14
ATOM     14  C   UNL     1       1.935  -6.275  31.586  0.00  0.00    +0.000 C 
BRANCH  14  15
ATOM     15  C   UNL     1       2.589  -6.244  32.963  0.00  0.00    +0.000 C 
BRANCH  15  16
ATOM     16  O   UNL     1       3.824  -5.625  32.918  0.00  0.00    +0.000 OA
ATOM     17  H   UNL     1       3.833  -4.950  32.207  0.00  0.00    +0.000 HD
ENDBRANCH  15  16
ENDBRANCH  14  15
ENDBRANCH  12  14
ENDBRANCH   8  10
ENDBRANCH   1   2
BRANCH   1  18
ATOM     18  C   UNL     1      -4.294  -4.428  32.211  0.00  0.00    +0.000 C 
ATOM     19  O   UNL     1      -4.251  -4.992  33.330  0.00  0.00    +0.000 OA
BRANCH  18  20
ATOM     20  C   UNL     1      -4.757  -3.029  32.139  0.00  0.00    +0.000 C 
BRANCH  20  21
ATOM     21  C   UNL     1      -6.049  -2.919  32.929  0.00  0.00    +0.000 C 
BRANCH  21  23
ATOM     22  N   UNL     1      -6.241  -0.657  32.068  0.00  0.00    +0.000 NA
ATOM     23  C   UNL     1      -6.870  -1.788  32.440  0.00  0.00    +0.000 A 
ATOM     24  C   UNL     1      -8.242  -1.841  32.339  0.00  0.00    +0.000 A 
ATOM     25  O   UNL     1      -8.860  -2.900  32.685  0.00  0.00    +0.000 OA
ATOM     26  O   UNL     1      -8.907  -0.801  31.887  0.00  0.00    +0.000 OA
ATOM     27  C   UNL     1      -8.284   0.316  31.520  0.00  0.00    +0.000 A 
ATOM     28  C   UNL     1      -6.912   0.419  31.601  0.00  0.00    +0.000 A 
ATOM     29  C   UNL     1      -6.242   1.585  31.220  0.00  0.00    +0.000 A 
ATOM     30  C   UNL     1      -6.941   2.663  30.749  0.00  0.00    +0.000 A 
ATOM     31  C   UNL     1      -8.318   2.564  30.666  0.00  0.00    +0.000 A 
ATOM     32  C   UNL     1      -8.972   1.412  31.045  0.00  0.00    +0.000 A 
ENDBRANCH  21  23
ENDBRANCH  20  21
ENDBRANCH  18  20
ENDBRANCH   1  18
TORSDOF 9
ENDMDL
