MODEL 1
REMARK VINA RESULT:    -8.618      0.000      0.000
REMARK INTER + INTRA:         -15.757
REMARK INTER:                 -13.908
REMARK INTRA:                  -1.849
REMARK UNBOUND:                -1.849
REMARK  Name = 
REMARK  14 active torsions:
REMARK  status: ('A' for Active; 'I' for Inactive)
REMARK    1  A    between atoms: C_1  and  C_3
REMARK    2  A    between atoms: C_1  and  O_8
REMARK    3  A    between atoms: O_8  and  N_9
REMARK    4  A    between atoms: C_10  and  C_11
REMARK    5  A    between atoms: C_11  and  C_12
REMARK    6  A    between atoms: C_15  and  O_18
REMARK    7  A    between atoms: O_18  and  C_19
REMARK    8  A    between atoms: N_20  and  N_21
REMARK    9  A    between atoms: C_22  and  C_23
REMARK   10  A    between atoms: C_23  and  O_25
REMARK   11  A    between atoms: C_30  and  O_35
REMARK   12  A    between atoms: C_31  and  O_33
REMARK   13  A    between atoms: O_33  and  C_34
REMARK   14  A    between atoms: O_35  and  C_36
REMARK                            x       y       z     vdW  Elec       q    Type
REMARK                         _______ _______ _______ _____ _____    ______ ____
ROOT
ATOM      1  N   UNL     1      -2.424  -7.267  32.608  0.00  0.00    +0.000 NA
ATOM      2  C   UNL     1      -1.205  -7.109  32.274  0.00  0.00    +0.000 C 
ATOM      3  N   UNL     1      -0.874  -6.226  31.232  0.00  0.00    +0.000 N 
ATOM      4  H   UNL     1      -0.014  -5.649  31.286  0.00  0.00    +0.000 HD
ENDROOT
BRANCH   3   5
ATOM      5  N   UNL     1      -1.777  -6.175  30.126  0.00  0.00    +0.000 NA
ATOM      6  C   UNL     1      -1.321  -7.165  29.181  0.00  0.00    +0.000 C 
ATOM      7  C   UNL     1       0.187  -6.997  28.938  0.00  0.00    +0.000 C 
ATOM      8  C   UNL     1       0.332  -5.668  28.309  0.00  0.00    +0.000 A 
ATOM      9  C   UNL     1      -0.577  -4.682  28.579  0.00  0.00    +0.000 A 
ATOM     10  C   UNL     1      -0.389  -3.470  27.926  0.00  0.00    +0.000 A 
ATOM     11  C   UNL     1       0.666  -3.252  27.040  0.00  0.00    +0.000 A 
ATOM     12  C   UNL     1       1.592  -4.284  26.778  0.00  0.00    +0.000 A 
ATOM     13  C   UNL     1       1.375  -5.458  27.436  0.00  0.00    +0.000 A 
ATOM     14  C   UNL     1      -1.682  -4.868  29.528  0.00  0.00    +0.000 C 
BRANCH   6  15
ATOM     15  C   UNL     1      -1.648  -8.532  29.520  0.00  0.00    +0.000 C 
ATOM     16  O   UNL     1      -0.839  -9.480  29.561  0.00  0.00    +0.000 OA
BRANCH  15  17
ATOM     17  O   UNL     1      -2.969  -8.845  29.835  0.00  0.00    +0.000 OA
ATOM     18  H   UNL     1      -3.498  -8.386  30.580  0.00  0.00    +0.000 HD
ENDBRANCH  15  17
ENDBRANCH   6  15
BRANCH  12  19
ATOM     19  O   UNL     1       2.630  -4.048  25.901  0.00  0.00    +0.000 OA
ATOM     20  C   UNL     1       3.956  -3.872  26.231  0.00  0.00    +0.000 C 
ENDBRANCH  12  19
BRANCH  11  21
ATOM     21  O   UNL     1       0.834  -2.073  26.410  0.00  0.00    +0.000 OA
ATOM     22  C   UNL     1       0.986  -0.981  25.817  0.00  0.00    +0.000 C 
ENDBRANCH  11  21
ENDBRANCH   3   5
BRANCH   1  23
ATOM     23  O   UNL     1      -3.464  -6.587  31.973  0.00  0.00    +0.000 OA
BRANCH  23  24
ATOM     24  C   UNL     1      -4.202  -5.757  32.826  0.00  0.00    +0.000 C 
ATOM     25  O   UNL     1      -4.518  -6.163  33.965  0.00  0.00    +0.000 OA
BRANCH  24  26
ATOM     26  C   UNL     1      -4.615  -4.427  32.429  0.00  0.00    +0.000 A 
ATOM     27  S   UNL     1      -5.604  -3.288  33.310  0.00  0.00    +0.000 S 
ATOM     28  C   UNL     1      -5.570  -1.962  32.022  0.00  0.00    +0.000 A 
ATOM     29  C   UNL     1      -4.808  -2.542  31.066  0.00  0.00    +0.000 A 
ATOM     30  C   UNL     1      -4.298  -3.778  31.213  0.00  0.00    +0.000 A 
ENDBRANCH  24  26
ENDBRANCH  23  24
ENDBRANCH   1  23
BRANCH   2  31
ATOM     31  C   UNL     1      -0.121  -7.869  32.994  0.00  0.00    +0.000 C 
BRANCH  31  32
ATOM     32  C   UNL     1       1.003  -6.934  33.314  0.00  0.00    +0.000 A 
ATOM     33  C   UNL     1       1.043  -6.253  34.510  0.00  0.00    +0.000 A 
ATOM     34  C   UNL     1       2.050  -5.377  34.839  0.00  0.00    +0.000 A 
ATOM     35  C   UNL     1       3.090  -5.132  33.966  0.00  0.00    +0.000 A 
ATOM     36  C   UNL     1       3.076  -5.800  32.756  0.00  0.00    +0.000 A 
ATOM     37  C   UNL     1       2.042  -6.692  32.437  0.00  0.00    +0.000 A 
BRANCH  35  38
ATOM     38  O   UNL     1       4.102  -4.238  34.320  0.00  0.00    +0.000 OA
ATOM     39  C   UNL     1       3.841  -3.241  35.315  0.00  0.00    +0.000 C 
ENDBRANCH  35  38
ENDBRANCH  31  32
ENDBRANCH   2  31
TORSDOF 11
ENDMDL
