MODEL 1
REMARK VINA RESULT:    -9.955      0.000      0.000
REMARK INTER + INTRA:         -14.037
REMARK INTER:                 -13.155
REMARK INTRA:                  -0.881
REMARK UNBOUND:                -0.881
REMARK  Name = 
REMARK  6 active torsions:
REMARK  status: ('A' for Active; 'I' for Inactive)
REMARK    1  A    between atoms: C_4  and  O_5
REMARK    2  A    between atoms: O_5  and  C_6
REMARK    3  A    between atoms: C_18  and  N_19
REMARK    4  A    between atoms: C_24  and  C_25
REMARK    5  A    between atoms: C_28  and  C_29
REMARK    6  A    between atoms: C_29  and  O_31
REMARK                            x       y       z     vdW  Elec       q    Type
REMARK                         _______ _______ _______ _____ _____    ______ ____
ROOT
ATOM      1  N   UNL     1       1.312  -5.980  29.254  0.00  0.00    +0.000 N 
ATOM      2  C   UNL     1       0.775  -7.038  28.448  0.00  0.00    +0.000 A 
ATOM      3  C   UNL     1       1.619  -8.059  27.952  0.00  0.00    +0.000 A 
ATOM      4  C   UNL     1       3.050  -7.873  28.354  0.00  0.00    +0.000 C 
ATOM      5  C   UNL     1       3.355  -6.420  27.991  0.00  0.00    +0.000 C 
ATOM      6  C   UNL     1       2.566  -5.410  28.772  0.00  0.00    +0.000 C 
ATOM      7  C   UNL     1       2.962  -6.585  26.520  0.00  0.00    +0.000 C 
ATOM      8  C   UNL     1       3.809  -7.833  26.230  0.00  0.00    +0.000 C 
ATOM      9  C   UNL     1       3.853  -8.581  27.326  0.00  0.00    +0.000 C 
ATOM     10  C   UNL     1       1.124  -9.066  27.197  0.00  0.00    +0.000 A 
ATOM     11  C   UNL     1      -0.234  -9.084  26.913  0.00  0.00    +0.000 A 
ATOM     12  C   UNL     1      -1.098  -8.115  27.370  0.00  0.00    +0.000 A 
ATOM     13  C   UNL     1      -0.576  -7.098  28.136  0.00  0.00    +0.000 A 
ATOM     14 CL   UNL     1      -1.567  -5.790  28.769  0.00  0.00    +0.000 Cl
ATOM     15 CL   UNL     1       2.202 -10.303  26.611  0.00  0.00    +0.000 Cl
ENDROOT
BRANCH   1  25
ATOM     16  O   UNL     1      -0.141  -7.925  31.078  0.00  0.00    +0.000 OA
ATOM     17  C   UNL     1       0.239  -6.649  31.435  0.00  0.00    +0.000 C 
ATOM     18  C   UNL     1      -0.906  -6.068  32.288  0.00  0.00    +0.000 C 
ATOM     19  C   UNL     1      -1.674  -7.286  32.742  0.00  0.00    +0.000 C 
ATOM     20  C   UNL     1      -1.303  -8.280  31.672  0.00  0.00    +0.000 C 
ATOM     21  C   UNL     1       1.277  -7.000  32.476  0.00  0.00    +0.000 C 
ATOM     22  N   UNL     1       2.082  -5.955  32.979  0.00  0.00    +0.000 NA
ATOM     23  C   UNL     1       2.628  -5.384  31.726  0.00  0.00    +0.000 C 
ATOM     24  C   UNL     1       1.493  -4.664  31.134  0.00  0.00    +0.000 C 
ATOM     25  C   UNL     1       0.542  -5.642  30.415  0.00  0.00    +0.000 C 
ATOM     26  H   UNL     1       1.598  -5.226  33.530  0.00  0.00    +0.000 HD
BRANCH  19  27
ATOM     27  O   UNL     1      -3.034  -6.985  32.760  0.00  0.00    +0.000 OA
BRANCH  27  28
ATOM     28  C   UNL     1      -3.682  -5.867  32.316  0.00  0.00    +0.000 A 
ATOM     29  C   UNL     1      -4.305  -4.983  33.208  0.00  0.00    +0.000 A 
ATOM     30  C   UNL     1      -4.958  -3.860  32.787  0.00  0.00    +0.000 A 
ATOM     31 CL   UNL     1      -5.717  -2.790  33.928  0.00  0.00    +0.000 Cl
ATOM     32  C   UNL     1      -5.030  -3.551  31.445  0.00  0.00    +0.000 A 
ATOM     33  C   UNL     1      -4.433  -4.394  30.551  0.00  0.00    +0.000 A 
ATOM     34  C   UNL     1      -3.771  -5.534  30.991  0.00  0.00    +0.000 A 
ENDBRANCH  27  28
ENDBRANCH  19  27
ENDBRANCH   1  25
BRANCH   6  35
ATOM     35  C   UNL     1       2.450  -4.217  27.914  0.00  0.00    +0.000 A 
ATOM     36  C   UNL     1       3.586  -3.455  27.743  0.00  0.00    +0.000 A 
ATOM     37  C   UNL     1       3.597  -2.325  26.954  0.00  0.00    +0.000 A 
ATOM     38  C   UNL     1       2.417  -1.951  26.315  0.00  0.00    +0.000 A 
ATOM     39  C   UNL     1       1.283  -2.716  26.489  0.00  0.00    +0.000 A 
ATOM     40  C   UNL     1       1.298  -3.843  27.284  0.00  0.00    +0.000 A 
BRANCH  38  41
ATOM     41  C   UNL     1       2.393  -0.762  25.473  0.00  0.00    +0.000 C 
ATOM     42  O   UNL     1       2.742  -0.771  24.273  0.00  0.00    +0.000 OA
BRANCH  41  43
ATOM     43  O   UNL     1       1.965   0.433  26.025  0.00  0.00    +0.000 OA
ATOM     44  H   UNL     1       2.247   1.337  25.669  0.00  0.00    +0.000 HD
ENDBRANCH  41  43
ENDBRANCH  38  41
ENDBRANCH   6  35
TORSDOF 6
ENDMDL
