MODEL 1
REMARK VINA RESULT:    -7.766      0.000      0.000
REMARK INTER + INTRA:         -11.280
REMARK INTER:                 -10.263
REMARK INTRA:                  -1.017
REMARK UNBOUND:                -1.017
REMARK  Name = 
REMARK  6 active torsions:
REMARK  status: ('A' for Active; 'I' for Inactive)
REMARK    1  A    between atoms: N_1  and  C_2
REMARK    2  A    between atoms: C_3  and  C_4
REMARK    3  A    between atoms: N_6  and  C_7
REMARK    4  A    between atoms: C_7  and  C_8
REMARK    5  A    between atoms: C_21  and  C_23
REMARK    6  A    between atoms: C_23  and  N_24
REMARK                            x       y       z     vdW  Elec       q    Type
REMARK                         _______ _______ _______ _____ _____    ______ ____
ROOT
ATOM      1  C   UNL     1      -0.582  -4.133  28.385  0.00  0.00    +0.000 A 
ATOM      2  C   UNL     1      -1.646  -3.288  28.552  0.00  0.00    +0.000 A 
ATOM      3  C   UNL     1      -1.805  -2.162  27.730  0.00  0.00    +0.000 A 
ATOM      4  C   UNL     1      -0.898  -1.880  26.739  0.00  0.00    +0.000 A 
ATOM      5  C   UNL     1       0.185  -2.721  26.555  0.00  0.00    +0.000 A 
ATOM      6  C   UNL     1       0.308  -3.813  27.377  0.00  0.00    +0.000 A 
ENDROOT
BRANCH   1   7
ATOM      7  N   UNL     1      -0.408  -5.315  29.163  0.00  0.00    +0.000 N 
ATOM      8  C   UNL     1       0.224  -5.502  30.328  0.00  0.00    +0.000 A 
ATOM      9  N   UNL     1       0.108  -6.808  30.736  0.00  0.00    +0.000 NA
ATOM     10  C   UNL     1      -0.612  -7.467  29.814  0.00  0.00    +0.000 A 
ATOM     11  C   UNL     1      -0.919  -6.527  28.852  0.00  0.00    +0.000 A 
BRANCH  10  12
ATOM     12  C   UNL     1      -1.012  -8.917  29.847  0.00  0.00    +0.000 C 
BRANCH  12  13
ATOM     13  N   UNL     1      -2.267  -8.989  29.096  0.00  0.00    +0.000 NA
ATOM     14  H   UNL     1      -2.151  -8.510  28.158  0.00  0.00    +0.000 HD
ATOM     15  H   UNL     1      -2.520  -9.996  28.991  0.00  0.00    +0.000 HD
ENDBRANCH  12  13
ENDBRANCH  10  12
ENDBRANCH   1   7
BRANCH   2  16
ATOM     16  C   UNL     1      -2.592  -3.546  29.625  0.00  0.00    +0.000 C 
ATOM     17  O   UNL     1      -2.366  -2.941  30.723  0.00  0.00    +0.000 OA
ATOM     18  N   UNL     1      -3.712  -4.416  29.510  0.00  0.00    +0.000 N 
ATOM     19  H   UNL     1      -3.862  -4.907  28.608  0.00  0.00    +0.000 HD
BRANCH  18  20
ATOM     20  C   UNL     1      -4.608  -4.614  30.599  0.00  0.00    +0.000 C 
BRANCH  20  21
ATOM     21  C   UNL     1      -4.260  -5.602  31.607  0.00  0.00    +0.000 A 
ATOM     22  C   UNL     1      -4.180  -5.213  32.959  0.00  0.00    +0.000 A 
ATOM     23 CL   UNL     1      -4.538  -3.526  33.327  0.00  0.00    +0.000 Cl
ATOM     24  C   UNL     1      -3.848  -6.139  33.920  0.00  0.00    +0.000 A 
ATOM     25  C   UNL     1      -3.591  -7.452  33.598  0.00  0.00    +0.000 A 
ATOM     26  C   UNL     1      -3.664  -7.864  32.282  0.00  0.00    +0.000 A 
ATOM     27  C   UNL     1      -4.004  -6.908  31.313  0.00  0.00    +0.000 A 
ENDBRANCH  20  21
ENDBRANCH  18  20
ENDBRANCH   2  16
TORSDOF 6
ENDMDL
