MODEL 1
REMARK VINA RESULT:    -8.223      0.000      0.000
REMARK INTER + INTRA:         -11.305
REMARK INTER:                 -10.627
REMARK INTRA:                  -0.678
REMARK UNBOUND:                -0.678
REMARK  Name = 
REMARK  5 active torsions:
REMARK  status: ('A' for Active; 'I' for Inactive)
REMARK    1  A    between atoms: C_2  and  C_7
REMARK    2  A    between atoms: C_7  and  C_8
REMARK    3  A    between atoms: C_8  and  O_10
REMARK    4  A    between atoms: O_10  and  N_11
REMARK    5  A    between atoms: C_12  and  C_13
REMARK                            x       y       z     vdW  Elec       q    Type
REMARK                         _______ _______ _______ _____ _____    ______ ____
ROOT
ATOM      1  O   UNL     1      -1.227  -6.125  30.801  0.00  0.00    +0.000 OA
ENDROOT
BRANCH   1   2
ATOM      2  N   UNL     1      -2.145  -6.352  31.760  0.00  0.00    +0.000 NA
ATOM      3  C   UNL     1      -3.490  -6.353  31.352  0.00  0.00    +0.000 C 
ATOM      4  C   UNL     1      -4.347  -7.434  31.890  0.00  0.00    +0.000 C 
ATOM      5  C   UNL     1      -3.954  -7.941  33.252  0.00  0.00    +0.000 C 
ATOM      6  C   UNL     1      -2.504  -8.416  33.089  0.00  0.00    +0.000 C 
ATOM      7  C   UNL     1      -1.697  -7.209  32.775  0.00  0.00    +0.000 C 
BRANCH   3   8
ATOM      8  C   UNL     1      -4.124  -5.050  31.731  0.00  0.00    +0.000 A 
ATOM      9  C   UNL     1      -4.406  -4.116  30.759  0.00  0.00    +0.000 A 
ATOM     10  N   UNL     1      -4.977  -2.917  31.031  0.00  0.00    +0.000 NA
ATOM     11  C   UNL     1      -5.304  -2.570  32.291  0.00  0.00    +0.000 A 
ATOM     12  C   UNL     1      -5.038  -3.479  33.294  0.00  0.00    +0.000 A 
ATOM     13  C   UNL     1      -4.450  -4.721  33.029  0.00  0.00    +0.000 A 
ENDBRANCH   3   8
ENDBRANCH   1   2
BRANCH   1  14
ATOM     14  C   UNL     1      -0.570  -7.103  30.054  0.00  0.00    +0.000 C 
ATOM     15  O   UNL     1      -1.322  -8.014  29.585  0.00  0.00    +0.000 OA
BRANCH  14  16
ATOM     16  C   UNL     1       0.897  -7.076  29.827  0.00  0.00    +0.000 C 
BRANCH  16  18
ATOM     17  S   UNL     1       1.977  -4.784  31.276  0.00  0.00    +0.000 S 
ATOM     18  C   UNL     1       1.499  -6.439  31.021  0.00  0.00    +0.000 A 
ATOM     19  N   UNL     1       1.821  -7.009  32.209  0.00  0.00    +0.000 NA
ATOM     20  N   UNL     1       2.333  -6.249  33.091  0.00  0.00    +0.000 NA
ATOM     21  C   UNL     1       2.579  -5.103  33.047  0.00  0.00    +0.000 A 
ATOM     22  N   UNL     1       3.119  -3.983  33.784  0.00  0.00    +0.000 N 
ATOM     23  H   UNL     1       4.010  -3.528  33.544  0.00  0.00    +0.000 HD
ATOM     24  H   UNL     1       2.535  -3.670  34.580  0.00  0.00    +0.000 HD
ENDBRANCH  16  18
ENDBRANCH  14  16
ENDBRANCH   1  14
TORSDOF 5
ENDMDL
