MODEL 1
REMARK VINA RESULT:   -10.087      0.000      0.000
REMARK INTER + INTRA:         -15.065
REMARK INTER:                 -14.215
REMARK INTRA:                  -0.850
REMARK UNBOUND:                -0.850
REMARK  Name = 
REMARK  10 active torsions:
REMARK  status: ('A' for Active; 'I' for Inactive)
REMARK    1  A    between atoms: C_1  and  C_21
REMARK    2  A    between atoms: C_5  and  N_6
REMARK    3  A    between atoms: C_9  and  C_11
REMARK    4  A    between atoms: C_11  and  C_20
REMARK    5  A    between atoms: C_14  and  C_16
REMARK    6  A    between atoms: N_23  and  C_24
REMARK    7  A    between atoms: C_24  and  N_25
REMARK    8  A    between atoms: C_26  and  C_27
REMARK    9  A    between atoms: C_27  and  O_29
REMARK   10  A    between atoms: C_32  and  C_33
REMARK                            x       y       z     vdW  Elec       q    Type
REMARK                         _______ _______ _______ _____ _____    ______ ____
ROOT
ATOM      1  C   UNL     1      -5.749  -2.216  32.505  0.00  0.00    +0.000 A 
ATOM      2  S   UNL     1      -4.451  -2.815  30.948  0.00  0.00    +0.000 S 
ATOM      3  C   UNL     1      -4.048  -4.359  31.671  0.00  0.00    +0.000 A 
ATOM      4  C   UNL     1      -4.760  -4.348  32.807  0.00  0.00    +0.000 A 
ATOM      5  C   UNL     1      -5.486  -3.252  33.002  0.00  0.00    +0.000 A 
ATOM      6  C   UNL     1      -4.587  -5.531  33.579  0.00  0.00    +0.000 A 
ATOM      7  C   UNL     1      -3.765  -6.519  33.137  0.00  0.00    +0.000 A 
ATOM      8  C   UNL     1      -3.054  -6.481  31.962  0.00  0.00    +0.000 A 
ATOM      9  N   UNL     1      -3.225  -5.358  31.236  0.00  0.00    +0.000 NA
ENDROOT
BRANCH   8  10
ATOM     10  C   UNL     1      -2.150  -7.524  31.479  0.00  0.00    +0.000 C 
ATOM     11  C   UNL     1      -1.228  -7.089  30.388  0.00  0.00    +0.000 C 
ATOM     12  N   UNL     1      -0.061  -6.368  30.926  0.00  0.00    +0.000 N 
ATOM     13  C   UNL     1       0.393  -5.206  30.244  0.00  0.00    +0.000 C 
ATOM     14  O   UNL     1      -0.266  -4.839  29.210  0.00  0.00    +0.000 OA
ATOM     15  C   UNL     1       1.540  -4.362  30.580  0.00  0.00    +0.000 C 
ATOM     16  C   UNL     1       0.609  -6.844  32.110  0.00  0.00    +0.000 C 
ATOM     17  C   UNL     1      -0.259  -7.459  33.154  0.00  0.00    +0.000 C 
ATOM     18  C   UNL     1      -1.444  -8.179  32.624  0.00  0.00    +0.000 C 
ATOM     19  C   UNL     1      -3.007  -8.651  30.847  0.00  0.00    +0.000 C 
ENDBRANCH   8  10
BRANCH   1  20
ATOM     20  C   UNL     1      -6.073  -0.905  31.858  0.00  0.00    +0.000 C 
ATOM     21  O   UNL     1      -5.386   0.035  31.666  0.00  0.00    +0.000 OA
ATOM     22  N   UNL     1      -7.471  -0.848  31.430  0.00  0.00    +0.000 N 
ATOM     23  H   UNL     1      -8.031  -1.703  31.607  0.00  0.00    +0.000 HD
BRANCH  22  24
ATOM     24  C   UNL     1      -7.992   0.338  30.808  0.00  0.00    +0.000 C 
BRANCH  24  25
ATOM     25  N   UNL     1      -9.324   0.152  30.364  0.00  0.00    +0.000 NA
ATOM     26  C   UNL     1      -9.764   0.983  29.332  0.00  0.00    +0.000 C 
ATOM     27  C   UNL     1      -9.637   0.313  27.984  0.00  0.00    +0.000 C 
ATOM     28  S   UNL     1     -10.071  -1.384  28.471  0.00  0.00    +0.000 S 
ATOM     29  C   UNL     1      -9.715  -1.208  30.242  0.00  0.00    +0.000 C 
BRANCH  29  30
ATOM     30  C   UNL     1     -10.841  -1.649  31.072  0.00  0.00    +0.000 A 
ATOM     31  O   UNL     1     -12.075  -1.735  30.668  0.00  0.00    +0.000 OA
ATOM     32  C   UNL     1     -12.833  -2.153  31.641  0.00  0.00    +0.000 A 
ATOM     33  C   UNL     1     -12.066  -2.364  32.772  0.00  0.00    +0.000 A 
ATOM     34  C   UNL     1     -10.763  -2.031  32.389  0.00  0.00    +0.000 A 
ENDBRANCH  29  30
BRANCH  26  35
ATOM     35  C   UNL     1     -11.177   1.444  29.486  0.00  0.00    +0.000 C 
ATOM     36  O   UNL     1     -12.049   0.955  28.758  0.00  0.00    +0.000 OA
BRANCH  35  37
ATOM     37  O   UNL     1     -11.494   2.394  30.426  0.00  0.00    +0.000 OA
ATOM     38  H   UNL     1     -10.781   3.069  30.743  0.00  0.00    +0.000 HD
ENDBRANCH  35  37
ENDBRANCH  26  35
ENDBRANCH  24  25
ENDBRANCH  22  24
ENDBRANCH   1  20
BRANCH   5  39
ATOM     39  N   UNL     1      -6.344  -3.332  34.366  0.00  0.00    +0.000 N 
ATOM     40  H   UNL     1      -6.615  -2.403  34.617  0.00  0.00    +0.000 HD
ATOM     41  H   UNL     1      -6.449  -4.258  34.709  0.00  0.00    +0.000 HD
ENDBRANCH   5  39
TORSDOF 8
ENDMDL
