MODEL 1
REMARK VINA RESULT:    -7.387      0.000      0.000
REMARK INTER + INTRA:         -11.557
REMARK INTER:                 -10.626
REMARK INTRA:                  -0.932
REMARK UNBOUND:                -0.932
REMARK  Name = 
REMARK  10 active torsions:
REMARK  status: ('A' for Active; 'I' for Inactive)
REMARK    1  A    between atoms: C_1  and  N_18
REMARK    2  A    between atoms: C_2  and  C_14
REMARK    3  A    between atoms: C_3  and  C_13
REMARK    4  A    between atoms: C_4  and  C_6
REMARK    5  A    between atoms: C_6  and  C_7
REMARK    6  A    between atoms: C_14  and  O_16
REMARK    7  A    between atoms: O_16  and  C_17
REMARK    8  A    between atoms: C_19  and  C_21
REMARK    9  A    between atoms: C_22  and  C_23
REMARK   10  A    between atoms: C_23  and  O_25
REMARK                            x       y       z     vdW  Elec       q    Type
REMARK                         _______ _______ _______ _____ _____    ______ ____
ROOT
ATOM      1  C   UNL     1      -3.315  -4.201  30.271  0.00  0.00    +0.000 A 
ATOM      2  C   UNL     1      -3.347  -5.113  31.294  0.00  0.00    +0.000 A 
ATOM      3  C   UNL     1      -4.116  -4.857  32.372  0.00  0.00    +0.000 A 
ATOM      4  C   UNL     1      -4.834  -3.676  32.382  0.00  0.00    +0.000 A 
ATOM      5  S   UNL     1      -4.454  -2.896  30.890  0.00  0.00    +0.000 S 
ATOM      6  C   UNL     1      -4.204  -5.792  33.588  0.00  0.00    +0.000 C 
ENDROOT
BRANCH   1   7
ATOM      7  N   UNL     1      -2.660  -4.127  29.041  0.00  0.00    +0.000 N 
ATOM      8  C   UNL     1      -1.462  -3.339  28.950  0.00  0.00    +0.000 C 
ATOM      9  O   UNL     1      -1.019  -2.735  29.950  0.00  0.00    +0.000 OA
ATOM     10  H   UNL     1      -2.976  -4.602  28.194  0.00  0.00    +0.000 HD
BRANCH   8  11
ATOM     11  C   UNL     1      -0.757  -3.247  27.669  0.00  0.00    +0.000 C 
ATOM     12  C   UNL     1      -0.412  -2.083  27.195  0.00  0.00    +0.000 C 
BRANCH  12  13
ATOM     13  C   UNL     1       0.287  -1.906  25.935  0.00  0.00    +0.000 C 
ATOM     14  O   UNL     1       1.538  -2.044  25.899  0.00  0.00    +0.000 OA
BRANCH  13  15
ATOM     15  O   UNL     1      -0.392  -1.589  24.773  0.00  0.00    +0.000 OA
ATOM     16  H   UNL     1      -0.713  -2.342  24.173  0.00  0.00    +0.000 HD
ENDBRANCH  13  15
ENDBRANCH  12  13
ENDBRANCH   8  11
ENDBRANCH   1   7
BRANCH   2  17
ATOM     17  C   UNL     1      -2.523  -6.364  31.138  0.00  0.00    +0.000 C 
ATOM     18  O   UNL     1      -1.275  -6.333  31.101  0.00  0.00    +0.000 OA
BRANCH  17  19
ATOM     19  O   UNL     1      -3.096  -7.612  31.025  0.00  0.00    +0.000 OA
ATOM     20  C   UNL     1      -2.678  -8.737  31.743  0.00  0.00    +0.000 C 
ENDBRANCH  17  19
ENDBRANCH   2  17
BRANCH   4  21
ATOM     21  C   UNL     1      -5.769  -3.152  33.388  0.00  0.00    +0.000 C 
BRANCH  21  22
ATOM     22  C   UNL     1      -6.678  -2.125  32.867  0.00  0.00    +0.000 A 
ATOM     23  C   UNL     1      -6.462  -0.782  32.985  0.00  0.00    +0.000 A 
ATOM     24  C   UNL     1      -7.388   0.134  32.469  0.00  0.00    +0.000 A 
ATOM     25  C   UNL     1      -8.526  -0.305  31.835  0.00  0.00    +0.000 A 
ATOM     26  C   UNL     1      -8.741  -1.671  31.716  0.00  0.00    +0.000 A 
ATOM     27  C   UNL     1      -7.825  -2.544  32.228  0.00  0.00    +0.000 A 
ENDBRANCH  21  22
ENDBRANCH   4  21
TORSDOF 8
ENDMDL
