MODEL 1
REMARK VINA RESULT:    -7.332      0.000      0.000
REMARK INTER + INTRA:         -11.159
REMARK INTER:                  -9.904
REMARK INTRA:                  -1.254
REMARK UNBOUND:                -1.254
REMARK  Name = 
REMARK  7 active torsions:
REMARK  status: ('A' for Active; 'I' for Inactive)
REMARK    1  A    between atoms: C_1  and  C_2
REMARK    2  A    between atoms: C_1  and  C_12
REMARK    3  A    between atoms: N_4  and  C_5
REMARK    4  A    between atoms: C_5  and  C_6
REMARK    5  A    between atoms: C_6  and  C_7
REMARK    6  A    between atoms: C_12  and  C_13
REMARK    7  A    between atoms: C_16  and  C_17
REMARK                            x       y       z     vdW  Elec       q    Type
REMARK                         _______ _______ _______ _____ _____    ______ ____
ROOT
ATOM      1  C   UNL     1      -3.004  -6.327  31.600  0.00  0.00    +0.000 C 
ATOM      2  N   UNL     1      -3.019  -5.535  32.868  0.00  0.00    +0.000 NA
ATOM      3  C   UNL     1      -3.307  -6.523  33.878  0.00  0.00    +0.000 C 
ATOM      4  C   UNL     1      -4.431  -7.317  33.275  0.00  0.00    +0.000 C 
ATOM      5  C   UNL     1      -4.133  -7.313  31.802  0.00  0.00    +0.000 C 
ATOM      6  H   UNL     1      -2.041  -5.177  33.045  0.00  0.00    +0.000 HD
ENDROOT
BRANCH   1   7
ATOM      7  C   UNL     1      -1.687  -6.968  31.587  0.00  0.00    +0.000 C 
ATOM      8  O   UNL     1      -1.456  -8.117  31.069  0.00  0.00    +0.000 OA
ATOM      9  N   UNL     1      -0.574  -6.298  32.166  0.00  0.00    +0.000 N 
ATOM     10  H   UNL     1      -0.716  -5.342  32.615  0.00  0.00    +0.000 HD
BRANCH   9  11
ATOM     11  C   UNL     1       0.753  -6.828  32.173  0.00  0.00    +0.000 C 
BRANCH  11  12
ATOM     12  C   UNL     1       1.605  -6.411  31.020  0.00  0.00    +0.000 C 
ATOM     13  C   UNL     1       2.147  -5.016  31.108  0.00  0.00    +0.000 C 
ENDBRANCH  11  12
ENDBRANCH   9  11
ENDBRANCH   1   7
BRANCH   1  14
ATOM     14  C   UNL     1      -3.257  -5.362  30.506  0.00  0.00    +0.000 C 
BRANCH  14  15
ATOM     15  C   UNL     1      -2.133  -4.719  29.851  0.00  0.00    +0.000 A 
ATOM     16  C   UNL     1      -1.495  -5.344  28.797  0.00  0.00    +0.000 A 
ATOM     17  C   UNL     1      -0.419  -4.798  28.124  0.00  0.00    +0.000 A 
ATOM     18  C   UNL     1       0.068  -3.568  28.499  0.00  0.00    +0.000 A 
ATOM     19  C   UNL     1      -0.548  -2.921  29.548  0.00  0.00    +0.000 A 
ATOM     20  C   UNL     1      -1.623  -3.482  30.210  0.00  0.00    +0.000 A 
BRANCH  18  21
ATOM     21  C   UNL     1       1.203  -2.955  27.818  0.00  0.00    +0.000 A 
ATOM     22  C   UNL     1       1.559  -3.314  26.526  0.00  0.00    +0.000 A 
ATOM     23  N   UNL     1       2.601  -2.762  25.881  0.00  0.00    +0.000 NA
ATOM     24  C   UNL     1       3.368  -1.820  26.451  0.00  0.00    +0.000 A 
ATOM     25  C   UNL     1       3.048  -1.432  27.737  0.00  0.00    +0.000 A 
ATOM     26  C   UNL     1       1.984  -1.984  28.421  0.00  0.00    +0.000 A 
ENDBRANCH  18  21
ENDBRANCH  14  15
ENDBRANCH   1  14
TORSDOF 6
ENDMDL
