MODEL 1
REMARK VINA RESULT:    -7.554      0.000      0.000
REMARK INTER + INTRA:         -11.207
REMARK INTER:                  -9.983
REMARK INTRA:                  -1.225
REMARK UNBOUND:                -1.225
REMARK  Name = 
REMARK  8 active torsions:
REMARK  status: ('A' for Active; 'I' for Inactive)
REMARK    1  A    between atoms: N_1  and  C_16
REMARK    2  A    between atoms: C_5  and  C_6
REMARK    3  A    between atoms: C_6  and  C_7
REMARK    4  A    between atoms: C_7  and  C_8
REMARK    5  A    between atoms: C_8  and  C_9
REMARK    6  A    between atoms: C_11  and  N_15
REMARK    7  A    between atoms: C_12  and  C_14
REMARK    8  A    between atoms: C_16  and  C_17
REMARK                            x       y       z     vdW  Elec       q    Type
REMARK                         _______ _______ _______ _____ _____    ______ ____
ROOT
ATOM      1  N   UNL     1      -1.732  -5.509  29.702  0.00  0.00    +0.000 N 
ATOM      2  C   UNL     1      -1.209  -4.537  28.912  0.00  0.00    +0.000 A 
ATOM      3  C   UNL     1      -2.075  -3.474  29.018  0.00  0.00    +0.000 A 
ATOM      4  N   UNL     1      -3.063  -3.828  29.843  0.00  0.00    +0.000 NA
ATOM      5  C   UNL     1      -2.868  -5.106  30.285  0.00  0.00    +0.000 A 
ATOM      6  C   UNL     1      -1.778  -2.335  28.303  0.00  0.00    +0.000 A 
ATOM      7  C   UNL     1      -0.643  -2.266  27.505  0.00  0.00    +0.000 A 
ATOM      8  C   UNL     1       0.204  -3.350  27.422  0.00  0.00    +0.000 A 
ATOM      9  N   UNL     1      -0.102  -4.448  28.125  0.00  0.00    +0.000 NA
ATOM     10  C   UNL     1       1.422  -3.264  26.558  0.00  0.00    +0.000 C 
ENDROOT
BRANCH   7  11
ATOM     11  N   UNL     1      -0.352  -1.088  26.777  0.00  0.00    +0.000 N 
ATOM     12  H   UNL     1       0.196  -1.131  25.882  0.00  0.00    +0.000 HD
ATOM     13  H   UNL     1      -0.659  -0.159  27.086  0.00  0.00    +0.000 HD
ENDBRANCH   7  11
BRANCH   5  14
ATOM     14  C   UNL     1      -3.772  -5.841  31.209  0.00  0.00    +0.000 C 
BRANCH  14  15
ATOM     15  C   UNL     1      -3.784  -5.110  32.558  0.00  0.00    +0.000 C 
BRANCH  15  16
ATOM     16  C   UNL     1      -3.935  -6.132  33.668  0.00  0.00    +0.000 C 
ATOM     17  C   UNL     1      -4.399  -7.419  33.030  0.00  0.00    +0.000 C 
ENDBRANCH  15  16
ENDBRANCH  14  15
ENDBRANCH   5  14
BRANCH   1  18
ATOM     18  C   UNL     1      -1.066  -6.791  29.819  0.00  0.00    +0.000 C 
BRANCH  18  19
ATOM     19  C   UNL     1      -0.333  -6.964  31.099  0.00  0.00    +0.000 A 
ATOM     20  C   UNL     1       0.860  -6.322  31.388  0.00  0.00    +0.000 A 
ATOM     21  C   UNL     1       1.552  -6.477  32.567  0.00  0.00    +0.000 A 
ATOM     22 CL   UNL     1       3.048  -5.642  32.869  0.00  0.00    +0.000 Cl
ATOM     23  C   UNL     1       1.055  -7.312  33.540  0.00  0.00    +0.000 A 
ATOM     24  C   UNL     1      -0.125  -7.961  33.283  0.00  0.00    +0.000 A 
ATOM     25  C   UNL     1      -0.804  -7.798  32.103  0.00  0.00    +0.000 A 
ENDBRANCH  18  19
ENDBRANCH   1  18
TORSDOF 6
ENDMDL
