MODEL 1
REMARK VINA RESULT:    -8.216      0.000      0.000
REMARK INTER + INTRA:         -17.763
REMARK INTER:                 -13.980
REMARK INTRA:                  -3.783
REMARK UNBOUND:                -3.783
REMARK  Name = 
REMARK  13 active torsions:
REMARK  status: ('A' for Active; 'I' for Inactive)
REMARK    1  A    between atoms: C_1  and  C_13
REMARK    2  A    between atoms: C_9  and  C_12
REMARK    3  A    between atoms: C_13  and  N_14
REMARK    4  A    between atoms: N_14  and  C_15
REMARK    5  A    between atoms: C_15  and  C_16
REMARK    6  A    between atoms: C_16  and  C_17
REMARK    7  A    between atoms: C_17  and  O_18
REMARK    8  A    between atoms: O_18  and  N_19
REMARK    9  A    between atoms: N_19  and  C_20
REMARK   10  A    between atoms: N_19  and  C_33
REMARK   11  A    between atoms: C_20  and  C_21
REMARK   12  A    between atoms: C_20  and  C_27
REMARK   13  A    between atoms: C_33  and  C_34
REMARK                            x       y       z     vdW  Elec       q    Type
REMARK                         _______ _______ _______ _____ _____    ______ ____
ROOT
ATOM      1  O   UNL     1       1.666  -7.852  28.757  0.00  0.00    +0.000 OA
ENDROOT
BRANCH   1   2
ATOM      2  C   UNL     1       1.407  -8.586  27.687  0.00  0.00    +0.000 C 
BRANCH   2   3
ATOM      3  C   UNL     1      -0.059  -8.997  27.662  0.00  0.00    +0.000 C 
BRANCH   3   4
ATOM      4  C   UNL     1      -0.792  -9.253  28.883  0.00  0.00    +0.000 C 
BRANCH   4   5
ATOM      5  N   UNL     1      -2.031  -8.666  29.211  0.00  0.00    +0.000 NA
ATOM      6  H   UNL     1      -1.948  -7.605  29.303  0.00  0.00    +0.000 HD
BRANCH   5   7
ATOM      7  C   UNL     1      -2.680  -9.124  30.434  0.00  0.00    +0.000 C 
BRANCH   7   8
ATOM      8  C   UNL     1      -3.030  -8.037  31.362  0.00  0.00    +0.000 A 
ATOM      9  C   UNL     1      -3.083  -8.163  32.706  0.00  0.00    +0.000 A 
ATOM     10  O   UNL     1      -2.824  -9.257  33.307  0.00  0.00    +0.000 OA
ATOM     11  N   UNL     1      -3.411  -7.109  33.479  0.00  0.00    +0.000 N 
ATOM     12  C   UNL     1      -3.691  -5.912  32.888  0.00  0.00    +0.000 A 
ATOM     13  C   UNL     1      -3.655  -5.724  31.523  0.00  0.00    +0.000 A 
ATOM     14  C   UNL     1      -3.315  -6.822  30.766  0.00  0.00    +0.000 A 
ATOM     15  C   UNL     1      -3.945  -4.502  30.913  0.00  0.00    +0.000 A 
ATOM     16  C   UNL     1      -4.285  -3.385  31.687  0.00  0.00    +0.000 A 
ATOM     17  C   UNL     1      -4.311  -3.591  33.060  0.00  0.00    +0.000 A 
ATOM     18  C   UNL     1      -4.032  -4.789  33.665  0.00  0.00    +0.000 A 
ATOM     19  C   UNL     1      -4.583  -2.115  31.013  0.00  0.00    +0.000 C 
ATOM     20  H   UNL     1      -3.472  -7.116  34.522  0.00  0.00    +0.000 HD
ENDBRANCH   7   8
ENDBRANCH   5   7
ENDBRANCH   4   5
ENDBRANCH   3   4
ENDBRANCH   2   3
ENDBRANCH   1   2
BRANCH   1  21
ATOM     21  N   UNL     1       1.621  -6.572  28.890  0.00  0.00    +0.000 NA
BRANCH  21  22
ATOM     22  C   UNL     1       0.549  -6.146  29.799  0.00  0.00    +0.000 C 
BRANCH  22  23
ATOM     23  C   UNL     1      -0.094  -4.894  29.459  0.00  0.00    +0.000 A 
ATOM     24  C   UNL     1       0.308  -3.663  29.973  0.00  0.00    +0.000 A 
ATOM     25  C   UNL     1      -0.331  -2.509  29.612  0.00  0.00    +0.000 A 
ATOM     26  C   UNL     1      -1.413  -2.524  28.714  0.00  0.00    +0.000 A 
ATOM     27  C   UNL     1      -1.820  -3.728  28.198  0.00  0.00    +0.000 A 
ATOM     28  C   UNL     1      -1.162  -4.883  28.575  0.00  0.00    +0.000 A 
ENDBRANCH  22  23
BRANCH  22  29
ATOM     29  C   UNL     1       0.995  -6.232  31.203  0.00  0.00    +0.000 A 
ATOM     30  C   UNL     1       2.129  -5.636  31.687  0.00  0.00    +0.000 A 
ATOM     31  C   UNL     1       2.431  -5.770  33.020  0.00  0.00    +0.000 A 
ATOM     32  C   UNL     1       1.636  -6.487  33.906  0.00  0.00    +0.000 A 
ATOM     33  C   UNL     1       0.502  -7.073  33.374  0.00  0.00    +0.000 A 
ATOM     34  C   UNL     1       0.160  -6.969  32.062  0.00  0.00    +0.000 A 
ENDBRANCH  22  29
ENDBRANCH  21  22
BRANCH  21  35
ATOM     35  C   UNL     1       1.961  -5.641  27.916  0.00  0.00    +0.000 C 
BRANCH  35  36
ATOM     36  C   UNL     1       3.397  -5.309  27.850  0.00  0.00    +0.000 A 
ATOM     37  S   UNL     1       4.594  -6.380  27.019  0.00  0.00    +0.000 S 
ATOM     38  C   UNL     1       6.014  -5.347  27.377  0.00  0.00    +0.000 A 
ATOM     39  C   UNL     1       5.467  -4.290  28.087  0.00  0.00    +0.000 A 
ATOM     40  C   UNL     1       4.138  -4.322  28.300  0.00  0.00    +0.000 A 
ENDBRANCH  35  36
ENDBRANCH  21  35
ENDBRANCH   1  21
TORSDOF 12
ENDMDL
