MODEL 1
REMARK VINA RESULT:    -6.659      0.000      0.000
REMARK INTER + INTRA:         -10.775
REMARK INTER:                  -8.800
REMARK INTRA:                  -1.976
REMARK UNBOUND:                -1.976
REMARK  Name = 
REMARK  10 active torsions:
REMARK  status: ('A' for Active; 'I' for Inactive)
REMARK    1  A    between atoms: C_4  and  N_18
REMARK    2  A    between atoms: C_5  and  C_16
REMARK    3  A    between atoms: C_6  and  C_7
REMARK    4  A    between atoms: C_8  and  O_9
REMARK    5  A    between atoms: O_9  and  C_10
REMARK    6  A    between atoms: C_10  and  C_11
REMARK    7  A    between atoms: C_21  and  C_22
REMARK    8  A    between atoms: C_22  and  C_23
REMARK    9  A    between atoms: C_22  and  C_24
REMARK   10  A    between atoms: C_22  and  C_25
REMARK                            x       y       z     vdW  Elec       q    Type
REMARK                         _______ _______ _______ _____ _____    ______ ____
ROOT
ATOM      1  C   UNL     1      -2.320  -5.148  30.458  0.00  0.00    +0.000 A 
ATOM      2  C   UNL     1      -3.597  -5.436  30.874  0.00  0.00    +0.000 A 
ATOM      3  O   UNL     1      -3.911  -6.390  31.853  0.00  0.00    +0.000 OA
ATOM      4  C   UNL     1      -2.845  -7.075  32.419  0.00  0.00    +0.000 C 
ATOM      5  C   UNL     1      -1.610  -6.835  32.051  0.00  0.00    +0.000 C 
ATOM      6  C   UNL     1      -1.185  -5.846  31.022  0.00  0.00    +0.000 C 
ATOM      7  N   UNL     1      -4.413  -4.643  30.175  0.00  0.00    +0.000 NA
ATOM      8  N   UNL     1      -3.716  -3.887  29.358  0.00  0.00    +0.000 N 
ATOM      9  C   UNL     1      -2.398  -4.151  29.484  0.00  0.00    +0.000 A 
ATOM     10  H   UNL     1      -4.213  -3.199  28.728  0.00  0.00    +0.000 HD
ENDROOT
BRANCH   6  11
ATOM     11  C   UNL     1      -0.379  -6.650  30.062  0.00  0.00    +0.000 A 
ATOM     12  C   UNL     1       0.975  -6.434  29.998  0.00  0.00    +0.000 A 
ATOM     13  C   UNL     1       1.801  -7.144  29.140  0.00  0.00    +0.000 A 
ATOM     14  C   UNL     1       1.266  -8.106  28.315  0.00  0.00    +0.000 A 
ATOM     15  C   UNL     1      -0.103  -8.323  28.381  0.00  0.00    +0.000 A 
ATOM     16  C   UNL     1      -0.928  -7.606  29.244  0.00  0.00    +0.000 A 
BRANCH  12  17
ATOM     17  O   UNL     1       1.558  -5.475  30.811  0.00  0.00    +0.000 OA
BRANCH  17  18
ATOM     18  C   UNL     1       2.615  -5.790  31.706  0.00  0.00    +0.000 C 
ATOM     19  C   UNL     1       2.253  -5.091  33.024  0.00  0.00    +0.000 C 
ENDBRANCH  17  18
ENDBRANCH  12  17
ENDBRANCH   6  11
BRANCH   9  20
ATOM     20  C   UNL     1      -1.372  -3.459  28.717  0.00  0.00    +0.000 C 
ATOM     21  C   UNL     1      -2.037  -2.241  28.045  0.00  0.00    +0.000 C 
ATOM     22  C   UNL     1      -0.657  -4.186  27.661  0.00  0.00    +0.000 C 
ATOM     23  C   UNL     1      -0.312  -2.809  29.627  0.00  0.00    +0.000 C 
ENDBRANCH   9  20
BRANCH   4  24
ATOM     24  N   UNL     1      -3.133  -8.062  33.431  0.00  0.00    +0.000 N 
ATOM     25  H   UNL     1      -2.840  -9.049  33.382  0.00  0.00    +0.000 HD
ATOM     26  H   UNL     1      -3.673  -7.735  34.253  0.00  0.00    +0.000 HD
ENDBRANCH   4  24
BRANCH   5  27
ATOM     27  C   UNL     1      -0.590  -7.642  32.731  0.00  0.00    +0.000 C 
ATOM     28  N   UNL     1       0.231  -8.275  33.287  0.00  0.00    +0.000 NA
ENDBRANCH   5  27
TORSDOF 6
ENDMDL
