MODEL 1
REMARK VINA RESULT:    -7.222      0.000      0.000
REMARK INTER + INTRA:         -15.360
REMARK INTER:                 -12.922
REMARK INTRA:                  -2.439
REMARK UNBOUND:                -2.439
REMARK  Name = 
REMARK  17 active torsions:
REMARK  status: ('A' for Active; 'I' for Inactive)
REMARK    1  A    between atoms: S_1  and  N_4
REMARK    2  A    between atoms: S_1  and  C_17
REMARK    3  A    between atoms: N_4  and  C_5
REMARK    4  A    between atoms: N_4  and  C_13
REMARK    5  A    between atoms: C_6  and  C_12
REMARK    6  A    between atoms: C_13  and  C_14
REMARK    7  A    between atoms: C_14  and  O_16
REMARK    8  A    between atoms: C_22  and  N_23
REMARK    9  A    between atoms: N_23  and  C_24
REMARK   10  A    between atoms: N_23  and  C_33
REMARK   11  A    between atoms: C_24  and  C_25
REMARK   12  A    between atoms: C_28  and  O_31
REMARK   13  A    between atoms: O_31  and  C_32
REMARK   14  A    between atoms: C_33  and  C_34
REMARK   15  A    between atoms: C_37  and  O_40
REMARK   16  A    between atoms: O_40  and  C_41
REMARK   17  A    between atoms: C_41  and  C_42
REMARK                            x       y       z     vdW  Elec       q    Type
REMARK                         _______ _______ _______ _____ _____    ______ ____
ROOT
ATOM      1  C   UNL     1       0.619  -3.189  28.335  0.00  0.00    +0.000 A 
ATOM      2  C   UNL     1      -0.173  -2.068  28.503  0.00  0.00    +0.000 A 
ATOM      3  C   UNL     1      -1.499  -2.163  28.918  0.00  0.00    +0.000 A 
ATOM      4  C   UNL     1      -2.064  -3.380  29.175  0.00  0.00    +0.000 A 
ATOM      5  C   UNL     1      -1.304  -4.509  29.017  0.00  0.00    +0.000 A 
ATOM      6  C   UNL     1       0.006  -4.403  28.606  0.00  0.00    +0.000 A 
ENDROOT
BRANCH   1   7
ATOM      7  S   UNL     1       2.266  -2.970  27.904  0.00  0.00    +0.000 S 
ATOM      8  O   UNL     1       2.649  -1.563  28.395  0.00  0.00    +0.000 OA
ATOM      9  O   UNL     1       3.232  -3.922  28.466  0.00  0.00    +0.000 OA
BRANCH   7  10
ATOM     10  N   UNL     1       2.529  -2.965  26.176  0.00  0.00    +0.000 N 
BRANCH  10  11
ATOM     11  C   UNL     1       3.574  -3.683  25.585  0.00  0.00    +0.000 A 
ATOM     12  C   UNL     1       4.878  -3.330  25.651  0.00  0.00    +0.000 A 
ATOM     13  C   UNL     1       5.884  -4.121  25.069  0.00  0.00    +0.000 A 
ATOM     14  C   UNL     1       5.553  -5.273  24.421  0.00  0.00    +0.000 A 
ATOM     15  C   UNL     1       4.245  -5.645  24.344  0.00  0.00    +0.000 A 
ATOM     16  C   UNL     1       3.255  -4.856  24.922  0.00  0.00    +0.000 A 
ATOM     17 CL   UNL     1       6.845  -6.253  23.700  0.00  0.00    +0.000 Cl
ATOM     18  C   UNL     1       5.328  -2.104  26.295  0.00  0.00    +0.000 C 
ENDBRANCH  10  11
BRANCH  10  19
ATOM     19  C   UNL     1       1.677  -2.108  25.380  0.00  0.00    +0.000 C 
BRANCH  19  20
ATOM     20  C   UNL     1       2.226  -0.757  25.218  0.00  0.00    +0.000 C 
ATOM     21  O   UNL     1       2.992  -0.487  24.245  0.00  0.00    +0.000 OA
BRANCH  20  22
ATOM     22  O   UNL     1       1.934   0.243  26.102  0.00  0.00    +0.000 OA
ATOM     23  H   UNL     1       1.624   1.156  25.826  0.00  0.00    +0.000 HD
ENDBRANCH  20  22
ENDBRANCH  19  20
ENDBRANCH  10  19
ENDBRANCH   7  10
ENDBRANCH   1   7
BRANCH   6  24
ATOM     24  N   UNL     1       0.759  -5.590  28.415  0.00  0.00    +0.000 N 
BRANCH  24  25
ATOM     25  C   UNL     1       0.870  -6.131  27.090  0.00  0.00    +0.000 C 
BRANCH  25  26
ATOM     26  C   UNL     1       1.505  -7.485  27.043  0.00  0.00    +0.000 A 
ATOM     27  C   UNL     1       2.837  -7.698  27.242  0.00  0.00    +0.000 A 
ATOM     28  C   UNL     1       3.353  -8.985  27.202  0.00  0.00    +0.000 A 
ATOM     29  C   UNL     1       2.542 -10.077  26.965  0.00  0.00    +0.000 A 
ATOM     30  C   UNL     1       1.200  -9.866  26.764  0.00  0.00    +0.000 A 
ATOM     31  C   UNL     1       0.693  -8.581  26.805  0.00  0.00    +0.000 A 
BRANCH  29  32
ATOM     32  O   UNL     1       3.069 -11.381  26.928  0.00  0.00    +0.000 OA
ATOM     33  C   UNL     1       3.256 -12.086  25.743  0.00  0.00    +0.000 C 
ENDBRANCH  29  32
ENDBRANCH  25  26
ENDBRANCH  24  25
BRANCH  24  34
ATOM     34  C   UNL     1       1.351  -6.180  29.586  0.00  0.00    +0.000 C 
BRANCH  34  35
ATOM     35  C   UNL     1       0.344  -6.898  30.425  0.00  0.00    +0.000 A 
ATOM     36  C   UNL     1       0.247  -6.605  31.776  0.00  0.00    +0.000 A 
ATOM     37  C   UNL     1      -0.676  -7.229  32.614  0.00  0.00    +0.000 A 
ATOM     38  C   UNL     1      -1.535  -8.180  32.102  0.00  0.00    +0.000 A 
ATOM     39  C   UNL     1      -1.449  -8.479  30.770  0.00  0.00    +0.000 A 
ATOM     40  C   UNL     1      -0.523  -7.848  29.943  0.00  0.00    +0.000 A 
BRANCH  38  41
ATOM     41  O   UNL     1      -2.435  -8.777  32.970  0.00  0.00    +0.000 OA
BRANCH  41  42
ATOM     42  C   UNL     1      -3.431  -8.099  33.677  0.00  0.00    +0.000 C 
ATOM     43  C   UNL     1      -4.349  -7.427  32.677  0.00  0.00    +0.000 C 
ENDBRANCH  41  42
ENDBRANCH  38  41
ENDBRANCH  34  35
ENDBRANCH  24  34
ENDBRANCH   6  24
TORSDOF 14
ENDMDL
