MODEL 1
REMARK VINA RESULT:    -9.558      0.000      0.000
REMARK INTER + INTRA:         -16.463
REMARK INTER:                 -14.867
REMARK INTRA:                  -1.596
REMARK UNBOUND:                -1.596
REMARK  Name = 
REMARK  11 active torsions:
REMARK  status: ('A' for Active; 'I' for Inactive)
REMARK    1  A    between atoms: C_1  and  C_3
REMARK    2  A    between atoms: C_1  and  C_17
REMARK    3  A    between atoms: C_6  and  N_7
REMARK    4  A    between atoms: C_8  and  C_10
REMARK    5  A    between atoms: C_11  and  C_12
REMARK    6  A    between atoms: C_12  and  O_14
REMARK    7  A    between atoms: C_22  and  N_23
REMARK    8  A    between atoms: C_25  and  C_26
REMARK    9  A    between atoms: C_26  and  O_27
REMARK   10  A    between atoms: O_27  and  C_28
REMARK   11  A    between atoms: C_30  and  C_34
REMARK                            x       y       z     vdW  Elec       q    Type
REMARK                         _______ _______ _______ _____ _____    ______ ____
ROOT
ATOM      1  C   UNL     1      -1.588  -6.812  31.964  0.00  0.00    +0.000 A 
ATOM      2  C   UNL     1      -1.248  -7.499  33.137  0.00  0.00    +0.000 A 
ATOM      3  C   UNL     1       0.070  -7.692  33.488  0.00  0.00    +0.000 A 
ATOM      4  C   UNL     1       1.102  -7.217  32.702  0.00  0.00    +0.000 A 
ATOM      5  C   UNL     1       0.776  -6.541  31.548  0.00  0.00    +0.000 A 
ATOM      6  C   UNL     1      -0.560  -6.353  31.203  0.00  0.00    +0.000 A 
ENDROOT
BRANCH   6   7
ATOM      7  N   UNL     1      -0.809  -5.663  29.992  0.00  0.00    +0.000 N 
ATOM      8  C   UNL     1      -1.163  -6.345  28.761  0.00  0.00    +0.000 C 
ATOM      9  C   UNL     1      -0.315  -5.920  27.604  0.00  0.00    +0.000 C 
ATOM     10  C   UNL     1       0.449  -4.641  27.892  0.00  0.00    +0.000 C 
ATOM     11  C   UNL     1      -0.440  -3.653  28.635  0.00  0.00    +0.000 C 
ATOM     12  C   UNL     1      -0.678  -4.219  30.019  0.00  0.00    +0.000 C 
BRANCH   9  13
ATOM     13  C   UNL     1       0.672  -6.950  27.138  0.00  0.00    +0.000 C 
BRANCH  13  14
ATOM     14  O   UNL     1       0.750  -8.045  28.037  0.00  0.00    +0.000 OA
BRANCH  14  15
ATOM     15  C   UNL     1       1.046  -9.319  27.613  0.00  0.00    +0.000 A 
ATOM     16  C   UNL     1       2.341  -9.621  27.262  0.00  0.00    +0.000 A 
ATOM     17  C   UNL     1       2.696 -10.893  26.825  0.00  0.00    +0.000 A 
ATOM     18  C   UNL     1       1.754 -11.897  26.730  0.00  0.00    +0.000 A 
ATOM     19  C   UNL     1       0.458 -11.596  27.082  0.00  0.00    +0.000 A 
ATOM     20  C   UNL     1       0.111 -10.330  27.515  0.00  0.00    +0.000 A 
ATOM     21  C   UNL     1       4.121 -11.172  26.453  0.00  0.00    +0.000 C 
ENDBRANCH  14  15
ENDBRANCH  13  14
ENDBRANCH   9  13
ENDBRANCH   6   7
BRANCH   1  22
ATOM     22  C   UNL     1      -2.957  -6.578  31.578  0.00  0.00    +0.000 C 
ATOM     23  O   UNL     1      -3.561  -7.554  31.050  0.00  0.00    +0.000 OA
BRANCH  22  24
ATOM     24  C   UNL     1      -3.692  -5.339  31.739  0.00  0.00    +0.000 A 
ATOM     25  C   UNL     1      -4.146  -4.584  30.691  0.00  0.00    +0.000 A 
ATOM     26  C   UNL     1      -4.845  -3.421  30.912  0.00  0.00    +0.000 A 
ATOM     27  C   UNL     1      -5.138  -2.936  32.191  0.00  0.00    +0.000 A 
ATOM     28  C   UNL     1      -4.677  -3.705  33.229  0.00  0.00    +0.000 A 
ATOM     29  C   UNL     1      -3.968  -4.881  33.008  0.00  0.00    +0.000 A 
BRANCH  27  30
ATOM     30  N   UNL     1      -5.859  -1.727  32.306  0.00  0.00    +0.000 N 
ATOM     31  C   UNL     1      -5.524  -0.491  31.726  0.00  0.00    +0.000 C 
ATOM     32  O   UNL     1      -4.502  -0.370  31.030  0.00  0.00    +0.000 OA
ATOM     33  H   UNL     1      -6.755  -1.717  32.883  0.00  0.00    +0.000 HD
BRANCH  31  34
ATOM     34  C   UNL     1      -6.357   0.704  31.914  0.00  0.00    +0.000 C 
ATOM     35  C   UNL     1      -6.777   1.430  30.916  0.00  0.00    +0.000 C 
BRANCH  35  36
ATOM     36  C   UNL     1      -7.600   2.615  31.049  0.00  0.00    +0.000 C 
ATOM     37  O   UNL     1      -8.583   2.657  31.817  0.00  0.00    +0.000 OA
BRANCH  36  38
ATOM     38  O   UNL     1      -7.287   3.733  30.301  0.00  0.00    +0.000 OA
ATOM     39  H   UNL     1      -7.939   4.141  29.624  0.00  0.00    +0.000 HD
ENDBRANCH  36  38
ENDBRANCH  35  36
ENDBRANCH  31  34
ENDBRANCH  27  30
ENDBRANCH  22  24
ENDBRANCH   1  22
TORSDOF 10
ENDMDL
