MODEL 1
REMARK VINA RESULT:    -8.410      0.000      0.000
REMARK INTER + INTRA:         -11.638
REMARK INTER:                 -11.115
REMARK INTRA:                  -0.524
REMARK UNBOUND:                -0.524
REMARK  Name = 
REMARK  6 active torsions:
REMARK  status: ('A' for Active; 'I' for Inactive)
REMARK    1  A    between atoms: N_1  and  C_3
REMARK    2  A    between atoms: C_5  and  C_6
REMARK    3  A    between atoms: C_7  and  C_8
REMARK    4  A    between atoms: N_9  and  N_10
REMARK    5  A    between atoms: C_11  and  C_13
REMARK    6  A    between atoms: C_16  and  N_17
REMARK                            x       y       z     vdW  Elec       q    Type
REMARK                         _______ _______ _______ _____ _____    ______ ____
ROOT
ATOM      1  C   UNL     1      -5.560  -1.628  31.878  0.00  0.00    +0.000 C 
ATOM      2  N   UNL     1      -6.654  -1.086  32.110  0.00  0.00    +0.000 NA
ENDROOT
BRANCH   2   3
ATOM      3  N   UNL     1      -7.781  -1.653  32.596  0.00  0.00    +0.000 N 
ATOM      4  C   UNL     1      -8.991  -1.851  31.880  0.00  0.00    +0.000 C 
ATOM      5  O   UNL     1      -8.997  -1.452  30.678  0.00  0.00    +0.000 OA
ATOM      6  H   UNL     1      -7.768  -2.011  33.599  0.00  0.00    +0.000 HD
BRANCH   4   7
ATOM      7  C   UNL     1     -10.195  -2.462  32.412  0.00  0.00    +0.000 A 
ATOM      8  C   UNL     1     -11.443  -2.196  31.856  0.00  0.00    +0.000 A 
ATOM      9  C   UNL     1     -12.586  -2.777  32.362  0.00  0.00    +0.000 A 
ATOM     10  C   UNL     1     -12.543  -3.644  33.436  0.00  0.00    +0.000 A 
ATOM     11  C   UNL     1     -11.317  -3.914  33.994  0.00  0.00    +0.000 A 
ATOM     12  C   UNL     1     -10.162  -3.323  33.477  0.00  0.00    +0.000 A 
BRANCH  10  13
ATOM     13  N   UNL     1     -13.727  -4.248  33.963  0.00  0.00    +0.000 N 
ATOM     14  H   UNL     1     -14.489  -4.584  33.305  0.00  0.00    +0.000 HD
ATOM     15  H   UNL     1     -13.894  -4.383  34.982  0.00  0.00    +0.000 HD
ENDBRANCH  10  13
ENDBRANCH   4   7
ENDBRANCH   2   3
BRANCH   1  17
ATOM     16  C   UNL     1      -4.141  -3.658  32.048  0.00  0.00    +0.000 C 
ATOM     17  C   UNL     1      -5.258  -3.011  32.085  0.00  0.00    +0.000 C 
BRANCH  16  20
ATOM     18  C   UNL     1      -3.115  -7.224  31.527  0.00  0.00    +0.000 A 
ATOM     19  C   UNL     1      -3.299  -5.858  31.346  0.00  0.00    +0.000 A 
ATOM     20  C   UNL     1      -3.972  -5.106  32.285  0.00  0.00    +0.000 A 
ATOM     21  C   UNL     1      -4.450  -5.749  33.393  0.00  0.00    +0.000 A 
ATOM     22  C   UNL     1      -4.282  -7.119  33.602  0.00  0.00    +0.000 A 
ATOM     23  C   UNL     1      -3.615  -7.841  32.663  0.00  0.00    +0.000 A 
BRANCH  18  24
ATOM     24  N   UNL     1      -2.431  -8.021  30.586  0.00  0.00    +0.000 N 
ATOM     25  O   UNL     1      -2.942  -9.075  30.189  0.00  0.00    +0.000 OA
ATOM     26  O   UNL     1      -1.214  -7.638  30.114  0.00  0.00    +0.000 OA
ENDBRANCH  18  24
ENDBRANCH  16  20
ENDBRANCH   1  17
TORSDOF 6
ENDMDL
