MODEL 1
REMARK VINA RESULT:    -7.888      0.000      0.000
REMARK INTER + INTRA:          -9.851
REMARK INTER:                  -9.963
REMARK INTRA:                   0.112
REMARK UNBOUND:                 0.112
REMARK  Name = 
REMARK  5 active torsions:
REMARK  status: ('A' for Active; 'I' for Inactive)
REMARK    1  A    between atoms: C_1  and  C_16
REMARK    2  A    between atoms: C_2  and  C_10
REMARK    3  A    between atoms: N_18  and  C_19
REMARK    4  A    between atoms: C_19  and  C_20
REMARK    5  A    between atoms: C_20  and  O_21
REMARK                            x       y       z     vdW  Elec       q    Type
REMARK                         _______ _______ _______ _____ _____    ______ ____
ROOT
ATOM      1  C   UNL     1      -2.693  -4.290  30.212  0.00  0.00    +0.000 A 
ATOM      2  C   UNL     1      -3.290  -4.731  31.403  0.00  0.00    +0.000 A 
ATOM      3  C   UNL     1      -3.045  -6.034  31.743  0.00  0.00    +0.000 A 
ATOM      4  C   UNL     1      -2.276  -6.806  30.961  0.00  0.00    +0.000 A 
ATOM      5  S   UNL     1      -1.812  -5.769  29.646  0.00  0.00    +0.000 S 
ATOM      6  N   UNL     1      -1.959  -8.130  31.184  0.00  0.00    +0.000 NA
ATOM      7  C   UNL     1      -2.425  -8.772  32.259  0.00  0.00    +0.000 A 
ATOM      8  C   UNL     1      -3.220  -8.017  33.090  0.00  0.00    +0.000 A 
ATOM      9  C   UNL     1      -3.535  -6.712  32.875  0.00  0.00    +0.000 A 
ENDROOT
BRANCH   2  10
ATOM     10  C   UNL     1      -4.113  -3.735  32.154  0.00  0.00    +0.000 C 
ATOM     11  O   UNL     1      -5.020  -3.176  31.221  0.00  0.00    +0.000 OA
ATOM     12  C   UNL     1      -6.218  -2.810  31.763  0.00  0.00    +0.000 C 
ATOM     13  C   UNL     1      -6.146  -2.103  33.073  0.00  0.00    +0.000 C 
ATOM     14  N   UNL     1      -5.230  -2.750  33.949  0.00  0.00    +0.000 NA
ATOM     15  C   UNL     1      -4.866  -4.093  33.341  0.00  0.00    +0.000 C 
ATOM     16  H   UNL     1      -5.517  -2.875  34.918  0.00  0.00    +0.000 HD
ENDBRANCH   2  10
BRANCH   1  17
ATOM     17  C   UNL     1      -2.617  -3.102  29.431  0.00  0.00    +0.000 C 
ATOM     18  O   UNL     1      -2.621  -3.235  28.133  0.00  0.00    +0.000 OA
ATOM     19  N   UNL     1      -2.536  -1.792  29.853  0.00  0.00    +0.000 N 
ATOM     20  H   UNL     1      -2.535  -1.489  30.849  0.00  0.00    +0.000 HD
BRANCH  19  21
ATOM     21  C   UNL     1      -2.447  -0.669  28.879  0.00  0.00    +0.000 C 
BRANCH  21  22
ATOM     22  C   UNL     1      -3.342   0.443  29.305  0.00  0.00    +0.000 C 
BRANCH  22  23
ATOM     23  O   UNL     1      -4.111   0.110  30.421  0.00  0.00    +0.000 OA
ATOM     24  H   UNL     1      -4.049  -0.823  30.678  0.00  0.00    +0.000 HD
ENDBRANCH  22  23
ENDBRANCH  21  22
ENDBRANCH  19  21
ENDBRANCH   1  17
TORSDOF 5
ENDMDL
