MODEL 1
REMARK VINA RESULT:    -7.592      0.000      0.000
REMARK INTER + INTRA:         -11.335
REMARK INTER:                 -10.698
REMARK INTRA:                  -0.636
REMARK UNBOUND:                -0.636
REMARK  Name = 
REMARK  8 active torsions:
REMARK  status: ('A' for Active; 'I' for Inactive)
REMARK    1  A    between atoms: C_1  and  C_16
REMARK    2  A    between atoms: C_3  and  C_6
REMARK    3  A    between atoms: C_6  and  N_7
REMARK    4  A    between atoms: N_7  and  C_8
REMARK    5  A    between atoms: C_8  and  C_9
REMARK    6  A    between atoms: C_9  and  N_10
REMARK    7  A    between atoms: C_19  and  O_22
REMARK    8  A    between atoms: O_22  and  C_23
REMARK                            x       y       z     vdW  Elec       q    Type
REMARK                         _______ _______ _______ _____ _____    ______ ____
ROOT
ATOM      1  C   UNL     1      -7.926  -1.978  32.136  0.00  0.00    +0.000 A 
ATOM      2  O   UNL     1      -6.955  -2.721  31.731  0.00  0.00    +0.000 OA
ATOM      3  C   UNL     1      -5.801  -2.106  31.736  0.00  0.00    +0.000 A 
ATOM      4  C   UNL     1      -6.009  -0.823  32.186  0.00  0.00    +0.000 A 
ATOM      5  C   UNL     1      -7.359  -0.736  32.444  0.00  0.00    +0.000 A 
ENDROOT
BRANCH   1   6
ATOM      6  C   UNL     1      -9.343  -2.246  32.290  0.00  0.00    +0.000 A 
ATOM      7  C   UNL     1      -9.744  -3.150  33.250  0.00  0.00    +0.000 A 
ATOM      8  C   UNL     1     -11.083  -3.447  33.441  0.00  0.00    +0.000 A 
ATOM      9  C   UNL     1     -12.071  -2.844  32.674  0.00  0.00    +0.000 A 
ATOM     10  C   UNL     1     -11.657  -1.940  31.718  0.00  0.00    +0.000 A 
ATOM     11  C   UNL     1     -10.314  -1.645  31.526  0.00  0.00    +0.000 A 
ATOM     12 CL   UNL     1     -11.530  -4.600  34.672  0.00  0.00    +0.000 Cl
BRANCH   9  13
ATOM     13  O   UNL     1     -13.408  -3.154  32.882  0.00  0.00    +0.000 OA
ATOM     14  C   UNL     1     -14.277  -2.110  33.279  0.00  0.00    +0.000 C 
ENDBRANCH   9  13
ENDBRANCH   1   6
BRANCH   3  15
ATOM     15  C   UNL     1      -4.489  -2.714  31.316  0.00  0.00    +0.000 C 
BRANCH  15  16
ATOM     16  N   UNL     1      -3.703  -2.966  32.494  0.00  0.00    +0.000 NA
ATOM     17  H   UNL     1      -2.736  -3.258  32.307  0.00  0.00    +0.000 HD
BRANCH  16  18
ATOM     18  C   UNL     1      -4.426  -3.908  33.324  0.00  0.00    +0.000 C 
BRANCH  18  19
ATOM     19  C   UNL     1      -3.645  -5.181  33.370  0.00  0.00    +0.000 C 
BRANCH  19  20
ATOM     20  N   UNL     1      -4.067  -6.119  32.358  0.00  0.00    +0.000 NA
ATOM     21  C   UNL     1      -4.318  -7.410  32.925  0.00  0.00    +0.000 C 
ATOM     22  C   UNL     1      -3.075  -8.178  33.263  0.00  0.00    +0.000 C 
ATOM     23  O   UNL     1      -1.905  -7.485  32.996  0.00  0.00    +0.000 OA
ATOM     24  C   UNL     1      -1.851  -6.976  31.714  0.00  0.00    +0.000 C 
ATOM     25  C   UNL     1      -3.105  -6.269  31.295  0.00  0.00    +0.000 C 
ENDBRANCH  19  20
ENDBRANCH  18  19
ENDBRANCH  16  18
ENDBRANCH  15  16
ENDBRANCH   3  15
TORSDOF 7
ENDMDL
