REMARK  Name = =
REMARK  0 active torsions:
REMARK  status: ('A' for Active; 'I' for Inactive)
REMARK                            x       y       z     vdW  Elec       q    Type
REMARK                         _______ _______ _______ _____ _____    ______ ____
ROOT
ATOM      1  C   UNL     1      51.684 156.172  28.035  0.00  0.00    -0.000 C 
ATOM      2  C   UNL     1      52.612 157.076  27.522  0.00  0.00    -0.004 C 
ATOM      3  C   UNL     1      53.904 156.967  27.971  0.00  0.00    -0.021 C 
ATOM      4  C   UNL     1      54.307 156.017  28.889  0.00  0.00    -0.021 C 
ATOM      5  C   UNL     1      53.383 155.118  29.398  0.00  0.00    -0.004 C 
ATOM      6  C   UNL     1      52.059 155.208  28.956  0.00  0.00    -0.000 C 
ATOM      7  C   UNL     1      55.713 155.992  29.299  0.00  0.00    +0.052 C 
ATOM      8  C   UNL     1      56.617 156.319  28.156  0.00  0.00    -0.026 C 
ATOM      9  C   UNL     1      56.250 157.229  27.273  0.00  0.00    -0.022 C 
ATOM     10  C   UNL     1      57.073 157.603  26.132  0.00  0.00    -0.005 C 
ATOM     11  C   UNL     1      58.240 157.007  25.969  0.00  0.00    -0.005 C 
ATOM     12  C   UNL     1      58.754 155.983  26.881  0.00  0.00    -0.026 C 
ATOM     13  C   UNL     1      57.900 155.628  28.030  0.00  0.00    -0.030 C 
ATOM     14  C   UNL     1      58.618 155.745  29.364  0.00  0.00    +0.026 C 
ATOM     15  C   UNL     1      59.952 155.084  29.398  0.00  0.00    +0.005 C 
ATOM     16  C   UNL     1      60.670 155.097  28.071  0.00  0.00    +0.005 C 
ATOM     17  C   UNL     1      60.191 156.280  27.276  0.00  0.00    +0.026 C 
ATOM     18  C   UNL     1      54.930 157.899  27.463  0.00  0.00    +0.052 C 
ENDROOT
TORSDOF 0
