REMARK  Name = =
REMARK  1 active torsions:
REMARK  status: ('A' for Active; 'I' for Inactive)
REMARK    1  A    between atoms: C_1  and  C_19
REMARK                            x       y       z     vdW  Elec       q    Type
REMARK                         _______ _______ _______ _____ _____    ______ ____
ROOT
ATOM      1  C   UNL     1      46.620 162.571  35.080  0.00  0.00    -0.000 C 
ATOM      2  C   UNL     1      46.897 161.849  33.938  0.00  0.00    -0.004 C 
ATOM      3  C   UNL     1      48.174 161.486  33.594  0.00  0.00    -0.021 C 
ATOM      4  C   UNL     1      49.246 161.845  34.408  0.00  0.00    -0.021 C 
ATOM      5  C   UNL     1      48.992 162.563  35.548  0.00  0.00    -0.004 C 
ATOM      6  C   UNL     1      47.686 162.920  35.876  0.00  0.00    -0.000 C 
ATOM      7  C   UNL     1      50.628 161.425  34.006  0.00  0.00    +0.052 C 
ATOM      8  C   UNL     1      50.762 161.547  32.510  0.00  0.00    -0.026 C 
ATOM      9  C   UNL     1      49.763 161.233  31.735  0.00  0.00    -0.022 C 
ATOM     10  C   UNL     1      49.869 161.354  30.294  0.00  0.00    -0.005 C 
ATOM     11  C   UNL     1      50.996 161.800  29.747  0.00  0.00    -0.005 C 
ATOM     12  C   UNL     1      52.116 162.173  30.556  0.00  0.00    -0.026 C 
ATOM     13  C   UNL     1      52.061 161.960  31.963  0.00  0.00    -0.030 C 
ATOM     14  C   UNL     1      53.192 161.137  32.564  0.00  0.00    +0.026 C 
ATOM     15  C   UNL     1      53.915 160.322  31.530  0.00  0.00    +0.005 C 
ATOM     16  C   UNL     1      54.380 161.125  30.354  0.00  0.00    +0.005 C 
ATOM     17  C   UNL     1      53.462 162.232  29.957  0.00  0.00    +0.026 C 
ATOM     18  C   UNL     1      48.495 160.722  32.370  0.00  0.00    +0.052 C 
ENDROOT
BRANCH   1  19
ATOM     19  C   UNL     1      45.230 162.889  35.369  0.00  0.00    -0.000 C 
ATOM     20  C   UNL     1      44.310 161.912  35.669  0.00  0.00    -0.000 C 
ATOM     21  C   UNL     1      42.965 162.233  35.911  0.00  0.00    -0.000 C 
ATOM     22  C   UNL     1      42.591 163.562  35.841  0.00  0.00    +0.000 C 
ATOM     23  C   UNL     1      43.522 164.549  35.538  0.00  0.00    -0.000 C 
ATOM     24  C   UNL     1      44.829 164.198  35.307  0.00  0.00    -0.000 C 
ATOM     25  C   UNL     1      45.738 165.171  35.004  0.00  0.00    -0.000 C 
ATOM     26  C   UNL     1      45.413 166.507  34.916  0.00  0.00    +0.000 C 
ATOM     27  C   UNL     1      44.101 166.857  35.148  0.00  0.00    +0.000 C 
ATOM     28  C   UNL     1      43.178 165.876  35.454  0.00  0.00    +0.000 C 
ATOM     29  C   UNL     1      42.063 161.229  36.214  0.00  0.00    +0.000 C 
ATOM     30  C   UNL     1      42.479 159.926  36.278  0.00  0.00    +0.000 C 
ATOM     31  C   UNL     1      43.801 159.629  36.037  0.00  0.00    +0.000 C 
ATOM     32  C   UNL     1      44.739 160.599  35.731  0.00  0.00    -0.000 C 
ENDBRANCH   1  19
TORSDOF 1
