REMARK  Name = =
REMARK  5 active torsions:
REMARK  status: ('A' for Active; 'I' for Inactive)
REMARK    1  A    between atoms: C_1  and  C_15
REMARK    2  A    between atoms: C_12  and  S_33
REMARK    3  A    between atoms: S_33  and  P_34
REMARK    4  A    between atoms: P_34  and  O_36
REMARK    5  A    between atoms: P_34  and  O_37
REMARK                            x       y       z     vdW  Elec       q    Type
REMARK                         _______ _______ _______ _____ _____    ______ ____
ROOT
ATOM      1  C   UNL     1      45.385 162.708  34.568  0.00  0.00    -0.000 C 
ATOM      2  C   UNL     1      44.404 161.950  35.141  0.00  0.00    +0.000 C 
ATOM      3  C   UNL     1      43.294 162.538  35.727  0.00  0.00    +0.000 C 
ATOM      4  C   UNL     1      43.196 163.909  35.722  0.00  0.00    +0.000 C 
ATOM      5  C   UNL     1      44.193 164.703  35.141  0.00  0.00    +0.000 C 
ATOM      6  C   UNL     1      45.290 164.103  34.562  0.00  0.00    -0.000 C 
ATOM      7  C   UNL     1      46.275 164.867  33.989  0.00  0.00    -0.000 C 
ATOM      8  C   UNL     1      46.202 166.250  33.973  0.00  0.00    +0.000 C 
ATOM      9  C   UNL     1      45.103 166.836  34.552  0.00  0.00    +0.000 C 
ATOM     10  C   UNL     1      44.109 166.069  35.130  0.00  0.00    +0.000 C 
ATOM     11  C   UNL     1      42.287 161.806  36.313  0.00  0.00    +0.007 C 
ATOM     12  C   UNL     1      42.397 160.424  36.309  0.00  0.00    +0.036 C 
ATOM     13  C   UNL     1      43.499 159.816  35.729  0.00  0.00    +0.007 C 
ATOM     14  C   UNL     1      44.505 160.577  35.142  0.00  0.00    +0.001 C 
ENDROOT
BRANCH   1  15
ATOM     15  C   UNL     1      46.563 162.142  33.947  0.00  0.00    -0.000 C 
ATOM     16  C   UNL     1      47.823 162.680  34.254  0.00  0.00    -0.004 C 
ATOM     17  C   UNL     1      48.964 162.191  33.699  0.00  0.00    -0.021 C 
ATOM     18  C   UNL     1      48.891 161.144  32.814  0.00  0.00    -0.021 C 
ATOM     19  C   UNL     1      47.666 160.597  32.496  0.00  0.00    -0.004 C 
ATOM     20  C   UNL     1      46.515 161.095  33.060  0.00  0.00    -0.000 C 
ATOM     21  C   UNL     1      50.097 160.576  32.181  0.00  0.00    +0.052 C 
ATOM     22  C   UNL     1      51.172 161.605  32.017  0.00  0.00    -0.026 C 
ATOM     23  C   UNL     1      51.228 162.602  32.881  0.00  0.00    -0.022 C 
ATOM     24  C   UNL     1      52.279 163.596  32.709  0.00  0.00    -0.005 C 
ATOM     25  C   UNL     1      53.163 163.532  31.730  0.00  0.00    -0.005 C 
ATOM     26  C   UNL     1      53.113 162.447  30.774  0.00  0.00    -0.026 C 
ATOM     27  C   UNL     1      52.091 161.418  30.899  0.00  0.00    -0.030 C 
ATOM     28  C   UNL     1      52.672 160.021  30.837  0.00  0.00    +0.026 C 
ATOM     29  C   UNL     1      53.425 159.914  29.539  0.00  0.00    +0.005 C 
ATOM     30  C   UNL     1      54.549 160.894  29.414  0.00  0.00    +0.005 C 
ATOM     31  C   UNL     1      54.215 162.283  29.828  0.00  0.00    +0.026 C 
ATOM     32  C   UNL     1      50.266 162.757  34.023  0.00  0.00    +0.052 C 
ENDBRANCH   1  15
BRANCH  12  33
ATOM     33  S   UNL     1      41.155 159.379  37.039  0.00  0.00    -0.004 S 
BRANCH  33  34
ATOM     34  P   UNL     1      40.701 160.114  38.955  0.00  0.00    +0.391 P 
ATOM     35  O   UNL     1      40.206 158.969  39.816  0.00  0.00    -0.246 OA
BRANCH  34  36
ATOM     36  O   UNL     1      42.114 160.755  39.631  0.00  0.00    -0.316 OA
ATOM     37  H   UNL     1      42.799 160.069  39.659  0.00  0.00    +0.221 HD
ENDBRANCH  34  36
BRANCH  34  38
ATOM     38  O   UNL     1      39.534 161.323  38.920  0.00  0.00    -0.316 OA
ATOM     39  H   UNL     1      39.847 162.058  38.370  0.00  0.00    +0.221 HD
ENDBRANCH  34  38
ENDBRANCH  33  34
ENDBRANCH  12  33
TORSDOF 5
