MODEL 1
REMARK VINA RESULT:    -7.125      0.000      0.000
REMARK INTER + INTRA:         -11.191
REMARK INTER:                 -10.458
REMARK INTRA:                  -0.733
REMARK UNBOUND:                -0.733
REMARK  Name = =
REMARK  9 active torsions:
REMARK  status: ('A' for Active; 'I' for Inactive)
REMARK    1  A    between atoms: N_1  and  C_7
REMARK    2  A    between atoms: N_1  and  C_19
REMARK    3  A    between atoms: C_2  and  C_36
REMARK    4  A    between atoms: N_4  and  C_12
REMARK    5  A    between atoms: C_26  and  N_28
REMARK    6  A    between atoms: N_28  and  O_32
REMARK    7  A    between atoms: O_32  and  C_33
REMARK    8  A    between atoms: C_33  and  O_35
REMARK    9  A    between atoms: C_36  and  O_38
REMARK                            x       y       z     vdW  Elec       q    Type
REMARK                         _______ _______ _______ _____ _____    ______ ____
ROOT
ATOM      1  N   UNL     1      59.712 160.810  39.534  0.00  0.00    -0.244 N 
ATOM      2  C   UNL     1      60.696 160.796  40.511  0.00  0.00    +0.327 C 
ATOM      3  O   UNL     1      60.293 160.602  41.752  0.00  0.00    -0.263 OA
ENDROOT
BRANCH   1   7
ATOM      4  N   UNL     1      56.608 161.777  41.467  0.00  0.00    -0.204 N 
ATOM      5  C   UNL     1      57.807 161.854  40.665  0.00  0.00    +0.269 C 
ATOM      6  O   UNL     1      58.427 162.921  40.485  0.00  0.00    -0.271 OA
ATOM      7  C   UNL     1      58.326 160.612  40.025  0.00  0.00    +0.214 C 
ATOM      8  N   UNL     1      58.159 159.480  40.846  0.00  0.00    -0.268 NA
ATOM      9  C   UNL     1      57.504 159.574  42.084  0.00  0.00    +0.157 C 
ATOM     10  C   UNL     1      56.334 160.486  41.992  0.00  0.00    +0.251 C 
ATOM     11  O   UNL     1      55.159 160.150  42.357  0.00  0.00    -0.273 OA
ATOM     12  H   UNL     1      59.094 159.122  41.040  0.00  0.00    +0.126 HD
BRANCH   4  13
ATOM     13  C   UNL     1      55.790 162.876  41.692  0.00  0.00    +0.063 C 
ATOM     14  C   UNL     1      54.559 162.940  41.052  0.00  0.00    +0.045 C 
ATOM     15  C   UNL     1      53.769 164.036  41.291  0.00  0.00    +0.141 C 
ATOM     16  C   UNL     1      54.170 165.054  42.140  0.00  0.00    +0.030 C 
ATOM     17  C   UNL     1      55.398 164.981  42.772  0.00  0.00    +0.004 C 
ATOM     18  C   UNL     1      56.194 163.884  42.536  0.00  0.00    +0.015 C 
ATOM     19  F   UNL     1      52.552 164.158  40.694  0.00  0.00    -0.204 F 
ENDBRANCH   4  13
ENDBRANCH   1   7
BRANCH   1  20
ATOM     20  C   UNL     1      59.883 160.991  38.144  0.00  0.00    +0.143 C 
ATOM     21  C   UNL     1      58.838 160.501  37.237  0.00  0.00    +0.097 C 
ATOM     22  N   UNL     1      58.562 161.388  36.347  0.00  0.00    -0.247 NA
ATOM     23  C   UNL     1      59.365 162.564  36.557  0.00  0.00    +0.080 C 
ATOM     24  C   UNL     1      60.168 162.358  37.659  0.00  0.00    +0.019 C 
ATOM     25  C   UNL     1      61.032 163.375  38.072  0.00  0.00    +0.001 C 
ATOM     26  C   UNL     1      61.088 164.570  37.391  0.00  0.00    +0.018 C 
ATOM     27  C   UNL     1      60.285 164.805  36.267  0.00  0.00    +0.096 C 
ATOM     28  C   UNL     1      59.454 163.774  35.906  0.00  0.00    +0.037 C 
BRANCH  27  29
ATOM     29  N   UNL     1      60.346 166.035  35.570  0.00  0.00    -0.079 N 
ATOM     30  C   UNL     1      61.144 166.159  34.414  0.00  0.00    +0.337 C 
ATOM     31  O   UNL     1      61.792 165.127  34.027  0.00  0.00    -0.249 OA
ATOM     32  N   UNL     1      61.241 167.369  33.690  0.00  0.00    -0.311 N 
ATOM     33  H   UNL     1      60.742 168.163  33.989  0.00  0.00    +0.147 HD
ATOM     34  H   UNL     1      61.807 167.418  32.886  0.00  0.00    +0.147 HD
BRANCH  29  35
ATOM     35  O   UNL     1      59.633 167.105  36.015  0.00  0.00    -0.305 OA
BRANCH  35  36
ATOM     36  C   UNL     1      60.101 168.031  36.931  0.00  0.00    +0.531 C 
ATOM     37  O   UNL     1      59.597 168.059  38.067  0.00  0.00    -0.201 OA
BRANCH  36  38
ATOM     38  O   UNL     1      61.112 168.888  36.530  0.00  0.00    -0.448 OA
ATOM     39  H   UNL     1      61.278 169.675  37.011  0.00  0.00    +0.299 HD
ENDBRANCH  36  38
ENDBRANCH  35  36
ENDBRANCH  29  35
ENDBRANCH  27  29
ENDBRANCH   1  20
BRANCH   2  40
ATOM     40  C   UNL     1      62.125 160.956  40.434  0.00  0.00    +0.393 C 
ATOM     41  O   UNL     1      62.679 162.019  40.743  0.00  0.00    -0.240 OA
BRANCH  40  42
ATOM     42  O   UNL     1      62.980 159.929  40.008  0.00  0.00    -0.474 OA
ATOM     43  H   UNL     1      63.724 160.130  39.473  0.00  0.00    +0.296 HD
ENDBRANCH  40  42
ENDBRANCH   2  40
TORSDOF 9
ENDMDL
