REMARK  Name = =
REMARK  9 active torsions:
REMARK  status: ('A' for Active; 'I' for Inactive)
REMARK    1  A    between atoms: N_1  and  C_7
REMARK    2  A    between atoms: N_1  and  C_19
REMARK    3  A    between atoms: C_2  and  C_36
REMARK    4  A    between atoms: N_4  and  C_12
REMARK    5  A    between atoms: C_26  and  N_28
REMARK    6  A    between atoms: N_28  and  O_32
REMARK    7  A    between atoms: O_32  and  C_33
REMARK    8  A    between atoms: C_33  and  O_35
REMARK    9  A    between atoms: C_36  and  O_38
REMARK                            x       y       z     vdW  Elec       q    Type
REMARK                         _______ _______ _______ _____ _____    ______ ____
ROOT
ATOM      1  N   UNL     1      52.286 156.320  27.514  0.00  0.00    -0.244 N 
ATOM      2  C   UNL     1      53.399 157.113  27.750  0.00  0.00    +0.327 C 
ATOM      3  O   UNL     1      54.345 157.092  26.831  0.00  0.00    -0.263 OA
ENDROOT
BRANCH   1   7
ATOM      4  N   UNL     1      53.271 153.386  25.339  0.00  0.00    -0.204 N 
ATOM      5  C   UNL     1      52.878 154.180  26.480  0.00  0.00    +0.269 C 
ATOM      6  O   UNL     1      52.988 153.770  27.653  0.00  0.00    -0.271 OA
ATOM      7  C   UNL     1      52.317 155.541  26.251  0.00  0.00    +0.214 C 
ATOM      8  N   UNL     1      52.946 156.203  25.179  0.00  0.00    -0.268 NA
ATOM      9  C   UNL     1      53.932 155.563  24.412  0.00  0.00    +0.157 C 
ATOM     10  C   UNL     1      53.573 154.140  24.174  0.00  0.00    +0.251 C 
ATOM     11  O   UNL     1      53.535 153.617  23.012  0.00  0.00    -0.273 OA
ATOM     12  H   UNL     1      53.380 157.039  25.569  0.00  0.00    +0.126 HD
BRANCH   4  13
ATOM     13  C   UNL     1      53.335 152.000  25.382  0.00  0.00    +0.063 C 
ATOM     14  C   UNL     1      52.358 151.303  26.082  0.00  0.00    +0.045 C 
ATOM     15  C   UNL     1      52.444 149.934  26.109  0.00  0.00    +0.141 C 
ATOM     16  C   UNL     1      53.463 149.253  25.465  0.00  0.00    +0.030 C 
ATOM     17  C   UNL     1      54.431 149.956  24.771  0.00  0.00    +0.004 C 
ATOM     18  C   UNL     1      54.350 151.329  24.740  0.00  0.00    +0.015 C 
ATOM     19  F   UNL     1      51.518 149.194  26.778  0.00  0.00    -0.204 F 
ENDBRANCH   4  13
ENDBRANCH   1   7
BRANCH   1  20
ATOM     20  C   UNL     1      51.145 156.174  28.333  0.00  0.00    +0.143 C 
ATOM     21  C   UNL     1      51.210 155.248  29.470  0.00  0.00    +0.097 C 
ATOM     22  N   UNL     1      50.713 155.793  30.524  0.00  0.00    -0.247 NA
ATOM     23  C   UNL     1      50.277 157.133  30.228  0.00  0.00    +0.080 C 
ATOM     24  C   UNL     1      50.546 157.400  28.902  0.00  0.00    +0.019 C 
ATOM     25  C   UNL     1      50.224 158.655  28.381  0.00  0.00    +0.001 C 
ATOM     26  C   UNL     1      49.643 159.618  29.175  0.00  0.00    +0.018 C 
ATOM     27  C   UNL     1      49.357 159.373  30.525  0.00  0.00    +0.096 C 
ATOM     28  C   UNL     1      49.695 158.125  30.985  0.00  0.00    +0.037 C 
BRANCH  27  29
ATOM     29  N   UNL     1      48.760 160.365  31.337  0.00  0.00    -0.079 N 
ATOM     30  C   UNL     1      47.375 160.331  31.600  0.00  0.00    +0.337 C 
ATOM     31  O   UNL     1      46.697 159.376  31.087  0.00  0.00    -0.249 OA
ATOM     32  N   UNL     1      46.734 161.305  32.400  0.00  0.00    -0.311 N 
ATOM     33  H   UNL     1      47.257 162.040  32.794  0.00  0.00    +0.147 HD
ATOM     34  H   UNL     1      45.765 161.248  32.563  0.00  0.00    +0.147 HD
BRANCH  29  35
ATOM     35  O   UNL     1      49.523 161.359  31.868  0.00  0.00    -0.305 OA
BRANCH  35  36
ATOM     36  C   UNL     1      49.737 161.542  33.223  0.00  0.00    +0.531 C 
ATOM     37  O   UNL     1      49.259 160.718  34.022  0.00  0.00    -0.201 OA
BRANCH  36  38
ATOM     38  O   UNL     1      50.475 162.643  33.622  0.00  0.00    -0.448 OA
ATOM     39  H   UNL     1      50.637 162.794  34.533  0.00  0.00    +0.299 HD
ENDBRANCH  36  38
ENDBRANCH  35  36
ENDBRANCH  29  35
ENDBRANCH  27  29
ENDBRANCH   1  20
BRANCH   2  40
ATOM     40  C   UNL     1      53.737 157.989  28.842  0.00  0.00    +0.393 C 
ATOM     41  O   UNL     1      53.009 158.100  29.837  0.00  0.00    -0.240 OA
BRANCH  40  42
ATOM     42  O   UNL     1      54.902 158.769  28.854  0.00  0.00    -0.474 OA
ATOM     43  H   UNL     1      55.498 158.733  28.131  0.00  0.00    +0.296 HD
ENDBRANCH  40  42
ENDBRANCH   2  40
TORSDOF 9
