REMARK  Name = =
REMARK  9 active torsions:
REMARK  status: ('A' for Active; 'I' for Inactive)
REMARK    1  A    between atoms: C_1  and  N_12
REMARK    2  A    between atoms: C_1  and  N_23
REMARK    3  A    between atoms: N_12  and  N_13
REMARK    4  A    between atoms: N_13  and  N_14
REMARK    5  A    between atoms: N_14  and  C_15
REMARK    6  A    between atoms: C_18  and  O_22
REMARK    7  A    between atoms: N_23  and  C_25
REMARK    8  A    between atoms: N_23  and  N_30
REMARK    9  A    between atoms: C_31  and  O_33
REMARK                            x       y       z     vdW  Elec       q    Type
REMARK                         _______ _______ _______ _____ _____    ______ ____
ROOT
ATOM      1  C   UNL     1      52.892 153.382  26.719  0.00  0.00    +0.252 C 
ATOM      2  C   UNL     1      54.359 153.269  26.925  0.00  0.00    +0.211 C 
ATOM      3  O   UNL     1      54.984 152.923  27.953  0.00  0.00    -0.288 OA
ATOM      4  C   UNL     1      54.986 153.649  25.665  0.00  0.00    +0.041 C 
ATOM      5  C   UNL     1      54.030 154.122  24.802  0.00  0.00    +0.041 C 
ATOM      6  C   UNL     1      54.368 154.567  23.506  0.00  0.00    +0.003 C 
ATOM      7  C   UNL     1      55.672 154.534  23.075  0.00  0.00    +0.000 C 
ATOM      8  C   UNL     1      56.622 154.055  23.950  0.00  0.00    +0.000 C 
ATOM      9  C   UNL     1      56.301 153.622  25.210  0.00  0.00    +0.003 C 
ATOM     10  C   UNL     1      52.727 154.073  25.464  0.00  0.00    +0.211 C 
ATOM     11  O   UNL     1      51.684 154.560  24.982  0.00  0.00    -0.288 OA
ENDROOT
BRANCH   1  12
ATOM     12  N   UNL     1      52.426 154.172  27.883  0.00  0.00    -0.083 NA
BRANCH  12  13
ATOM     13  N   UNL     1      52.702 155.289  28.067  0.00  0.00    -0.037 NA
BRANCH  13  14
ATOM     14  N   UNL     1      52.792 156.481  28.588  0.00  0.00    -0.246 N 
ATOM     15  H   UNL     1      53.648 156.966  28.554  0.00  0.00    +0.169 HD
BRANCH  14  16
ATOM     16  C   UNL     1      51.644 157.094  29.215  0.00  0.00    +0.062 C 
ATOM     17  C   UNL     1      51.622 158.399  29.632  0.00  0.00    +0.025 C 
ATOM     18  C   UNL     1      50.489 158.940  30.241  0.00  0.00    +0.069 C 
ATOM     19  C   UNL     1      49.382 158.144  30.422  0.00  0.00    +0.140 C 
ATOM     20  C   UNL     1      49.415 156.826  29.998  0.00  0.00    +0.038 C 
ATOM     21  C   UNL     1      50.539 156.292  29.394  0.00  0.00    +0.019 C 
ATOM     22 BR   UNL     1      50.447 160.745  30.822  0.00  0.00    -0.046 Br
BRANCH  19  23
ATOM     23  O   UNL     1      48.219 158.617  31.024  0.00  0.00    -0.505 OA
ATOM     24  H   UNL     1      48.172 159.505  31.319  0.00  0.00    +0.292 HD
ENDBRANCH  19  23
ENDBRANCH  14  16
ENDBRANCH  13  14
ENDBRANCH  12  13
ENDBRANCH   1  12
BRANCH   1  25
ATOM     25  N   UNL     1      52.289 152.059  26.801  0.00  0.00    -0.137 NA
BRANCH  25  27
ATOM     26  O   UNL     1      53.780 151.220  25.056  0.00  0.00    -0.455 OA
ATOM     27  C   UNL     1      52.782 150.972  26.024  0.00  0.00    +0.269 C 
ATOM     28  C   UNL     1      52.386 149.730  26.126  0.00  0.00    +0.036 C 
ATOM     29  C   UNL     1      52.895 148.593  25.321  0.00  0.00    +0.004 C 
ATOM     30  C   UNL     1      53.927 148.970  24.349  0.00  0.00    +0.040 C 
ATOM     31  C   UNL     1      54.312 150.226  24.262  0.00  0.00    +0.174 C 
ENDBRANCH  25  27
BRANCH  25  32
ATOM     32  N   UNL     1      51.192 151.946  27.655  0.00  0.00    -0.208 N 
ATOM     33  C   UNL     1      51.070 150.852  28.521  0.00  0.00    +0.412 C 
ATOM     34  O   UNL     1      51.938 149.943  28.557  0.00  0.00    -0.225 OA
ATOM     35  H   UNL     1      50.496 152.642  27.649  0.00  0.00    +0.173 HD
BRANCH  33  36
ATOM     36  O   UNL     1      49.953 150.797  29.346  0.00  0.00    -0.465 OA
ATOM     37  H   UNL     1      49.311 151.479  29.312  0.00  0.00    +0.297 HD
ENDBRANCH  33  36
ENDBRANCH  25  32
ENDBRANCH   1  25
TORSDOF 9
