REMARK  Name = =
REMARK  3 active torsions:
REMARK  status: ('A' for Active; 'I' for Inactive)
REMARK    1  A    between atoms: C_1  and  S_3
REMARK    2  A    between atoms: C_1  and  N_4
REMARK    3  A    between atoms: N_4  and  O_5
REMARK                            x       y       z     vdW  Elec       q    Type
REMARK                         _______ _______ _______ _____ _____    ______ ____
ROOT
ATOM      1  C   UNL     1      51.580 155.829  29.100  0.00  0.00    +0.126 C 
ATOM      2  S   UNL     1      50.203 156.304  29.836  0.00  0.00    -0.026 S 
ENDROOT
BRANCH   1   3
ATOM      3  S   UNL     1      51.593 154.419  27.999  0.00  0.00    -0.118 S 
ATOM      4  H   UNL     1      52.851 154.231  27.518  0.00  0.00    +0.109 HD
ENDBRANCH   1   3
BRANCH   1   5
ATOM      5  N   UNL     1      52.802 156.512  29.306  0.00  0.00    -0.216 N 
ATOM      6  H   UNL     1      53.353 156.335  30.102  0.00  0.00    +0.180 HD
BRANCH   5   7
ATOM      7  O   UNL     1      53.191 157.417  28.375  0.00  0.00    -0.297 OA
ATOM      8  H   UNL     1      52.529 157.458  27.667  0.00  0.00    +0.241 HD
ENDBRANCH   5   7
ENDBRANCH   1   5
TORSDOF 3
