MODEL 1
REMARK VINA RESULT:    -9.834      0.000      0.000
REMARK INTER + INTRA:         -12.336
REMARK INTER:                 -11.847
REMARK INTRA:                  -0.489
REMARK UNBOUND:                -0.489
REMARK  Name = =
REMARK  4 active torsions:
REMARK  status: ('A' for Active; 'I' for Inactive)
REMARK    1  A    between atoms: N_1  and  N_28
REMARK    2  A    between atoms: C_34  and  C_35
REMARK    3  A    between atoms: C_37  and  C_41
REMARK    4  A    between atoms: C_38  and  O_48
REMARK                            x       y       z     vdW  Elec       q    Type
REMARK                         _______ _______ _______ _____ _____    ______ ____
ROOT
ATOM      1  N   UNL     1       3.303  -4.124  27.624  0.00  0.00    -0.199 NA
ATOM      2  C   UNL     1       4.351  -3.267  27.271  0.00  0.00    +0.114 C 
ATOM      3  C   UNL     1       5.453  -3.817  26.441  0.00  0.00    +0.110 C 
ATOM      4  N   UNL     1       5.637  -3.097  25.191  0.00  0.00    -0.305 N 
ATOM      5  C   UNL     1       4.542  -3.190  24.301  0.00  0.00    +0.093 C 
ATOM      6  C   UNL     1       4.297  -1.858  23.671  0.00  0.00    +0.048 C 
ATOM      7  C   UNL     1       5.170  -0.890  24.430  0.00  0.00    -0.009 C 
ATOM      8  C   UNL     1       5.977  -1.723  25.390  0.00  0.00    +0.057 C 
ATOM      9  C   UNL     1       4.847  -4.227  23.241  0.00  0.00    +0.089 C 
ATOM     10  N   UNL     1       3.745  -4.378  22.312  0.00  0.00    -0.296 NA
ATOM     11  C   UNL     1       3.189  -5.713  22.339  0.00  0.00    +0.069 C 
ATOM     12  C   UNL     1       3.967  -6.678  21.488  0.00  0.00    +0.017 C 
ATOM     13  C   UNL     1       3.898  -8.046  22.139  0.00  0.00    +0.003 C 
ATOM     14  C   UNL     1       2.925  -8.956  21.397  0.00  0.00    +0.017 C 
ATOM     15  C   UNL     1       1.633  -9.072  22.157  0.00  0.00    +0.069 C 
ATOM     16  N   UNL     1       1.875  -9.130  23.597  0.00  0.00    -0.296 NA
ATOM     17  C   UNL     1       2.021 -10.533  24.000  0.00  0.00    +0.086 C 
ATOM     18  C   UNL     1       2.950 -10.698  25.159  0.00  0.00    +0.089 C 
ATOM     19  N   UNL     1       2.371 -10.442  26.439  0.00  0.00    -0.271 NA
ATOM     20  C   UNL     1       2.249  -9.042  26.750  0.00  0.00    +0.073 C 
ATOM     21  C   UNL     1       0.836  -8.789  27.188  0.00  0.00    +0.019 C 
ATOM     22  C   UNL     1       0.062  -9.985  26.696  0.00  0.00    +0.019 C 
ATOM     23  C   UNL     1       1.106 -11.066  26.672  0.00  0.00    +0.072 C 
ATOM     24  C   UNL     1       3.242  -8.768  27.887  0.00  0.00    +0.085 C 
ATOM     25  N   UNL     1       3.055  -7.436  28.380  0.00  0.00    -0.295 NA
ATOM     26  C   UNL     1       3.939  -6.459  27.825  0.00  0.00    +0.088 C 
ATOM     27  C   UNL     1       3.211  -5.399  27.013  0.00  0.00    +0.109 C 
ATOM     28  H   UNL     1       4.081  -4.180  21.369  0.00  0.00    +0.123 HD
ATOM     29  H   UNL     1       1.089  -8.711  24.094  0.00  0.00    +0.123 HD
ATOM     30  H   UNL     1       3.192  -7.450  29.391  0.00  0.00    +0.123 HD
ENDROOT
BRANCH   1  31
ATOM     31  N   UNL     1       2.084  -3.528  27.903  0.00  0.00    -0.217 N 
ATOM     32  C   UNL     1       1.927  -2.131  27.973  0.00  0.00    +0.239 C 
ATOM     33  O   UNL     1       2.885  -1.421  28.351  0.00  0.00    -0.274 OA
ATOM     34  C   UNL     1       0.657  -1.437  27.618  0.00  0.00    +0.087 C 
ATOM     35  C   UNL     1      -0.409  -2.456  27.257  0.00  0.00    +0.012 C 
ATOM     36  C   UNL     1      -0.309  -3.579  28.235  0.00  0.00    +0.028 C 
ATOM     37  C   UNL     1       0.953  -4.403  28.121  0.00  0.00    +0.132 C 
BRANCH  37  38
ATOM     38  C   UNL     1       1.066  -5.107  29.426  0.00  0.00    +0.078 C 
ATOM     39  C   UNL     1       0.195  -6.083  29.825  0.00  0.00    +0.018 C 
ATOM     40  C   UNL     1       0.316  -6.726  31.059  0.00  0.00    +0.043 C 
ATOM     41  C   UNL     1       1.363  -6.327  31.863  0.00  0.00    +0.151 C 
ATOM     42  C   UNL     1       2.213  -5.339  31.417  0.00  0.00    +0.135 C 
ATOM     43  N   UNL     1       2.075  -4.737  30.226  0.00  0.00    -0.243 NA
BRANCH  40  44
ATOM     44  C   UNL     1      -0.631  -7.756  31.453  0.00  0.00    +0.150 C 
ATOM     45  S   UNL     1      -1.179  -8.802  30.087  0.00  0.00    -0.115 S 
ATOM     46  C   UNL     1      -2.933  -8.910  30.634  0.00  0.00    +0.081 C 
ATOM     47  C   UNL     1      -3.049  -7.626  31.367  0.00  0.00    +0.107 C 
ATOM     48  N   UNL     1      -1.853  -7.285  32.060  0.00  0.00    -0.260 N 
ATOM     49  C   UNL     1      -1.830  -6.528  33.262  0.00  0.00    +0.304 C 
ATOM     50  O   UNL     1      -2.915  -6.137  33.748  0.00  0.00    -0.265 OA
ENDBRANCH  40  44
BRANCH  41  51
ATOM     51  O   UNL     1       1.560  -6.922  33.129  0.00  0.00    -0.504 OA
ATOM     52  H   UNL     1       1.443  -7.845  33.235  0.00  0.00    +0.292 HD
ENDBRANCH  41  51
ENDBRANCH  37  38
ENDBRANCH   1  31
TORSDOF 4
ENDMDL
