MODEL 1
REMARK VINA RESULT:    -8.937      0.000      0.000
REMARK INTER + INTRA:         -15.822
REMARK INTER:                 -14.684
REMARK INTRA:                  -1.138
REMARK UNBOUND:                -1.138
REMARK  Name = =
REMARK  14 active torsions:
REMARK  status: ('A' for Active; 'I' for Inactive)
REMARK    1  A    between atoms: C_1  and  C_15
REMARK    2  A    between atoms: C_2  and  O_31
REMARK    3  A    between atoms: C_6  and  O_30
REMARK    4  A    between atoms: C_8  and  O_32
REMARK    5  A    between atoms: C_12  and  O_19
REMARK    6  A    between atoms: C_13  and  O_18
REMARK    7  A    between atoms: O_19  and  C_20
REMARK    8  A    between atoms: C_23  and  N_26
REMARK    9  A    between atoms: N_26  and  C_27
REMARK   10  A    between atoms: C_27  and  N_29
REMARK   11  A    between atoms: O_32  and  O_33
REMARK   12  A    between atoms: O_33  and  P_34
REMARK   13  A    between atoms: P_34  and  O_36
REMARK   14  A    between atoms: P_34  and  O_37
REMARK                            x       y       z     vdW  Elec       q    Type
REMARK                         _______ _______ _______ _____ _____    ______ ____
ROOT
ATOM      1  C   UNL     1      -1.542  -6.977  30.132  0.00  0.00    +0.182 A 
ATOM      2  C   UNL     1      -1.838  -7.563  31.323  0.00  0.00    +0.208 A 
ATOM      3  C   UNL     1      -2.678  -6.981  32.275  0.00  0.00    +0.238 A 
ATOM      4  O   UNL     1      -2.923  -7.553  33.355  0.00  0.00    -0.283 OA
ATOM      5  C   UNL     1      -3.229  -5.765  31.994  0.00  0.00    +0.110 A 
ATOM      6  C   UNL     1      -4.072  -5.141  32.905  0.00  0.00    +0.143 C 
ATOM      7  C   UNL     1      -4.582  -3.899  32.519  0.00  0.00    +0.078 C 
ATOM      8  C   UNL     1      -4.284  -3.314  31.323  0.00  0.00    +0.189 C 
ATOM      9  C   UNL     1      -3.450  -3.969  30.462  0.00  0.00    +0.079 C 
ATOM     10  C   UNL     1      -2.906  -5.207  30.780  0.00  0.00    +0.155 A 
ATOM     11  O   UNL     1      -2.122  -5.791  29.935  0.00  0.00    -0.450 OA
ENDROOT
BRANCH   1  15
ATOM     12  C   UNL     1       0.851  -8.516  26.974  0.00  0.00    +0.179 C 
ATOM     13  C   UNL     1      -0.506  -8.559  26.914  0.00  0.00    +0.168 C 
ATOM     14  C   UNL     1      -1.272  -8.063  27.933  0.00  0.00    +0.043 C 
ATOM     15  C   UNL     1      -0.692  -7.489  29.082  0.00  0.00    +0.041 C 
ATOM     16  C   UNL     1       0.671  -7.463  29.105  0.00  0.00    +0.006 C 
ATOM     17  C   UNL     1       1.475  -7.968  28.067  0.00  0.00    +0.041 C 
BRANCH  13  18
ATOM     18  O   UNL     1      -1.127  -9.117  25.800  0.00  0.00    -0.503 OA
ATOM     19  H   UNL     1      -1.243 -10.046  25.744  0.00  0.00    +0.292 HD
ENDBRANCH  13  18
BRANCH  12  20
ATOM     20  O   UNL     1       1.576  -9.037  25.904  0.00  0.00    -0.450 OA
BRANCH  20  21
ATOM     21  C   UNL     1       2.275 -10.210  26.108  0.00  0.00    +0.146 C 
ATOM     22  C   UNL     1       3.629 -10.298  25.909  0.00  0.00    +0.039 C 
ATOM     23  C   UNL     1       4.312 -11.508  26.125  0.00  0.00    +0.018 C 
ATOM     24  C   UNL     1       3.619 -12.597  26.534  0.00  0.00    +0.050 C 
ATOM     25  C   UNL     1       2.234 -12.522  26.741  0.00  0.00    +0.018 C 
ATOM     26  C   UNL     1       1.595 -11.328  26.522  0.00  0.00    +0.039 C 
BRANCH  24  27
ATOM     27  N   UNL     1       4.203 -13.857  26.749  0.00  0.00    -0.296 N 
ATOM     28  H   UNL     1       3.614 -14.595  27.031  0.00  0.00    +0.154 HD
BRANCH  27  29
ATOM     29  C   UNL     1       5.567 -14.134  26.588  0.00  0.00    +0.132 C 
ATOM     30  S   UNL     1       6.069 -14.808  25.170  0.00  0.00    -0.019 S 
BRANCH  29  31
ATOM     31  N   UNL     1       6.506 -13.856  27.595  0.00  0.00    -0.340 N 
ATOM     32  H   UNL     1       7.434 -14.172  27.504  0.00  0.00    +0.144 HD
ATOM     33  H   UNL     1       6.235 -13.344  28.391  0.00  0.00    +0.144 HD
ENDBRANCH  29  31
ENDBRANCH  27  29
ENDBRANCH  24  27
ENDBRANCH  20  21
ENDBRANCH  12  20
ENDBRANCH   1  15
BRANCH   6  34
ATOM     34  O   UNL     1      -4.430  -5.633  34.112  0.00  0.00    -0.505 OA
ATOM     35  H   UNL     1      -5.337  -5.729  34.329  0.00  0.00    +0.292 HD
ENDBRANCH   6  34
BRANCH   2  36
ATOM     36  O   UNL     1      -1.310  -8.784  31.653  0.00  0.00    -0.501 OA
ATOM     37  H   UNL     1      -1.875  -9.522  31.773  0.00  0.00    +0.292 HD
ENDBRANCH   2  36
BRANCH   8  38
ATOM     38  O   UNL     1      -4.812  -2.061  30.959  0.00  0.00    -0.324 OA
BRANCH  38  39
ATOM     39  O   UNL     1      -6.028  -1.710  31.389  0.00  0.00    -0.074 OA
BRANCH  39  40
ATOM     40  P   UNL     1      -6.040  -0.125  31.980  0.00  0.00    +0.508 P 
ATOM     41  O   UNL     1      -7.076   0.643  31.193  0.00  0.00    -0.224 OA
BRANCH  40  42
ATOM     42  O   UNL     1      -4.550   0.645  31.732  0.00  0.00    -0.301 OA
ATOM     43  H   UNL     1      -4.015   0.124  31.114  0.00  0.00    +0.222 HD
ENDBRANCH  40  42
BRANCH  40  44
ATOM     44  O   UNL     1      -6.447  -0.164  33.619  0.00  0.00    -0.301 OA
ATOM     45  H   UNL     1      -7.024   0.587  33.827  0.00  0.00    +0.222 HD
ENDBRANCH  40  44
ENDBRANCH  39  40
ENDBRANCH  38  39
ENDBRANCH   8  38
TORSDOF 14
ENDMDL
