REMARK  Name = =
REMARK  14 active torsions:
REMARK  status: ('A' for Active; 'I' for Inactive)
REMARK    1  A    between atoms: C_1  and  C_15
REMARK    2  A    between atoms: C_2  and  O_31
REMARK    3  A    between atoms: C_6  and  O_30
REMARK    4  A    between atoms: C_8  and  O_32
REMARK    5  A    between atoms: C_12  and  O_19
REMARK    6  A    between atoms: C_13  and  O_18
REMARK    7  A    between atoms: O_19  and  C_20
REMARK    8  A    between atoms: C_23  and  N_26
REMARK    9  A    between atoms: N_26  and  C_27
REMARK   10  A    between atoms: C_27  and  N_29
REMARK   11  A    between atoms: O_32  and  O_33
REMARK   12  A    between atoms: O_33  and  P_34
REMARK   13  A    between atoms: P_34  and  O_36
REMARK   14  A    between atoms: P_34  and  O_37
REMARK                            x       y       z     vdW  Elec       q    Type
REMARK                         _______ _______ _______ _____ _____    ______ ____
ROOT
ATOM      1  C   UNL     1      -1.419  -7.408  30.096  0.00  0.00    +0.182 A 
ATOM      2  C   UNL     1      -1.681  -7.970  31.306  0.00  0.00    +0.208 A 
ATOM      3  C   UNL     1      -2.555  -7.408  32.239  0.00  0.00    +0.238 A 
ATOM      4  O   UNL     1      -2.767  -7.957  33.338  0.00  0.00    -0.283 OA
ATOM      5  C   UNL     1      -3.177  -6.237  31.918  0.00  0.00    +0.110 A 
ATOM      6  C   UNL     1      -4.057  -5.634  32.808  0.00  0.00    +0.143 C 
ATOM      7  C   UNL     1      -4.640  -4.438  32.381  0.00  0.00    +0.078 C 
ATOM      8  C   UNL     1      -4.376  -3.877  31.166  0.00  0.00    +0.189 C 
ATOM      9  C   UNL     1      -3.503  -4.509  30.327  0.00  0.00    +0.079 C 
ATOM     10  C   UNL     1      -2.887  -5.701  30.686  0.00  0.00    +0.155 A 
ATOM     11  O   UNL     1      -2.068  -6.265  29.860  0.00  0.00    -0.450 OA
ENDROOT
BRANCH   1  15
ATOM     12  C   UNL     1       1.066  -8.885  26.980  0.00  0.00    +0.179 C 
ATOM     13  C   UNL     1      -0.285  -8.838  26.840  0.00  0.00    +0.168 C 
ATOM     14  C   UNL     1      -1.080  -8.362  27.846  0.00  0.00    +0.043 C 
ATOM     15  C   UNL     1      -0.538  -7.903  29.063  0.00  0.00    +0.041 C 
ATOM     16  C   UNL     1       0.820  -7.965  29.165  0.00  0.00    +0.006 C 
ATOM     17  C   UNL     1       1.654  -8.451  28.142  0.00  0.00    +0.041 C 
BRANCH  13  18
ATOM     18  O   UNL     1      -0.869  -9.281  25.657  0.00  0.00    -0.503 OA
ATOM     19  H   UNL     1      -0.331  -9.609  24.963  0.00  0.00    +0.292 HD
ENDBRANCH  13  18
BRANCH  12  20
ATOM     20  O   UNL     1       1.823  -9.380  25.920  0.00  0.00    -0.450 OA
BRANCH  20  21
ATOM     21  C   UNL     1       3.114  -9.790  26.184  0.00  0.00    +0.146 C 
ATOM     22  C   UNL     1       4.188  -8.944  26.071  0.00  0.00    +0.039 C 
ATOM     23  C   UNL     1       5.492  -9.392  26.347  0.00  0.00    +0.018 C 
ATOM     24  C   UNL     1       5.684 -10.677  26.729  0.00  0.00    +0.050 C 
ATOM     25  C   UNL     1       4.596 -11.554  26.849  0.00  0.00    +0.018 C 
ATOM     26  C   UNL     1       3.336 -11.088  26.573  0.00  0.00    +0.039 C 
BRANCH  24  27
ATOM     27  N   UNL     1       6.948 -11.229  26.999  0.00  0.00    -0.296 N 
ATOM     28  H   UNL     1       7.007 -11.927  27.691  0.00  0.00    +0.154 HD
BRANCH  27  29
ATOM     29  C   UNL     1       8.131 -10.852  26.348  0.00  0.00    +0.132 C 
ATOM     30  S   UNL     1       9.556 -11.487  26.881  0.00  0.00    -0.019 S 
BRANCH  29  31
ATOM     31  N   UNL     1       8.131  -9.957  25.266  0.00  0.00    -0.340 N 
ATOM     32  H   UNL     1       8.979  -9.712  24.830  0.00  0.00    +0.144 HD
ATOM     33  H   UNL     1       7.283  -9.575  24.944  0.00  0.00    +0.144 HD
ENDBRANCH  29  31
ENDBRANCH  27  29
ENDBRANCH  24  27
ENDBRANCH  20  21
ENDBRANCH  12  20
ENDBRANCH   1  15
BRANCH   6  34
ATOM     34  O   UNL     1      -4.387  -6.106  34.031  0.00  0.00    -0.505 OA
ATOM     35  H   UNL     1      -4.011  -6.906  34.342  0.00  0.00    +0.292 HD
ENDBRANCH   6  34
BRANCH   2  36
ATOM     36  O   UNL     1      -1.081  -9.146  31.676  0.00  0.00    -0.501 OA
ATOM     37  H   UNL     1      -0.484  -9.571  31.092  0.00  0.00    +0.292 HD
ENDBRANCH   2  36
BRANCH   8  38
ATOM     38  O   UNL     1      -4.977  -2.670  30.761  0.00  0.00    -0.324 OA
BRANCH  38  39
ATOM     39  O   UNL     1      -6.253  -2.433  31.079  0.00  0.00    -0.074 OA
BRANCH  39  40
ATOM     40  P   UNL     1      -6.384  -1.194  32.223  0.00  0.00    +0.508 P 
ATOM     41  O   UNL     1      -7.810  -0.698  32.193  0.00  0.00    -0.224 OA
BRANCH  40  42
ATOM     42  O   UNL     1      -5.388   0.123  31.834  0.00  0.00    -0.301 OA
ATOM     43  H   UNL     1      -4.460  -0.159  31.844  0.00  0.00    +0.222 HD
ENDBRANCH  40  42
BRANCH  40  44
ATOM     44  O   UNL     1      -6.005  -1.823  33.744  0.00  0.00    -0.301 OA
ATOM     45  H   UNL     1      -6.589  -2.573  33.939  0.00  0.00    +0.222 HD
ENDBRANCH  40  44
ENDBRANCH  39  40
ENDBRANCH  38  39
ENDBRANCH   8  38
TORSDOF 14
