REMARK  Name = =
REMARK  5 active torsions:
REMARK  status: ('A' for Active; 'I' for Inactive)
REMARK    1  A    between atoms: C_1  and  C_7
REMARK    2  A    between atoms: C_3  and  O_12
REMARK    3  A    between atoms: C_4  and  O_11
REMARK    4  A    between atoms: C_5  and  O_10
REMARK    5  A    between atoms: C_7  and  O_9
REMARK                            x       y       z     vdW  Elec       q    Type
REMARK                         _______ _______ _______ _____ _____    ______ ____
ROOT
ATOM      1  C   UNL     1     -15.518 -42.844  27.624  0.00  0.00    +0.082 C 
ATOM      2  C   UNL     1     -15.260 -42.797  26.274  0.00  0.00    +0.046 C 
ATOM      3  C   UNL     1     -16.192 -42.267  25.368  0.00  0.00    +0.171 C 
ATOM      4  C   UNL     1     -17.404 -41.773  25.787  0.00  0.00    +0.202 C 
ATOM      5  C   UNL     1     -17.660 -41.824  27.166  0.00  0.00    +0.171 C 
ATOM      6  C   UNL     1     -16.741 -42.343  28.039  0.00  0.00    +0.046 C 
ENDROOT
BRANCH   1   7
ATOM      7  C   UNL     1     -14.559 -43.391  28.576  0.00  0.00    +0.338 C 
ATOM      8  O   UNL     1     -14.857 -43.565  29.774  0.00  0.00    -0.245 OA
BRANCH   7   9
ATOM      9  O   UNL     1     -13.297 -43.722  28.141  0.00  0.00    -0.477 OA
ATOM     10  H   UNL     1     -13.063 -43.595  27.243  0.00  0.00    +0.295 HD
ENDBRANCH   7   9
ENDBRANCH   1   7
BRANCH   5  11
ATOM     11  O   UNL     1     -18.874 -41.329  27.589  0.00  0.00    -0.503 OA
ATOM     12  H   UNL     1     -19.481 -40.981  26.966  0.00  0.00    +0.292 HD
ENDBRANCH   5  11
BRANCH   4  13
ATOM     13  O   UNL     1     -18.346 -41.244  24.925  0.00  0.00    -0.501 OA
ATOM     14  H   UNL     1     -18.173 -41.211  24.005  0.00  0.00    +0.292 HD
ENDBRANCH   4  13
BRANCH   3  15
ATOM     15  O   UNL     1     -15.851 -42.259  24.033  0.00  0.00    -0.503 OA
ATOM     16  H   UNL     1     -16.448 -41.913  23.399  0.00  0.00    +0.292 HD
ENDBRANCH   3  15
TORSDOF 5
