REMARK  Name = =
REMARK  8 active torsions:
REMARK  status: ('A' for Active; 'I' for Inactive)
REMARK    1  A    between atoms: N_1  and  O_20
REMARK    2  A    between atoms: C_12  and  O_19
REMARK    3  A    between atoms: O_20  and  C_21
REMARK    4  A    between atoms: C_21  and  C_23
REMARK    5  A    between atoms: C_24  and  C_32
REMARK    6  A    between atoms: C_25  and  O_31
REMARK    7  A    between atoms: C_26  and  O_30
REMARK    8  A    between atoms: C_27  and  O_29
REMARK                            x       y       z     vdW  Elec       q    Type
REMARK                         _______ _______ _______ _____ _____    ______ ____
ROOT
ATOM      1  N   UNL     1     -13.170 -43.710  31.480  0.00  0.00    -0.118 NA
ATOM      2  C   UNL     1     -12.250 -42.624  31.168  0.00  0.00    +0.104 C 
ATOM      3  C   UNL     1     -11.351 -42.499  32.383  0.00  0.00    +0.047 C 
ATOM      4  C   UNL     1     -10.371 -43.660  32.326  0.00  0.00    +0.065 C 
ATOM      5  C   UNL     1      -9.407 -43.595  33.462  0.00  0.00    +0.174 C 
ATOM      6  O   UNL     1      -8.138 -43.911  32.806  0.00  0.00    -0.476 OA
ATOM      7  C   UNL     1      -8.234 -43.536  31.455  0.00  0.00    +0.168 C 
ATOM      8  C   UNL     1      -9.541 -43.364  31.140  0.00  0.00    +0.014 C 
ATOM      9  C   UNL     1     -10.083 -42.999  29.965  0.00  0.00    -0.021 C 
ATOM     10  C   UNL     1      -9.185 -42.767  28.920  0.00  0.00    -0.001 C 
ATOM     11  C   UNL     1      -7.811 -42.924  29.155  0.00  0.00    +0.039 C 
ATOM     12  C   UNL     1      -7.347 -43.301  30.402  0.00  0.00    +0.167 C 
ATOM     13  C   UNL     1     -11.558 -42.819  29.851  0.00  0.00    +0.046 C 
ATOM     14  C   UNL     1      -9.289 -42.249  34.102  0.00  0.00    +0.070 C 
ATOM     15  C   UNL     1      -9.611 -41.097  33.230  0.00  0.00    -0.027 C 
ATOM     16  C   UNL     1     -10.615 -41.205  32.386  0.00  0.00    -0.029 C 
ATOM     17  C   UNL     1     -11.154 -44.922  32.219  0.00  0.00    +0.029 C 
ATOM     18  C   UNL     1     -12.618 -44.642  32.417  0.00  0.00    +0.114 C 
ENDROOT
BRANCH  12  19
ATOM     19  O   UNL     1      -5.995 -43.449  30.614  0.00  0.00    -0.503 OA
ATOM     20  H   UNL     1      -5.391 -43.294  29.914  0.00  0.00    +0.292 HD
ENDBRANCH  12  19
BRANCH   1  21
ATOM     21  O   UNL     1     -13.680 -44.336  30.392  0.00  0.00    -0.361 OA
BRANCH  21  22
ATOM     22  C   UNL     1     -14.464 -43.680  29.430  0.00  0.00    +0.360 C 
ATOM     23  O   UNL     1     -15.298 -42.861  29.872  0.00  0.00    -0.243 OA
BRANCH  22  24
ATOM     24  C   UNL     1     -14.314 -43.937  28.008  0.00  0.00    +0.091 C 
ATOM     25  C   UNL     1     -15.077 -43.202  27.130  0.00  0.00    +0.086 C 
ATOM     26  C   UNL     1     -14.959 -43.424  25.780  0.00  0.00    +0.179 C 
ATOM     27  C   UNL     1     -14.069 -44.393  25.314  0.00  0.00    +0.202 C 
ATOM     28  C   UNL     1     -13.301 -45.135  26.177  0.00  0.00    +0.171 C 
ATOM     29  C   UNL     1     -13.445 -44.886  27.527  0.00  0.00    +0.047 C 
BRANCH  28  30
ATOM     30  O   UNL     1     -12.403 -46.112  25.708  0.00  0.00    -0.503 OA
ATOM     31  H   UNL     1     -12.318 -46.267  24.788  0.00  0.00    +0.292 HD
ENDBRANCH  28  30
BRANCH  27  32
ATOM     32  O   UNL     1     -13.969 -44.597  23.958  0.00  0.00    -0.501 OA
ATOM     33  H   UNL     1     -14.493 -44.091  23.368  0.00  0.00    +0.292 HD
ENDBRANCH  27  32
BRANCH  26  34
ATOM     34  O   UNL     1     -15.728 -42.684  24.874  0.00  0.00    -0.502 OA
ATOM     35  H   UNL     1     -16.325 -42.034  25.188  0.00  0.00    +0.292 HD
ENDBRANCH  26  34
BRANCH  25  36
ATOM     36  C   UNL     1     -16.007 -42.189  27.610  0.00  0.00    -0.048 C 
ATOM     37  C   UNL     1     -16.768 -41.353  28.025  0.00  0.00    -0.009 C 
ENDBRANCH  25  36
ENDBRANCH  22  24
ENDBRANCH  21  22
ENDBRANCH   1  21
TORSDOF 8
