REMARK  Name = =
REMARK  1 active torsions:
REMARK  status: ('A' for Active; 'I' for Inactive)
REMARK    1  A    between atoms: C_4  and  O_7
REMARK                            x       y       z     vdW  Elec       q    Type
REMARK                         _______ _______ _______ _____ _____    ______ ____
ROOT
ATOM      1  C   UNL     1      -4.416  -3.916  30.757  0.00  0.00    +0.000 C 
ATOM      2  C   UNL     1      -3.517  -2.984  30.285  0.00  0.00    +0.003 C 
ATOM      3  C   UNL     1      -2.186  -3.305  30.046  0.00  0.00    +0.037 C 
ATOM      4  C   UNL     1      -1.729  -4.582  30.279  0.00  0.00    +0.134 C 
ATOM      5  C   UNL     1      -2.625  -5.521  30.752  0.00  0.00    +0.037 C 
ATOM      6  C   UNL     1      -3.953  -5.194  30.988  0.00  0.00    +0.003 C 
ENDROOT
BRANCH   4   7
ATOM      7  O   UNL     1      -0.395  -4.876  30.032  0.00  0.00    -0.506 OA
ATOM      8  H   UNL     1       0.180  -4.209  29.711  0.00  0.00    +0.292 HD
ENDBRANCH   4   7
TORSDOF 1
