REMARK  Name = =
REMARK  3 active torsions:
REMARK  status: ('A' for Active; 'I' for Inactive)
REMARK    1  A    between atoms: C_1  and  C_8
REMARK    2  A    between atoms: C_4  and  O_7
REMARK    3  A    between atoms: C_8  and  O_9
REMARK                            x       y       z     vdW  Elec       q    Type
REMARK                         _______ _______ _______ _____ _____    ______ ____
ROOT
ATOM      1  C   UNL     1      -4.513  -4.043  31.408  0.00  0.00    +0.007 C 
ATOM      2  C   UNL     1      -3.643  -4.120  30.346  0.00  0.00    +0.001 C 
ATOM      3  C   UNL     1      -2.694  -5.119  30.257  0.00  0.00    +0.036 C 
ATOM      4  C   UNL     1      -2.578  -6.087  31.232  0.00  0.00    +0.134 C 
ATOM      5  C   UNL     1      -3.452  -6.006  32.296  0.00  0.00    +0.036 C 
ATOM      6  C   UNL     1      -4.405  -5.006  32.388  0.00  0.00    +0.001 C 
ENDROOT
BRANCH   4   7
ATOM      7  O   UNL     1      -1.621  -7.091  31.135  0.00  0.00    -0.506 OA
ATOM      8  H   UNL     1      -1.042  -7.117  30.398  0.00  0.00    +0.292 HD
ENDBRANCH   4   7
BRANCH   1   9
ATOM      9  C   UNL     1      -5.546  -2.960  31.514  0.00  0.00    +0.164 C 
BRANCH   9  10
ATOM     10  O   UNL     1      -5.118  -2.138  32.572  0.00  0.00    -0.377 OA
ATOM     11  H   UNL     1      -5.749  -1.412  32.693  0.00  0.00    +0.211 HD
ENDBRANCH   9  10
ENDBRANCH   1   9
TORSDOF 3
