REMARK  Name = =
REMARK  7 active torsions:
REMARK  status: ('A' for Active; 'I' for Inactive)
REMARK    1  A    between atoms: C_1  and  C_2
REMARK    2  A    between atoms: C_1  and  P_9
REMARK    3  A    between atoms: C_1  and  O_16
REMARK    4  A    between atoms: C_5  and  O_8
REMARK    5  A    between atoms: P_9  and  O_10
REMARK    6  A    between atoms: O_10  and  O_12
REMARK    7  A    between atoms: C_13  and  O_15
REMARK                            x       y       z     vdW  Elec       q    Type
REMARK                         _______ _______ _______ _____ _____    ______ ____
ROOT
ATOM      1  C   UNL     1      -5.006  -3.404  31.149  0.00  0.00    +0.011 C 
ATOM      2  C   UNL     1      -4.043  -3.434  30.165  0.00  0.00    +0.002 C 
ATOM      3  C   UNL     1      -2.927  -4.269  30.279  0.00  0.00    +0.036 C 
ATOM      4  C   UNL     1      -2.770  -5.080  31.382  0.00  0.00    +0.134 C 
ATOM      5  C   UNL     1      -3.722  -5.054  32.360  0.00  0.00    +0.036 C 
ATOM      6  C   UNL     1      -4.812  -4.229  32.234  0.00  0.00    +0.002 C 
ENDROOT
BRANCH   4   7
ATOM      7  O   UNL     1      -1.636  -5.919  31.483  0.00  0.00    -0.506 OA
ATOM      8  H   UNL     1      -0.994  -5.922  30.801  0.00  0.00    +0.292 HD
ENDBRANCH   4   7
BRANCH   1   9
ATOM      9  C   UNL     1      -6.193  -2.531  31.031  0.00  0.00    +0.184 C 
BRANCH   9  10
ATOM     10  O   UNL     1      -7.272  -3.292  31.556  0.00  0.00    -0.373 OA
ATOM     11  H   UNL     1      -7.299  -4.158  31.120  0.00  0.00    +0.211 HD
ENDBRANCH   9  10
BRANCH   9  12
ATOM     12  P   UNL     1      -6.026  -0.913  31.746  0.00  0.00    +0.170 P 
BRANCH  12  13
ATOM     13  O   UNL     1      -4.537  -1.275  31.900  0.00  0.00    -0.206 OA
BRANCH  13  14
ATOM     14  O   UNL     1      -4.677  -0.029  31.141  0.00  0.00    -0.246 OA
ATOM     15  H   UNL     1      -3.798   0.302  30.897  0.00  0.00    +0.253 HD
ENDBRANCH  13  14
ENDBRANCH  12  13
ENDBRANCH   9  12
ENDBRANCH   1   9
TORSDOF 6
REMARK  Name = =
REMARK  7 active torsions:
REMARK  status: ('A' for Active; 'I' for Inactive)
REMARK    1  A    between atoms: C_1  and  C_2
REMARK    2  A    between atoms: C_1  and  P_9
REMARK    3  A    between atoms: C_1  and  O_16
REMARK    4  A    between atoms: C_5  and  O_8
REMARK    5  A    between atoms: P_9  and  O_10
REMARK    6  A    between atoms: O_10  and  O_12
REMARK    7  A    between atoms: C_13  and  O_15
REMARK                            x       y       z     vdW  Elec       q    Type
REMARK                         _______ _______ _______ _____ _____    ______ ____
ROOT
ATOM      1  O   HOH     1      -7.284  -0.083  30.978  0.00  0.00    -0.410 OA
ATOM      2  H   HOH     0      -6.314  -0.083  30.978  0.00  0.00    +0.205 HD
ATOM      3  H   HOH     0      -7.607   0.583  30.352  0.00  0.00    +0.205 HD
ENDROOT
TORSDOF 0
REMARK  Name = =
REMARK  7 active torsions:
REMARK  status: ('A' for Active; 'I' for Inactive)
REMARK    1  A    between atoms: C_1  and  C_2
REMARK    2  A    between atoms: C_1  and  P_9
REMARK    3  A    between atoms: C_1  and  O_16
REMARK    4  A    between atoms: C_5  and  O_8
REMARK    5  A    between atoms: P_9  and  O_10
REMARK    6  A    between atoms: O_10  and  O_12
REMARK    7  A    between atoms: C_13  and  O_15
REMARK                            x       y       z     vdW  Elec       q    Type
REMARK                         _______ _______ _______ _____ _____    ______ ____
ROOT
ATOM      1  C   UNL     1      -6.023  -0.927  33.482  0.00  0.00    +0.325 C 
ATOM      2  O   UNL     1      -5.814  -1.928  34.255  0.00  0.00    -0.184 OA
ENDROOT
BRANCH   1   3
ATOM      3  O   UNL     1      -6.264   0.249  34.202  0.00  0.00    -0.354 OA
ATOM      4  H   UNL     1      -6.431   1.051  33.747  0.00  0.00    +0.213 HD
ENDBRANCH   1   3
TORSDOF 1
