REMARK  Name = =
REMARK  2 active torsions:
REMARK  status: ('A' for Active; 'I' for Inactive)
REMARK    1  A    between atoms: C_1  and  C_18
REMARK    2  A    between atoms: C_3  and  N_23
REMARK                            x       y       z     vdW  Elec       q    Type
REMARK                         _______ _______ _______ _____ _____    ______ ____
ROOT
ATOM      1  C   UNL     1       3.576  -8.602  24.186  0.00  0.00    +0.144 C 
ATOM      2  O   UNL     1       4.143  -8.335  25.483  0.00  0.00    -0.336 OA
ATOM      3  C   UNL     1       4.905  -7.233  25.566  0.00  0.00    +0.206 C 
ATOM      4  C   UNL     1       5.985  -7.195  24.470  0.00  0.00    +0.187 C 
ATOM      5  O   UNL     1       6.830  -8.286  24.721  0.00  0.00    -0.325 OA
ATOM      6  C   UNL     1       7.586  -8.625  23.642  0.00  0.00    +0.264 C 
ATOM      7  O   UNL     1       8.666  -7.762  23.435  0.00  0.00    -0.321 OA
ATOM      8  C   UNL     1       9.492  -8.430  22.495  0.00  0.00    +0.209 C 
ATOM      9  C   UNL     1       8.773  -8.366  21.205  0.00  0.00    +0.183 C 
ATOM     10  O   UNL     1       9.382  -8.462  20.173  0.00  0.00    -0.293 OA
ATOM     11  C   UNL     1       7.299  -8.189  21.196  0.00  0.00    +0.102 C 
ATOM     12  C   UNL     1       6.773  -8.902  22.420  0.00  0.00    +0.179 C 
ATOM     13  O   UNL     1       5.474  -8.575  22.625  0.00  0.00    -0.350 OA
ATOM     14  C   UNL     1       5.281  -7.297  23.116  0.00  0.00    +0.149 C 
ATOM     15  C   UNL     1       3.738  -7.282  23.484  0.00  0.00    +0.066 C 
ENDROOT
BRANCH   1  18
ATOM     16  F   UNL     1       1.878  -9.696  22.267  0.00  0.00    -0.204 F 
ATOM     17  C   UNL     1       1.401  -9.650  23.577  0.00  0.00    +0.138 C 
ATOM     18  C   UNL     1       2.198  -9.020  24.478  0.00  0.00    +0.032 C 
ATOM     19  C   UNL     1       1.714  -8.981  25.791  0.00  0.00    +0.000 C 
ATOM     20  C   UNL     1       0.514  -9.551  26.143  0.00  0.00    -0.000 C 
ATOM     21  C   UNL     1      -0.288 -10.196  25.191  0.00  0.00    +0.002 C 
ATOM     22  C   UNL     1       0.197 -10.229  23.881  0.00  0.00    +0.029 C 
ENDBRANCH   1  18
BRANCH   3  23
ATOM     23  N   UNL     1       5.661  -7.230  26.838  0.00  0.00    -0.246 NA
ATOM     24  C   UNL     1       7.000  -6.777  26.557  0.00  0.00    +0.093 C 
ATOM     25  C   UNL     1       7.954  -7.091  27.672  0.00  0.00    +0.106 C 
ATOM     26  N   UNL     1       7.944  -8.495  28.042  0.00  0.00    -0.215 NA
ATOM     27  C   UNL     1       6.996  -9.251  27.255  0.00  0.00    +0.106 C 
ATOM     28  C   UNL     1       5.656  -8.601  27.352  0.00  0.00    +0.093 C 
ENDBRANCH   3  23
TORSDOF 2
