REMARK  Name = =
REMARK  6 active torsions:
REMARK  status: ('A' for Active; 'I' for Inactive)
REMARK    1  A    between atoms: C_1  and  C_2
REMARK    2  A    between atoms: C_1  and  C_19
REMARK    3  A    between atoms: C_1  and  O_33
REMARK    4  A    between atoms: C_22  and  O_25
REMARK    5  A    between atoms: O_27  and  O_28
REMARK    6  A    between atoms: C_30  and  O_32
REMARK                            x       y       z     vdW  Elec       q    Type
REMARK                         _______ _______ _______ _____ _____    ______ ____
ROOT
ATOM      1  C   UNL     1      -1.495  -3.965  30.646  0.00  0.00    +0.008 C 
ATOM      2  C   UNL     1      -0.964  -2.915  29.972  0.00  0.00    -0.006 C 
ATOM      3  C   UNL     1       0.199  -3.058  29.201  0.00  0.00    -0.026 C 
ATOM      4  C   UNL     1       0.850  -4.259  29.092  0.00  0.00    -0.026 C 
ATOM      5  C   UNL     1       0.300  -5.337  29.789  0.00  0.00    -0.005 C 
ATOM      6  C   UNL     1      -0.838  -5.179  30.537  0.00  0.00    -0.002 C 
ATOM      7  C   UNL     1       2.073  -4.411  28.282  0.00  0.00    +0.022 C 
ATOM      8  C   UNL     1       2.181  -3.291  27.309  0.00  0.00    +0.004 C 
ATOM      9  C   UNL     1       3.470  -3.279  26.544  0.00  0.00    +0.000 C 
ATOM     10  C   UNL     1       4.700  -3.466  27.367  0.00  0.00    +0.000 C 
ATOM     11  C   UNL     1       5.727  -3.776  26.266  0.00  0.00    +0.000 C 
ATOM     12  C   UNL     1       5.007  -4.748  25.397  0.00  0.00    +0.000 C 
ATOM     13  C   UNL     1       3.553  -4.334  25.478  0.00  0.00    +0.000 C 
ATOM     14  C   UNL     1       4.548  -4.705  28.215  0.00  0.00    +0.000 C 
ATOM     15  C   UNL     1       3.321  -4.620  29.091  0.00  0.00    +0.004 C 
ATOM     16  C   UNL     1       2.127  -1.978  28.080  0.00  0.00    +0.005 C 
ATOM     17  C   UNL     1       0.680  -1.814  28.507  0.00  0.00    +0.026 C 
ENDROOT
BRANCH   1  18
ATOM     18  C   UNL     1      -2.700  -3.908  31.465  0.00  0.00    +0.155 C 
BRANCH  18  19
ATOM     19  C   UNL     1      -3.018  -5.232  32.055  0.00  0.00    +0.009 C 
ATOM     20  C   UNL     1      -3.443  -6.308  31.309  0.00  0.00    +0.001 C 
ATOM     21  C   UNL     1      -3.718  -7.508  31.942  0.00  0.00    +0.036 C 
ATOM     22  C   UNL     1      -3.584  -7.680  33.304  0.00  0.00    +0.134 C 
ATOM     23  C   UNL     1      -3.155  -6.597  34.053  0.00  0.00    +0.036 C 
ATOM     24  C   UNL     1      -2.879  -5.390  33.413  0.00  0.00    +0.001 C 
BRANCH  22  25
ATOM     25  O   UNL     1      -3.869  -8.911  33.925  0.00  0.00    -0.506 OA
ATOM     26  H   UNL     1      -4.159  -9.639  33.411  0.00  0.00    +0.292 HD
ENDBRANCH  22  25
ENDBRANCH  18  19
BRANCH  18  27
ATOM     27  O   UNL     1      -2.521  -3.007  32.488  0.00  0.00    -0.376 OA
ATOM     28  H   UNL     1      -3.324  -2.971  33.031  0.00  0.00    +0.211 HD
ENDBRANCH  18  27
ENDBRANCH   1  18
TORSDOF 4
REMARK  Name = =
REMARK  6 active torsions:
REMARK  status: ('A' for Active; 'I' for Inactive)
REMARK    1  A    between atoms: C_1  and  C_2
REMARK    2  A    between atoms: C_1  and  C_19
REMARK    3  A    between atoms: C_1  and  O_33
REMARK    4  A    between atoms: C_22  and  O_25
REMARK    5  A    between atoms: O_27  and  O_28
REMARK    6  A    between atoms: C_30  and  O_32
REMARK                            x       y       z     vdW  Elec       q    Type
REMARK                         _______ _______ _______ _____ _____    ______ ____
ROOT
ATOM      1  P   UNL     1      -4.192  -3.375  30.606  0.00  0.00    +0.000 P 
ENDROOT
TORSDOF 0
REMARK  Name = =
REMARK  6 active torsions:
REMARK  status: ('A' for Active; 'I' for Inactive)
REMARK    1  A    between atoms: C_1  and  C_2
REMARK    2  A    between atoms: C_1  and  C_19
REMARK    3  A    between atoms: C_1  and  O_33
REMARK    4  A    between atoms: C_22  and  O_25
REMARK    5  A    between atoms: O_27  and  O_28
REMARK    6  A    between atoms: C_30  and  O_32
REMARK                            x       y       z     vdW  Elec       q    Type
REMARK                         _______ _______ _______ _____ _____    ______ ____
ROOT
ATOM      1  O   UNL     1      -4.546  -3.234  29.170  0.00  0.00    -0.253 OA
ATOM      2  H   UNL     1      -5.012  -3.012  28.349  0.00  0.00    +0.253 HD
ENDROOT
BRANCH   1   3
ATOM      3  O   UNL     1      -3.996  -1.926  29.828  0.00  0.00    -0.253 OA
ATOM      4  H   UNL     1      -3.530  -2.148  30.649  0.00  0.00    +0.253 HD
ENDBRANCH   1   3
TORSDOF 1
REMARK  Name = =
REMARK  6 active torsions:
REMARK  status: ('A' for Active; 'I' for Inactive)
REMARK    1  A    between atoms: C_1  and  C_2
REMARK    2  A    between atoms: C_1  and  C_19
REMARK    3  A    between atoms: C_1  and  O_33
REMARK    4  A    between atoms: C_22  and  O_25
REMARK    5  A    between atoms: O_27  and  O_28
REMARK    6  A    between atoms: C_30  and  O_32
REMARK                            x       y       z     vdW  Elec       q    Type
REMARK                         _______ _______ _______ _____ _____    ______ ____
ROOT
ATOM      1  O   HOH     1      -5.160  -4.527  29.893  0.00  0.00    -0.253 OA
ATOM      2  H   HOH     0      -4.190  -4.527  29.893  0.00  0.00    +0.253 HD
ENDROOT
TORSDOF 0
REMARK  Name = =
REMARK  6 active torsions:
REMARK  status: ('A' for Active; 'I' for Inactive)
REMARK    1  A    between atoms: C_1  and  C_2
REMARK    2  A    between atoms: C_1  and  C_19
REMARK    3  A    between atoms: C_1  and  O_33
REMARK    4  A    between atoms: C_22  and  O_25
REMARK    5  A    between atoms: O_27  and  O_28
REMARK    6  A    between atoms: C_30  and  O_32
REMARK                            x       y       z     vdW  Elec       q    Type
REMARK                         _______ _______ _______ _____ _____    ______ ____
ROOT
ATOM      1  C   UNL     1      -5.193  -2.995  32.030  0.00  0.00    +0.415 C 
ATOM      2  O   UNL     1      -5.667  -3.923  32.672  0.00  0.00    -0.238 OA
ENDROOT
BRANCH   1   3
ATOM      3  O   UNL     1      -5.402  -1.690  32.357  0.00  0.00    -0.473 OA
ATOM      4  H   UNL     1      -5.020  -1.010  31.838  0.00  0.00    +0.296 HD
ENDBRANCH   1   3
TORSDOF 1
