REMARK  Name = =
REMARK  8 active torsions:
REMARK  status: ('A' for Active; 'I' for Inactive)
REMARK    1  A    between atoms: C_1  and  C_2
REMARK    2  A    between atoms: C_1  and  C_22
REMARK    3  A    between atoms: C_1  and  O_36
REMARK    4  A    between atoms: C_16  and  S_19
REMARK    5  A    between atoms: S_19  and  C_20
REMARK    6  A    between atoms: C_25  and  O_28
REMARK    7  A    between atoms: O_30  and  O_31
REMARK    8  A    between atoms: C_33  and  O_35
REMARK                            x       y       z     vdW  Elec       q    Type
REMARK                         _______ _______ _______ _____ _____    ______ ____
ROOT
ATOM      1  C   UNL     1      -1.551  -4.210  29.384  0.00  0.00    +0.008 C 
ATOM      2  C   UNL     1      -1.137  -3.492  28.254  0.00  0.00    -0.006 C 
ATOM      3  C   UNL     1       0.107  -3.689  27.745  0.00  0.00    -0.026 C 
ATOM      4  C   UNL     1       0.978  -4.604  28.346  0.00  0.00    -0.026 C 
ATOM      5  C   UNL     1       0.555  -5.306  29.461  0.00  0.00    -0.005 C 
ATOM      6  C   UNL     1      -0.717  -5.113  29.991  0.00  0.00    -0.002 C 
ATOM      7  C   UNL     1       2.287  -4.747  27.750  0.00  0.00    +0.032 C 
ATOM      8  C   UNL     1       2.411  -4.645  26.287  0.00  0.00    +0.005 C 
ATOM      9  C   UNL     1       2.983  -5.885  25.731  0.00  0.00    +0.000 C 
ATOM     10  C   UNL     1       2.735  -7.130  26.570  0.00  0.00    +0.001 C 
ATOM     11  C   UNL     1       3.422  -8.172  25.677  0.00  0.00    +0.000 C 
ATOM     12  C   UNL     1       3.169  -7.696  24.256  0.00  0.00    +0.000 C 
ATOM     13  C   UNL     1       2.503  -6.318  24.390  0.00  0.00    +0.000 C 
ATOM     14  C   UNL     1       3.483  -6.943  27.872  0.00  0.00    +0.012 C 
ATOM     15  C   UNL     1       3.306  -5.555  28.445  0.00  0.00    +0.059 C 
ATOM     16  C   UNL     1       1.177  -4.119  25.651  0.00  0.00    +0.005 C 
ATOM     17  C   UNL     1       0.639  -2.982  26.539  0.00  0.00    +0.026 C 
ENDROOT
BRANCH   1  18
ATOM     18  C   UNL     1      -2.925  -3.904  29.828  0.00  0.00    +0.155 C 
BRANCH  18  19
ATOM     19  C   UNL     1      -3.066  -2.427  29.744  0.00  0.00    +0.009 C 
ATOM     20  C   UNL     1      -2.370  -1.665  28.806  0.00  0.00    +0.001 C 
ATOM     21  C   UNL     1      -2.479  -0.298  28.715  0.00  0.00    +0.036 C 
ATOM     22  C   UNL     1      -3.308   0.382  29.581  0.00  0.00    +0.134 C 
ATOM     23  C   UNL     1      -4.003  -0.354  30.516  0.00  0.00    +0.036 C 
ATOM     24  C   UNL     1      -3.885  -1.729  30.596  0.00  0.00    +0.001 C 
BRANCH  22  25
ATOM     25  O   UNL     1      -3.434   1.772  29.508  0.00  0.00    -0.506 OA
ATOM     26  H   UNL     1      -2.952   2.253  28.864  0.00  0.00    +0.292 HD
ENDBRANCH  22  25
ENDBRANCH  18  19
BRANCH  18  27
ATOM     27  O   UNL     1      -3.738  -4.415  28.784  0.00  0.00    -0.376 OA
ATOM     28  H   UNL     1      -3.691  -5.384  28.782  0.00  0.00    +0.211 HD
ENDBRANCH  18  27
ENDBRANCH   1  18
BRANCH  15  29
ATOM     29  S   UNL     1       4.917  -4.695  28.239  0.00  0.00    -0.070 S 
BRANCH  29  30
ATOM     30  C   UNL     1       4.712  -3.149  27.410  0.00  0.00    +0.266 C 
ATOM     31  O   UNL     1       4.155  -2.218  27.937  0.00  0.00    -0.276 OA
ENDBRANCH  29  30
ENDBRANCH  15  29
TORSDOF 6
REMARK  Name = =
REMARK  8 active torsions:
REMARK  status: ('A' for Active; 'I' for Inactive)
REMARK    1  A    between atoms: C_1  and  C_2
REMARK    2  A    between atoms: C_1  and  C_22
REMARK    3  A    between atoms: C_1  and  O_36
REMARK    4  A    between atoms: C_16  and  S_19
REMARK    5  A    between atoms: S_19  and  C_20
REMARK    6  A    between atoms: C_25  and  O_28
REMARK    7  A    between atoms: O_30  and  O_31
REMARK    8  A    between atoms: C_33  and  O_35
REMARK                            x       y       z     vdW  Elec       q    Type
REMARK                         _______ _______ _______ _____ _____    ______ ____
ROOT
ATOM      1  P   UNL     1      -3.408  -4.469  31.419  0.00  0.00    +0.000 P 
ENDROOT
TORSDOF 0
REMARK  Name = =
REMARK  8 active torsions:
REMARK  status: ('A' for Active; 'I' for Inactive)
REMARK    1  A    between atoms: C_1  and  C_2
REMARK    2  A    between atoms: C_1  and  C_22
REMARK    3  A    between atoms: C_1  and  O_36
REMARK    4  A    between atoms: C_16  and  S_19
REMARK    5  A    between atoms: S_19  and  C_20
REMARK    6  A    between atoms: C_25  and  O_28
REMARK    7  A    between atoms: O_30  and  O_31
REMARK    8  A    between atoms: C_33  and  O_35
REMARK                            x       y       z     vdW  Elec       q    Type
REMARK                         _______ _______ _______ _____ _____    ______ ____
ROOT
ATOM      1  O   UNL     1      -2.401  -3.613  32.181  0.00  0.00    -0.253 OA
ATOM      2  H   UNL     1      -2.093  -3.009  32.874  0.00  0.00    +0.253 HD
ENDROOT
BRANCH   1   3
ATOM      3  O   UNL     1      -2.557  -4.957  32.739  0.00  0.00    -0.253 OA
ATOM      4  H   UNL     1      -2.865  -5.561  32.046  0.00  0.00    +0.253 HD
ENDBRANCH   1   3
TORSDOF 1
REMARK  Name = =
REMARK  8 active torsions:
REMARK  status: ('A' for Active; 'I' for Inactive)
REMARK    1  A    between atoms: C_1  and  C_2
REMARK    2  A    between atoms: C_1  and  C_22
REMARK    3  A    between atoms: C_1  and  O_36
REMARK    4  A    between atoms: C_16  and  S_19
REMARK    5  A    between atoms: S_19  and  C_20
REMARK    6  A    between atoms: C_25  and  O_28
REMARK    7  A    between atoms: O_30  and  O_31
REMARK    8  A    between atoms: C_33  and  O_35
REMARK                            x       y       z     vdW  Elec       q    Type
REMARK                         _______ _______ _______ _____ _____    ______ ____
ROOT
ATOM      1  O   HOH     1      -4.043  -6.016  30.984  0.00  0.00    -0.253 OA
ATOM      2  H   HOH     0      -3.073  -6.016  30.984  0.00  0.00    +0.253 HD
ENDROOT
TORSDOF 0
REMARK  Name = =
REMARK  8 active torsions:
REMARK  status: ('A' for Active; 'I' for Inactive)
REMARK    1  A    between atoms: C_1  and  C_2
REMARK    2  A    between atoms: C_1  and  C_22
REMARK    3  A    between atoms: C_1  and  O_36
REMARK    4  A    between atoms: C_16  and  S_19
REMARK    5  A    between atoms: S_19  and  C_20
REMARK    6  A    between atoms: C_25  and  O_28
REMARK    7  A    between atoms: O_30  and  O_31
REMARK    8  A    between atoms: C_33  and  O_35
REMARK                            x       y       z     vdW  Elec       q    Type
REMARK                         _______ _______ _______ _____ _____    ______ ____
ROOT
ATOM      1  C   UNL     1      -5.035  -3.893  31.805  0.00  0.00    +0.415 C 
ATOM      2  O   UNL     1      -5.479  -3.683  32.963  0.00  0.00    -0.238 OA
ENDROOT
BRANCH   1   3
ATOM      3  O   UNL     1      -5.913  -3.649  30.763  0.00  0.00    -0.473 OA
ATOM      4  H   UNL     1      -5.639  -3.787  29.878  0.00  0.00    +0.296 HD
ENDBRANCH   1   3
TORSDOF 1
