REMARK  Name = =
REMARK  4 active torsions:
REMARK  status: ('A' for Active; 'I' for Inactive)
REMARK    1  A    between atoms: C_1  and  C_18
REMARK    2  A    between atoms: C_1  and  N_23
REMARK    3  A    between atoms: C_3  and  N_30
REMARK    4  A    between atoms: C_35  and  N_36
REMARK                            x       y       z     vdW  Elec       q    Type
REMARK                         _______ _______ _______ _____ _____    ______ ____
ROOT
ATOM      1  C   UNL     1       7.279 -11.632  23.700  0.00  0.00    +0.186 C 
ATOM      2  O   UNL     1       7.178 -10.586  24.591  0.00  0.00    -0.322 OA
ATOM      3  C   UNL     1       6.339 -10.803  25.622  0.00  0.00    +0.209 C 
ATOM      4  C   UNL     1       4.944 -11.050  25.134  0.00  0.00    +0.188 C 
ATOM      5  O   UNL     1       4.038 -11.047  26.149  0.00  0.00    -0.325 OA
ATOM      6  C   UNL     1       2.743 -11.186  25.609  0.00  0.00    +0.264 C 
ATOM      7  O   UNL     1       1.889 -11.313  26.694  0.00  0.00    -0.321 OA
ATOM      8  C   UNL     1       0.596 -11.694  26.341  0.00  0.00    +0.209 C 
ATOM      9  C   UNL     1       0.692 -13.064  25.801  0.00  0.00    +0.183 C 
ATOM     10  O   UNL     1      -0.254 -13.800  25.808  0.00  0.00    -0.293 OA
ATOM     11  C   UNL     1       1.990 -13.507  25.249  0.00  0.00    +0.102 C 
ATOM     12  C   UNL     1       2.641 -12.301  24.646  0.00  0.00    +0.179 C 
ATOM     13  O   UNL     1       3.690 -12.517  23.825  0.00  0.00    -0.350 OA
ATOM     14  C   UNL     1       4.951 -12.319  24.319  0.00  0.00    +0.151 C 
ATOM     15  C   UNL     1       5.910 -12.041  23.174  0.00  0.00    +0.084 C 
ENDROOT
BRANCH   1  18
ATOM     16  F   UNL     1       7.089 -12.667  21.104  0.00  0.00    -0.204 F 
ATOM     17  C   UNL     1       7.868 -11.558  21.238  0.00  0.00    +0.140 C 
ATOM     18  C   UNL     1       8.000 -11.024  22.512  0.00  0.00    +0.048 C 
ATOM     19  C   UNL     1       8.787  -9.915  22.656  0.00  0.00    +0.002 C 
ATOM     20  C   UNL     1       9.427  -9.357  21.546  0.00  0.00    -0.000 C 
ATOM     21  C   UNL     1       9.288  -9.895  20.285  0.00  0.00    +0.002 C 
ATOM     22  C   UNL     1       8.493 -11.014  20.144  0.00  0.00    +0.029 C 
ENDBRANCH   1  18
BRANCH   1  23
ATOM     23  N   UNL     1       8.045 -12.766  24.123  0.00  0.00    -0.206 N 
ATOM     24  C   UNL     1       7.790 -14.175  23.899  0.00  0.00    +0.234 C 
ATOM     25  O   UNL     1       7.300 -14.662  22.852  0.00  0.00    -0.274 OA
ATOM     26  C   UNL     1       8.226 -14.855  25.134  0.00  0.00    +0.095 C 
ATOM     27  C   UNL     1       9.304 -13.999  25.692  0.00  0.00    +0.095 C 
ATOM     28  C   UNL     1       9.281 -12.762  24.882  0.00  0.00    +0.234 C 
ATOM     29  O   UNL     1      10.171 -11.897  24.871  0.00  0.00    -0.274 OA
ENDBRANCH   1  23
BRANCH   3  30
ATOM     30  N   UNL     1       6.290  -9.741  26.586  0.00  0.00    -0.231 NA
ATOM     31  C   UNL     1       6.454 -10.065  27.937  0.00  0.00    +0.095 C 
ATOM     32  C   UNL     1       7.415  -9.140  28.673  0.00  0.00    +0.106 C 
ATOM     33  N   UNL     1       8.431  -8.638  27.796  0.00  0.00    -0.213 NA
ATOM     34  C   UNL     1       7.822  -7.835  26.760  0.00  0.00    +0.126 C 
ATOM     35  C   UNL     1       6.603  -8.442  26.152  0.00  0.00    +0.160 C 
BRANCH  35  36
ATOM     36  N   UNL     1       5.461  -7.593  26.413  0.00  0.00    -0.237 N 
ATOM     37  C   UNL     1       5.337  -6.589  27.286  0.00  0.00    +0.193 C 
ATOM     38  N   UNL     1       4.090  -6.112  27.158  0.00  0.00    -0.128 NA
ATOM     39  N   UNL     1       3.434  -6.787  26.235  0.00  0.00    -0.128 NA
ATOM     40  C   UNL     1       4.288  -7.711  25.770  0.00  0.00    +0.193 C 
ENDBRANCH  35  36
ENDBRANCH   3  30
TORSDOF 4
