REMARK  Name = =
REMARK  5 active torsions:
REMARK  status: ('A' for Active; 'I' for Inactive)
REMARK    1  A    between atoms: C_1  and  C_36
REMARK    2  A    between atoms: C_6  and  C_45
REMARK    3  A    between atoms: C_8  and  N_12
REMARK    4  A    between atoms: C_29  and  C_40
REMARK    5  A    between atoms: C_37  and  N_38
REMARK                            x       y       z     vdW  Elec       q    Type
REMARK                         _______ _______ _______ _____ _____    ______ ____
ROOT
ATOM      1  C   UNL     1     -10.652  -6.257  20.826  0.00  0.00    +0.182 C 
ATOM      2  C   UNL     1      -9.846  -6.314  22.084  0.00  0.00    +0.225 C 
ATOM      3  O   UNL     1      -9.073  -5.193  22.345  0.00  0.00    -0.447 OA
ATOM      4  C   UNL     1      -9.304  -3.873  22.237  0.00  0.00    +0.322 C 
ATOM      5  O   UNL     1      -8.602  -3.139  21.495  0.00  0.00    -0.250 OA
ATOM      6  C   UNL     1     -10.400  -3.220  22.993  0.00  0.00    +0.145 C 
ATOM      7  C   UNL     1     -11.707  -3.211  22.239  0.00  0.00    +0.087 C 
ATOM      8  C   UNL     1     -12.571  -4.398  22.611  0.00  0.00    +0.276 C 
ATOM      9  O   UNL     1     -12.784  -5.155  21.446  0.00  0.00    -0.429 OA
ATOM     10  C   UNL     1     -12.117  -6.273  21.028  0.00  0.00    +0.327 C 
ATOM     11  O   UNL     1     -12.742  -7.348  20.802  0.00  0.00    -0.250 OA
ENDROOT
BRANCH   8  12
ATOM     12  N   UNL     1     -13.839  -3.981  23.156  0.00  0.00    -0.215 N 
ATOM     13  N   UNL     1     -14.450  -2.814  22.877  0.00  0.00    -0.166 NA
ATOM     14  C   UNL     1     -15.610  -2.747  23.554  0.00  0.00    +0.103 A 
ATOM     15  C   UNL     1     -16.685  -1.763  23.662  0.00  0.00    +0.022 C 
ATOM     16  C   UNL     1     -17.745  -2.081  24.494  0.00  0.00    +0.040 C 
ATOM     17  C   UNL     1     -17.843  -3.329  25.255  0.00  0.00    +0.196 C 
ATOM     18  O   UNL     1     -18.785  -3.626  26.002  0.00  0.00    -0.287 OA
ATOM     19  C   UNL     1     -16.725  -4.272  25.099  0.00  0.00    +0.042 C 
ATOM     20  C   UNL     1     -15.692  -3.919  24.264  0.00  0.00    +0.040 A 
ATOM     21  C   UNL     1     -14.584  -4.701  24.021  0.00  0.00    +0.083 A 
ATOM     22  C   UNL     1     -14.497  -5.927  24.659  0.00  0.00    +0.019 C 
ATOM     23  C   UNL     1     -15.530  -6.297  25.503  0.00  0.00    +0.002 C 
ATOM     24  C   UNL     1     -16.649  -5.492  25.738  0.00  0.00    +0.003 C 
ATOM     25  C   UNL     1     -18.752  -1.144  24.587  0.00  0.00    +0.003 C 
ATOM     26  C   UNL     1     -18.704   0.050  23.887  0.00  0.00    +0.000 C 
ATOM     27  C   UNL     1     -17.636   0.351  23.058  0.00  0.00    +0.000 C 
ATOM     28  C   UNL     1     -16.631  -0.578  22.962  0.00  0.00    +0.002 C 
ENDBRANCH   8  12
BRANCH   1  36
ATOM     29  C   UNL     1      -9.081 -11.860  18.152  0.00  0.00    +0.024 C 
ATOM     30  C   UNL     1      -9.116 -10.596  17.612  0.00  0.00    +0.078 C 
ATOM     31  C   UNL     1      -9.485  -9.482  18.345  0.00  0.00    +0.096 C 
ATOM     32  C   UNL     1      -9.823  -9.699  19.665  0.00  0.00    +0.176 C 
ATOM     33  N   UNL     1      -9.788 -10.948  20.196  0.00  0.00    -0.224 NA
ATOM     34  C   UNL     1      -9.428 -12.026  19.475  0.00  0.00    +0.098 C 
ATOM     35  N   UNL     1     -10.184  -8.630  20.395  0.00  0.00    -0.230 NA
ATOM     36  C   UNL     1     -10.230  -7.378  19.907  0.00  0.00    +0.089 C 
ATOM     37  C   UNL     1      -9.896  -7.171  18.602  0.00  0.00    +0.193 C 
ATOM     38  N   UNL     1      -9.527  -8.236  17.841  0.00  0.00    -0.251 NA
BRANCH  29  39
ATOM     39  C   UNL     1      -8.686 -13.023  17.344  0.00  0.00    +0.120 C 
ATOM     40  N   UNL     1      -8.398 -13.073  16.044  0.00  0.00    -0.204 NA
ATOM     41  C   UNL     1      -8.090 -14.346  15.745  0.00  0.00    +0.285 C 
ATOM     42  O   UNL     1      -8.177 -15.104  16.831  0.00  0.00    -0.428 OA
ATOM     43  C   UNL     1      -8.541 -14.304  17.814  0.00  0.00    +0.200 C 
ENDBRANCH  29  39
BRANCH  37  44
ATOM     44  N   UNL     1      -9.938  -5.861  18.065  0.00  0.00    -0.299 NA
ATOM     45  H   UNL     1     -10.236  -5.206  18.788  0.00  0.00    +0.121 HD
ATOM     46  H   UNL     1     -10.598  -5.833  17.288  0.00  0.00    +0.121 HD
ENDBRANCH  37  44
ENDBRANCH   1  36
BRANCH   6  47
ATOM     47  C   UNL     1     -10.590  -3.878  24.334  0.00  0.00    +0.073 C 
ATOM     48  N   UNL     1     -10.033  -3.412  25.385  0.00  0.00    -0.301 NA
ATOM     49  H   UNL     1     -10.169  -3.857  26.253  0.00  0.00    +0.186 HD
ENDBRANCH   6  47
TORSDOF 5
