REMARK  Name = =
REMARK  5 active torsions:
REMARK  status: ('A' for Active; 'I' for Inactive)
REMARK    1  A    between atoms: C_4  and  O_18
REMARK    2  A    between atoms: C_5  and  O_17
REMARK    3  A    between atoms: C_7  and  C_11
REMARK    4  A    between atoms: C_12  and  C_14
REMARK    5  A    between atoms: C_14  and  O_16
REMARK                            x       y       z     vdW  Elec       q    Type
REMARK                         _______ _______ _______ _____ _____    ______ ____
ROOT
ATOM      1  C   UNL     1      49.323 160.217  30.726  0.00  0.00    -0.005 C 
ATOM      2  C   UNL     1      50.337 159.324  30.375  0.00  0.00    -0.016 C 
ATOM      3  C   UNL     1      51.607 159.637  30.732  0.00  0.00    +0.036 C 
ATOM      4  C   UNL     1      51.885 160.814  31.426  0.00  0.00    +0.167 C 
ATOM      5  C   UNL     1      50.876 161.687  31.765  0.00  0.00    +0.167 C 
ATOM      6  C   UNL     1      49.573 161.373  31.403  0.00  0.00    +0.037 C 
ATOM      7  C   UNL     1      49.889 158.137  29.655  0.00  0.00    +0.067 C 
ATOM      8  C   UNL     1      48.705 157.499  30.352  0.00  0.00    +0.098 C 
ATOM      9  N   UNL     1      47.641 158.447  30.588  0.00  0.00    -0.213 NA
ATOM     10  C   UNL     1      47.957 159.810  30.309  0.00  0.00    +0.115 C 
ENDROOT
BRANCH   7  11
ATOM     11  C   UNL     1      50.902 157.104  29.396  0.00  0.00    +0.019 C 
ATOM     12  C   UNL     1      50.697 155.816  29.538  0.00  0.00    +0.084 C 
ATOM     13  I   UNL     1      52.793 157.743  28.749  0.00  0.00    -0.047 I 
BRANCH  12  14
ATOM     14  C   UNL     1      51.757 154.873  29.258  0.00  0.00    +0.338 C 
ATOM     15  O   UNL     1      51.541 153.629  29.458  0.00  0.00    -0.245 OA
BRANCH  14  16
ATOM     16  O   UNL     1      53.001 155.247  28.782  0.00  0.00    -0.477 OA
ATOM     17  H   UNL     1      53.190 156.151  28.625  0.00  0.00    +0.295 HD
ENDBRANCH  14  16
ENDBRANCH  12  14
ENDBRANCH   7  11
BRANCH   5  18
ATOM     18  O   UNL     1      51.168 162.861  32.459  0.00  0.00    -0.503 OA
ATOM     19  H   UNL     1      52.053 163.058  32.696  0.00  0.00    +0.292 HD
ENDBRANCH   5  18
BRANCH   4  20
ATOM     20  O   UNL     1      53.196 161.106  31.777  0.00  0.00    -0.503 OA
ATOM     21  H   UNL     1      53.885 160.514  31.548  0.00  0.00    +0.292 HD
ENDBRANCH   4  20
TORSDOF 5
