REMARK  Name = =
REMARK  6 active torsions:
REMARK  status: ('A' for Active; 'I' for Inactive)
REMARK    1  A    between atoms: C_1  and  C_10
REMARK    2  A    between atoms: C_4  and  O_20
REMARK    3  A    between atoms: C_8  and  N_13
REMARK    4  A    between atoms: O_20  and  C_21
REMARK    5  A    between atoms: C_23  and  O_29
REMARK    6  A    between atoms: C_24  and  C_27
REMARK                            x       y       z     vdW  Elec       q    Type
REMARK                         _______ _______ _______ _____ _____    ______ ____
ROOT
ATOM      1  C   UNL     1     -17.284 -42.114  26.023  0.00  0.00    -0.030 C 
ATOM      2  C   UNL     1     -17.726 -41.886  27.249  0.00  0.00    -0.027 C 
ATOM      3  C   UNL     1     -19.185 -41.573  27.478  0.00  0.00    +0.069 C 
ATOM      4  C   UNL     1     -20.080 -42.491  26.674  0.00  0.00    +0.171 C 
ATOM      5  C   UNL     1     -19.556 -42.789  25.291  0.00  0.00    +0.049 C 
ATOM      6  C   UNL     1     -18.276 -42.047  24.951  0.00  0.00    +0.029 C 
ENDROOT
BRANCH   1  10
ATOM      7  O   UNL     1     -13.191 -42.775  25.301  0.00  0.00    -0.332 OA
ATOM      8  C   UNL     1     -13.729 -43.152  26.532  0.00  0.00    +0.200 C 
ATOM      9  C   UNL     1     -14.852 -42.193  26.830  0.00  0.00    +0.077 C 
ATOM     10  C   UNL     1     -15.894 -42.417  25.771  0.00  0.00    -0.024 C 
ATOM     11  C   UNL     1     -15.500 -42.891  24.629  0.00  0.00    +0.001 C 
ATOM     12  C   UNL     1     -14.071 -43.218  24.334  0.00  0.00    +0.170 C 
BRANCH   8  13
ATOM     13  N   UNL     1     -12.748 -43.165  27.578  0.00  0.00    -0.232 N 
ATOM     14  C   UNL     1     -11.838 -42.122  28.015  0.00  0.00    +0.183 C 
ATOM     15  C   UNL     1     -10.644 -42.913  28.405  0.00  0.00    +0.250 C 
ATOM     16  O   UNL     1      -9.437 -42.595  28.281  0.00  0.00    -0.273 OA
ATOM     17  N   UNL     1     -11.145 -44.122  28.956  0.00  0.00    -0.238 N 
ATOM     18  C   UNL     1     -12.474 -44.273  28.427  0.00  0.00    +0.312 C 
ATOM     19  O   UNL     1     -13.265 -45.230  28.678  0.00  0.00    -0.252 OA
ATOM     20  H   UNL     1     -10.679 -44.731  29.573  0.00  0.00    +0.159 HD
ENDBRANCH   8  13
ENDBRANCH   1  10
BRANCH   4  21
ATOM     21  O   UNL     1     -21.354 -41.912  26.648  0.00  0.00    -0.479 OA
BRANCH  21  22
ATOM     22  C   UNL     1     -22.480 -42.290  27.324  0.00  0.00    +0.141 C 
ATOM     23  C   UNL     1     -22.519 -43.353  28.188  0.00  0.00    +0.074 C 
ATOM     24  C   UNL     1     -23.701 -43.689  28.848  0.00  0.00    +0.140 C 
ATOM     25  C   UNL     1     -24.868 -42.988  28.675  0.00  0.00    +0.076 C 
ATOM     26  C   UNL     1     -24.828 -41.918  27.805  0.00  0.00    +0.009 C 
ATOM     27  C   UNL     1     -23.675 -41.575  27.147  0.00  0.00    +0.037 C 
BRANCH  25  28
ATOM     28  C   UNL     1     -26.071 -43.378  29.386  0.00  0.00    +0.237 C 
ATOM     29  O   UNL     1     -26.036 -44.352  30.173  0.00  0.00    -0.283 OA
ENDBRANCH  25  28
BRANCH  24  30
ATOM     30  O   UNL     1     -23.730 -44.769  29.721  0.00  0.00    -0.505 OA
ATOM     31  H   UNL     1     -22.954 -45.274  29.867  0.00  0.00    +0.292 HD
ENDBRANCH  24  30
ENDBRANCH  21  22
ENDBRANCH   4  21
TORSDOF 6
