REMARK  Name = =
REMARK  7 active torsions:
REMARK  status: ('A' for Active; 'I' for Inactive)
REMARK    1  A    between atoms: C_1  and  C_10
REMARK    2  A    between atoms: C_4  and  O_20
REMARK    3  A    between atoms: C_8  and  N_13
REMARK    4  A    between atoms: O_20  and  C_21
REMARK    5  A    between atoms: C_23  and  O_34
REMARK    6  A    between atoms: C_24  and  C_32
REMARK    7  A    between atoms: C_25  and  C_27
REMARK                            x       y       z     vdW  Elec       q    Type
REMARK                         _______ _______ _______ _____ _____    ______ ____
ROOT
ATOM      1  C   UNL     1     -18.712 -41.541  25.627  0.00  0.00    -0.030 C 
ATOM      2  C   UNL     1     -18.500 -41.447  26.944  0.00  0.00    -0.027 C 
ATOM      3  C   UNL     1     -17.129 -41.201  27.440  0.00  0.00    +0.069 C 
ATOM      4  C   UNL     1     -16.055 -41.980  26.708  0.00  0.00    +0.171 C 
ATOM      5  C   UNL     1     -16.523 -42.457  25.332  0.00  0.00    +0.049 C 
ATOM      6  C   UNL     1     -17.492 -41.390  24.803  0.00  0.00    +0.029 C 
ENDROOT
BRANCH   1  10
ATOM      7  O   UNL     1     -22.649 -41.968  24.097  0.00  0.00    -0.332 OA
ATOM      8  C   UNL     1     -22.517 -42.007  25.454  0.00  0.00    +0.200 C 
ATOM      9  C   UNL     1     -21.205 -41.612  26.020  0.00  0.00    +0.077 C 
ATOM     10  C   UNL     1     -20.042 -41.780  25.109  0.00  0.00    -0.024 C 
ATOM     11  C   UNL     1     -20.261 -42.133  23.877  0.00  0.00    +0.001 C 
ATOM     12  C   UNL     1     -21.601 -42.374  23.335  0.00  0.00    +0.170 C 
BRANCH   8  13
ATOM     13  N   UNL     1     -23.014 -43.269  26.022  0.00  0.00    -0.232 N 
ATOM     14  C   UNL     1     -22.618 -44.631  25.682  0.00  0.00    +0.183 C 
ATOM     15  C   UNL     1     -23.783 -45.454  26.056  0.00  0.00    +0.250 C 
ATOM     16  O   UNL     1     -24.095 -46.552  25.562  0.00  0.00    -0.273 OA
ATOM     17  N   UNL     1     -24.477 -44.769  27.073  0.00  0.00    -0.238 N 
ATOM     18  C   UNL     1     -24.003 -43.437  27.048  0.00  0.00    +0.312 C 
ATOM     19  O   UNL     1     -24.402 -42.532  27.824  0.00  0.00    -0.252 OA
ATOM     20  H   UNL     1     -25.156 -45.143  27.680  0.00  0.00    +0.159 HD
ENDBRANCH   8  13
ENDBRANCH   1  10
BRANCH   4  21
ATOM     21  O   UNL     1     -15.561 -43.034  27.469  0.00  0.00    -0.479 OA
BRANCH  21  22
ATOM     22  C   UNL     1     -14.235 -43.213  27.788  0.00  0.00    +0.141 C 
ATOM     23  C   UNL     1     -13.206 -42.424  27.393  0.00  0.00    +0.074 C 
ATOM     24  C   UNL     1     -11.878 -42.652  27.744  0.00  0.00    +0.140 C 
ATOM     25  C   UNL     1     -11.567 -43.738  28.538  0.00  0.00    +0.077 C 
ATOM     26  C   UNL     1     -12.573 -44.570  28.968  0.00  0.00    +0.043 C 
ATOM     27  C   UNL     1     -13.888 -44.305  28.592  0.00  0.00    +0.038 C 
BRANCH  26  28
ATOM     28  C   UNL     1     -12.349 -45.726  29.883  0.00  0.00    +0.260 C 
ATOM     29  O   UNL     1     -13.540 -45.804  30.671  0.00  0.00    -0.324 OA
ATOM     30  C   UNL     1     -13.444 -44.792  31.595  0.00  0.00    +0.177 C 
ATOM     31  C   UNL     1     -11.941 -44.684  31.809  0.00  0.00    +0.177 C 
ATOM     32  O   UNL     1     -11.380 -45.491  30.826  0.00  0.00    -0.324 OA
ENDBRANCH  26  28
BRANCH  25  33
ATOM     33  C   UNL     1     -10.174 -43.995  28.865  0.00  0.00    +0.237 C 
ATOM     34  O   UNL     1      -9.275 -43.238  28.461  0.00  0.00    -0.283 OA
ENDBRANCH  25  33
BRANCH  24  35
ATOM     35  O   UNL     1     -10.951 -41.769  27.271  0.00  0.00    -0.505 OA
ATOM     36  H   UNL     1     -11.220 -41.049  26.735  0.00  0.00    +0.292 HD
ENDBRANCH  24  35
ENDBRANCH  21  22
ENDBRANCH   4  21
TORSDOF 7
