REMARK  Name = =
REMARK  0 active torsions:
REMARK  status: ('A' for Active; 'I' for Inactive)
REMARK                            x       y       z     vdW  Elec       q    Type
REMARK                         _______ _______ _______ _____ _____    ______ ____
ROOT
ATOM      1  N   UNL     1      -4.808  -3.698  30.319  0.00  0.00    -0.295 NA
ATOM      2  C   UNL     1      -3.460  -3.475  30.743  0.00  0.00    +0.086 C 
ATOM      3  C   UNL     1      -4.141  -4.807  30.948  0.00  0.00    +0.086 C 
ATOM      4  H   UNL     1      -5.019  -3.741  29.322  0.00  0.00    +0.123 HD
ENDROOT
TORSDOF 0
