REMARK  Name = =
REMARK  0 active torsions:
REMARK  status: ('A' for Active; 'I' for Inactive)
REMARK                            x       y       z     vdW  Elec       q    Type
REMARK                         _______ _______ _______ _____ _____    ______ ____
ROOT
ATOM      1  C   UNL     1      -4.416  -3.641  30.687  0.00  0.00    +0.174 C 
ATOM      2  C   UNL     1      -3.087  -3.297  30.041  0.00  0.00    +0.174 C 
ATOM      3  O   UNL     1      -4.058  -4.055  29.406  0.00  0.00    -0.348 OA
ENDROOT
TORSDOF 0
