REMARK  Name = =
REMARK  1 active torsions:
REMARK  status: ('A' for Active; 'I' for Inactive)
REMARK    1  A    between atoms: N_1  and  N_10
REMARK                            x       y       z     vdW  Elec       q    Type
REMARK                         _______ _______ _______ _____ _____    ______ ____
ROOT
ATOM      1  N   UNL     1      -5.353  -1.581  31.691  0.00  0.00    -0.151 N 
ATOM      2  C   UNL     1      -6.309  -2.599  31.964  0.00  0.00    +0.329 C 
ATOM      3  O   UNL     1      -5.936  -3.784  31.999  0.00  0.00    -0.250 OA
ATOM      4  N   UNL     1      -7.669  -2.300  32.193  0.00  0.00    -0.238 N 
ATOM      5  C   UNL     1      -8.134  -0.976  32.162  0.00  0.00    +0.239 C 
ATOM      6  O   UNL     1      -9.324  -0.671  32.490  0.00  0.00    -0.274 OA
ATOM      7  C   UNL     1      -7.258   0.122  31.747  0.00  0.00    +0.172 C 
ATOM      8  C   UNL     1      -5.837  -0.243  31.663  0.00  0.00    +0.255 C 
ATOM      9  O   UNL     1      -5.001   0.690  31.561  0.00  0.00    -0.273 OA
ATOM     10  H   UNL     1      -8.302  -3.032  32.377  0.00  0.00    +0.159 HD
ENDROOT
BRANCH   1  11
ATOM     11  N   UNL     1      -4.023  -1.808  31.451  0.00  0.00    -0.192 NA
ATOM     12  C   UNL     1      -3.388  -3.076  31.517  0.00  0.00    +0.112 C 
ATOM     13  C   UNL     1      -3.575  -2.363  30.193  0.00  0.00    +0.112 C 
ENDBRANCH   1  11
TORSDOF 1
