REMARK  Name = =
REMARK  1 active torsions:
REMARK  status: ('A' for Active; 'I' for Inactive)
REMARK    1  A    between atoms: N_1  and  N_15
REMARK                            x       y       z     vdW  Elec       q    Type
REMARK                         _______ _______ _______ _____ _____    ______ ____
ROOT
ATOM      1  N   UNL     1      -5.403  -1.409  31.515  0.00  0.00    -0.151 N 
ATOM      2  C   UNL     1      -6.651  -2.013  31.824  0.00  0.00    +0.337 C 
ATOM      3  O   UNL     1      -6.634  -3.245  32.007  0.00  0.00    -0.250 OA
ATOM      4  N   UNL     1      -7.866  -1.305  31.929  0.00  0.00    -0.176 N 
ATOM      5  C   UNL     1      -9.131  -1.914  32.276  0.00  0.00    +0.148 C 
ATOM      6  N   UNL     1     -10.255  -1.277  32.326  0.00  0.00    -0.211 NA
ATOM      7  C   UNL     1     -11.314  -2.183  32.704  0.00  0.00    +0.196 C 
ATOM      8  N   UNL     1     -10.648  -3.428  32.875  0.00  0.00    -0.242 NA
ATOM      9  C   UNL     1      -9.407  -3.296  32.632  0.00  0.00    +0.189 C 
ATOM     10  C   UNL     1      -7.819   0.104  31.704  0.00  0.00    +0.247 C 
ATOM     11  O   UNL     1      -8.905   0.766  31.784  0.00  0.00    -0.274 OA
ATOM     12  C   UNL     1      -6.584   0.840  31.385  0.00  0.00    +0.173 C 
ATOM     13  C   UNL     1      -5.375  -0.001  31.303  0.00  0.00    +0.255 C 
ATOM     14  O   UNL     1      -4.251   0.574  31.029  0.00  0.00    -0.273 OA
ENDROOT
BRANCH   1  15
ATOM     15  N   UNL     1      -4.216  -2.083  31.377  0.00  0.00    -0.192 NA
ATOM     16  C   UNL     1      -3.832  -3.206  32.166  0.00  0.00    +0.112 C 
ATOM     17  C   UNL     1      -4.084  -3.296  30.651  0.00  0.00    +0.112 C 
ENDBRANCH   1  15
TORSDOF 1
