REMARK  Name = =
REMARK  3 active torsions:
REMARK  status: ('A' for Active; 'I' for Inactive)
REMARK    1  A    between atoms: N_1  and  N_4
REMARK    2  A    between atoms: C_3  and  C_18
REMARK    3  A    between atoms: C_26  and  O_28
REMARK                            x       y       z     vdW  Elec       q    Type
REMARK                         _______ _______ _______ _____ _____    ______ ____
ROOT
ATOM      1  N   UNL     1      -4.489  -2.840  31.341  0.00  0.00    -0.193 NA
ATOM      2  C   UNL     1      -3.197  -3.020  31.844  0.00  0.00    +0.111 C 
ATOM      3  C   UNL     1      -3.679  -3.495  30.468  0.00  0.00    +0.098 C 
ENDROOT
BRANCH   1   4
ATOM      4  N   UNL     1      -5.380  -1.889  31.451  0.00  0.00    -0.151 N 
ATOM      5  C   UNL     1      -6.736  -2.276  31.782  0.00  0.00    +0.337 C 
ATOM      6  O   UNL     1      -6.966  -3.528  31.944  0.00  0.00    -0.250 OA
ATOM      7  N   UNL     1      -7.816  -1.395  31.938  0.00  0.00    -0.176 N 
ATOM      8  C   UNL     1      -9.146  -1.815  32.268  0.00  0.00    +0.148 C 
ATOM      9  N   UNL     1     -10.157  -1.053  32.420  0.00  0.00    -0.211 NA
ATOM     10  C   UNL     1     -11.342  -1.792  32.747  0.00  0.00    +0.196 C 
ATOM     11  N   UNL     1     -10.878  -3.159  32.770  0.00  0.00    -0.242 NA
ATOM     12  C   UNL     1      -9.604  -3.162  32.492  0.00  0.00    +0.189 C 
ATOM     13  C   UNL     1      -7.559   0.010  31.754  0.00  0.00    +0.247 C 
ATOM     14  O   UNL     1      -8.501   0.809  31.573  0.00  0.00    -0.274 OA
ATOM     15  C   UNL     1      -6.189   0.506  31.780  0.00  0.00    +0.173 C 
ATOM     16  C   UNL     1      -5.203  -0.480  31.286  0.00  0.00    +0.255 C 
ATOM     17  O   UNL     1      -4.188  -0.045  30.708  0.00  0.00    -0.273 OA
ENDBRANCH   1   4
BRANCH   3  18
ATOM     18  C   UNL     1      -2.978  -3.051  29.258  0.00  0.00    +0.040 C 
ATOM     19  C   UNL     1      -2.246  -1.707  29.453  0.00  0.00    +0.006 C 
ATOM     20  C   UNL     1      -1.797  -1.151  28.142  0.00  0.00    +0.005 C 
ATOM     21  C   UNL     1      -1.619  -2.150  27.039  0.00  0.00    +0.026 C 
ATOM     22  C   UNL     1      -1.193  -3.444  27.683  0.00  0.00    -0.023 C 
ATOM     23  C   UNL     1      -1.859  -3.915  28.799  0.00  0.00    -0.025 C 
ATOM     24  C   UNL     1      -1.491  -5.083  29.406  0.00  0.00    -0.001 C 
ATOM     25  C   UNL     1      -0.425  -5.820  28.893  0.00  0.00    +0.036 C 
ATOM     26  C   UNL     1       0.267  -5.379  27.774  0.00  0.00    +0.133 C 
ATOM     27  C   UNL     1      -0.142  -4.186  27.190  0.00  0.00    +0.032 C 
BRANCH  26  28
ATOM     28  O   UNL     1       1.325  -6.127  27.279  0.00  0.00    -0.506 OA
ATOM     29  H   UNL     1       1.571  -6.927  27.701  0.00  0.00    +0.292 HD
ENDBRANCH  26  28
ENDBRANCH   3  18
TORSDOF 3
