REMARK  Name = =
REMARK  4 active torsions:
REMARK  status: ('A' for Active; 'I' for Inactive)
REMARK    1  A    between atoms: N_1  and  N_19
REMARK    2  A    between atoms: C_7  and  C_15
REMARK    3  A    between atoms: C_21  and  C_22
REMARK    4  A    between atoms: C_30  and  O_32
REMARK                            x       y       z     vdW  Elec       q    Type
REMARK                         _______ _______ _______ _____ _____    ______ ____
ROOT
ATOM      1  N   UNL     1      -4.813  -3.007  31.952  0.00  0.00    -0.151 N 
ATOM      2  C   UNL     1      -5.632  -1.968  31.472  0.00  0.00    +0.338 C 
ATOM      3  O   UNL     1      -5.233  -1.260  30.511  0.00  0.00    -0.250 OA
ATOM      4  N   UNL     1      -6.901  -1.730  32.076  0.00  0.00    -0.173 N 
ATOM      5  C   UNL     1      -7.725  -0.675  31.586  0.00  0.00    +0.161 C 
ATOM      6  N   UNL     1      -7.464   0.124  30.613  0.00  0.00    -0.232 NA
ATOM      7  C   UNL     1      -8.550   1.073  30.408  0.00  0.00    +0.206 C 
ATOM      8  N   UNL     1      -9.498   0.709  31.421  0.00  0.00    -0.244 NA
ATOM      9  C   UNL     1      -9.020  -0.303  32.103  0.00  0.00    +0.130 C 
ATOM     10  C   UNL     1      -7.353  -2.532  33.162  0.00  0.00    +0.247 C 
ATOM     11  O   UNL     1      -8.565  -2.698  33.405  0.00  0.00    -0.274 OA
ATOM     12  C   UNL     1      -6.287  -3.179  34.013  0.00  0.00    +0.173 C 
ATOM     13  C   UNL     1      -5.302  -3.796  33.052  0.00  0.00    +0.255 C 
ATOM     14  O   UNL     1      -4.906  -4.976  33.196  0.00  0.00    -0.273 OA
ENDROOT
BRANCH   7  15
ATOM     15  C   UNL     1      -9.091   0.820  29.018  0.00  0.00    +0.046 C 
ATOM     16  C   UNL     1      -9.371  -0.640  28.728  0.00  0.00    +0.004 C 
ATOM     17  C   UNL     1     -10.811  -0.387  29.119  0.00  0.00    +0.000 C 
ATOM     18  C   UNL     1     -10.563   1.093  28.836  0.00  0.00    +0.004 C 
ENDBRANCH   7  15
BRANCH   1  19
ATOM     19  N   UNL     1      -3.544  -3.291  31.400  0.00  0.00    -0.193 NA
ATOM     20  C   UNL     1      -3.541  -4.354  30.322  0.00  0.00    +0.111 C 
ATOM     21  C   UNL     1      -3.249  -2.974  30.046  0.00  0.00    +0.098 C 
BRANCH  21  22
ATOM     22  C   UNL     1      -1.944  -2.412  29.572  0.00  0.00    +0.040 C 
ATOM     23  C   UNL     1      -2.327  -1.322  28.595  0.00  0.00    +0.006 C 
ATOM     24  C   UNL     1      -1.115  -0.632  28.017  0.00  0.00    +0.005 C 
ATOM     25  C   UNL     1      -0.269  -1.569  27.235  0.00  0.00    +0.026 C 
ATOM     26  C   UNL     1      -0.272  -2.954  27.844  0.00  0.00    -0.023 C 
ATOM     27  C   UNL     1      -1.018  -3.352  28.913  0.00  0.00    -0.025 C 
ATOM     28  C   UNL     1      -0.888  -4.655  29.370  0.00  0.00    -0.001 C 
ATOM     29  C   UNL     1      -0.034  -5.529  28.767  0.00  0.00    +0.036 C 
ATOM     30  C   UNL     1       0.729  -5.157  27.689  0.00  0.00    +0.133 C 
ATOM     31  C   UNL     1       0.606  -3.873  27.235  0.00  0.00    +0.032 C 
BRANCH  30  32
ATOM     32  O   UNL     1       1.590  -6.087  27.106  0.00  0.00    -0.506 OA
ATOM     33  H   UNL     1       1.642  -6.957  27.450  0.00  0.00    +0.292 HD
ENDBRANCH  30  32
ENDBRANCH  21  22
ENDBRANCH   1  19
TORSDOF 4
