REMARK  Name = =
REMARK  5 active torsions:
REMARK  status: ('A' for Active; 'I' for Inactive)
REMARK    1  A    between atoms: C_1  and  C_7
REMARK    2  A    between atoms: C_4  and  O_16
REMARK    3  A    between atoms: C_7  and  O_9
REMARK    4  A    between atoms: O_9  and  C_10
REMARK    5  A    between atoms: O_16  and  C_17
REMARK                            x       y       z     vdW  Elec       q    Type
REMARK                         _______ _______ _______ _____ _____    ______ ____
ROOT
ATOM      1  C   UNL     1     -16.838 -41.795  25.448  0.00  0.00    +0.076 C 
ATOM      2  C   UNL     1     -15.496 -42.058  25.450  0.00  0.00    +0.010 C 
ATOM      3  C   UNL     1     -14.924 -42.539  26.609  0.00  0.00    +0.038 C 
ATOM      4  C   UNL     1     -15.682 -42.753  27.740  0.00  0.00    +0.147 C 
ATOM      5  C   UNL     1     -17.034 -42.494  27.757  0.00  0.00    +0.038 C 
ATOM      6  C   UNL     1     -17.586 -42.012  26.586  0.00  0.00    +0.010 C 
ENDROOT
BRANCH   1   7
ATOM      7  C   UNL     1     -17.482 -41.285  24.244  0.00  0.00    +0.346 C 
ATOM      8  O   UNL     1     -16.828 -41.183  23.176  0.00  0.00    -0.244 OA
BRANCH   7   9
ATOM      9  O   UNL     1     -18.812 -40.901  24.225  0.00  0.00    -0.421 OA
BRANCH   9  10
ATOM     10  C   UNL     1     -19.415 -40.658  22.999  0.00  0.00    +0.149 C 
ATOM     11  C   UNL     1     -19.998 -41.694  22.286  0.00  0.00    +0.038 C 
ATOM     12  C   UNL     1     -20.608 -41.482  21.057  0.00  0.00    +0.003 C 
ATOM     13  C   UNL     1     -20.639 -40.211  20.524  0.00  0.00    +0.000 C 
ATOM     14  C   UNL     1     -20.062 -39.148  21.215  0.00  0.00    +0.003 C 
ATOM     15  C   UNL     1     -19.473 -39.403  22.420  0.00  0.00    +0.038 C 
ENDBRANCH   9  10
ENDBRANCH   7   9
ENDBRANCH   1   7
BRANCH   4  16
ATOM     16  O   UNL     1     -15.059 -43.245  28.900  0.00  0.00    -0.436 OA
BRANCH  16  17
ATOM     17  C   UNL     1     -13.752 -43.731  28.830  0.00  0.00    +0.231 C 
ATOM     18  N   UNL     1     -12.693 -43.062  29.279  0.00  0.00    -0.192 NA
ATOM     19  C   UNL     1     -11.426 -43.541  29.208  0.00  0.00    +0.165 C 
ATOM     20  N   UNL     1     -10.385 -42.814  29.683  0.00  0.00    -0.225 NA
ATOM     21  C   UNL     1      -9.153 -43.335  29.587  0.00  0.00    +0.101 C 
ATOM     22  C   UNL     1      -8.923 -44.566  29.028  0.00  0.00    +0.021 C 
ATOM     23  C   UNL     1      -9.985 -45.312  28.541  0.00  0.00    +0.005 C 
ATOM     24  C   UNL     1     -11.267 -44.781  28.636  0.00  0.00    +0.036 C 
ATOM     25  C   UNL     1     -12.327 -45.532  28.147  0.00  0.00    +0.008 C 
ATOM     26  C   UNL     1     -13.588 -44.984  28.253  0.00  0.00    +0.058 C 
ENDBRANCH  16  17
ENDBRANCH   4  16
TORSDOF 5
