REMARK  Name = =
REMARK  10 active torsions:
REMARK  status: ('A' for Active; 'I' for Inactive)
REMARK    1  A    between atoms: C_1  and  C_7
REMARK    2  A    between atoms: C_4  and  O_22
REMARK    3  A    between atoms: C_7  and  O_9
REMARK    4  A    between atoms: O_9  and  C_10
REMARK    5  A    between atoms: C_11  and  S_16
REMARK    6  A    between atoms: S_16  and  N_19
REMARK    7  A    between atoms: O_22  and  C_23
REMARK    8  A    between atoms: C_29  and  N_33
REMARK    9  A    between atoms: N_33  and  C_34
REMARK   10  A    between atoms: C_37  and  O_40
REMARK                            x       y       z     vdW  Elec       q    Type
REMARK                         _______ _______ _______ _____ _____    ______ ____
ROOT
ATOM      1  C   UNL     1     -13.896 -43.006  26.275  0.00  0.00    +0.076 C 
ATOM      2  C   UNL     1     -14.184 -41.670  26.120  0.00  0.00    +0.010 C 
ATOM      3  C   UNL     1     -14.874 -41.196  25.031  0.00  0.00    +0.038 C 
ATOM      4  C   UNL     1     -15.319 -42.042  24.025  0.00  0.00    +0.147 C 
ATOM      5  C   UNL     1     -15.036 -43.377  24.177  0.00  0.00    +0.038 C 
ATOM      6  C   UNL     1     -14.339 -43.856  25.277  0.00  0.00    +0.010 C 
ENDROOT
BRANCH   1   7
ATOM      7  C   UNL     1     -13.155 -43.526  27.415  0.00  0.00    +0.346 C 
ATOM      8  O   UNL     1     -12.620 -44.657  27.319  0.00  0.00    -0.244 OA
BRANCH   7   9
ATOM      9  O   UNL     1     -13.003 -42.842  28.608  0.00  0.00    -0.420 OA
BRANCH   9  10
ATOM     10  C   UNL     1     -13.099 -43.481  29.841  0.00  0.00    +0.167 C 
ATOM     11  C   UNL     1     -11.988 -43.460  30.649  0.00  0.00    +0.160 C 
ATOM     12  C   UNL     1     -12.051 -44.094  31.894  0.00  0.00    +0.023 C 
ATOM     13  C   UNL     1     -13.201 -44.733  32.315  0.00  0.00    +0.002 C 
ATOM     14  C   UNL     1     -14.304 -44.736  31.480  0.00  0.00    +0.003 C 
ATOM     15  C   UNL     1     -14.274 -44.119  30.245  0.00  0.00    +0.039 C 
BRANCH  11  16
ATOM     16  S   UNL     1     -10.554 -42.659  30.154  0.00  0.00    +0.079 S 
ATOM     17  O   UNL     1     -10.781 -41.169  29.924  0.00  0.00    -0.150 OA
ATOM     18  O   UNL     1      -9.532 -42.709  31.288  0.00  0.00    -0.150 OA
BRANCH  16  19
ATOM     19  N   UNL     1      -9.787 -43.289  28.771  0.00  0.00    -0.178 N 
ATOM     20  C   UNL     1      -8.562 -42.634  28.381  0.00  0.00    +0.319 C 
ATOM     21  O   UNL     1      -8.101 -41.647  29.042  0.00  0.00    -0.264 OA
ATOM     22  H   UNL     1     -10.156 -44.052  28.269  0.00  0.00    +0.177 HD
ENDBRANCH  16  19
ENDBRANCH  11  16
ENDBRANCH   9  10
ENDBRANCH   7   9
ENDBRANCH   1   7
BRANCH   4  23
ATOM     23  O   UNL     1     -16.008 -41.600  22.925  0.00  0.00    -0.436 OA
BRANCH  23  24
ATOM     24  C   UNL     1     -17.344 -41.341  22.815  0.00  0.00    +0.231 C 
ATOM     25  N   UNL     1     -17.709 -40.116  22.406  0.00  0.00    -0.192 NA
ATOM     26  C   UNL     1     -18.986 -39.755  22.261  0.00  0.00    +0.167 C 
ATOM     27  N   UNL     1     -19.254 -38.503  21.843  0.00  0.00    -0.225 NA
ATOM     28  C   UNL     1     -20.513 -38.099  21.684  0.00  0.00    +0.102 C 
ATOM     29  C   UNL     1     -21.569 -38.968  21.947  0.00  0.00    +0.035 C 
ATOM     30  C   UNL     1     -21.331 -40.264  22.379  0.00  0.00    +0.053 C 
ATOM     31  C   UNL     1     -20.016 -40.653  22.535  0.00  0.00    +0.049 C 
ATOM     32  C   UNL     1     -19.642 -41.905  22.954  0.00  0.00    +0.009 C 
ATOM     33  C   UNL     1     -18.304 -42.280  23.104  0.00  0.00    +0.058 C 
BRANCH  30  34
ATOM     34  N   UNL     1     -22.393 -41.168  22.599  0.00  0.00    -0.312 N 
ATOM     35  H   UNL     1     -22.188 -42.129  22.655  0.00  0.00    +0.152 HD
BRANCH  34  36
ATOM     36  C   UNL     1     -23.736 -40.755  22.742  0.00  0.00    +0.049 C 
ATOM     37  C   UNL     1     -24.705 -41.471  22.077  0.00  0.00    +0.018 C 
ATOM     38  C   UNL     1     -26.052 -41.167  22.180  0.00  0.00    +0.038 C 
ATOM     39  C   UNL     1     -26.461 -40.126  22.960  0.00  0.00    +0.134 C 
ATOM     40  C   UNL     1     -25.489 -39.410  23.626  0.00  0.00    +0.038 C 
ATOM     41  C   UNL     1     -24.125 -39.711  23.528  0.00  0.00    +0.018 C 
BRANCH  39  42
ATOM     42  O   UNL     1     -27.800 -39.785  23.093  0.00  0.00    -0.506 OA
ATOM     43  H   UNL     1     -28.456 -40.276  22.638  0.00  0.00    +0.292 HD
ENDBRANCH  39  42
ENDBRANCH  34  36
ENDBRANCH  30  34
ENDBRANCH  23  24
ENDBRANCH   4  23
TORSDOF 10
