REMARK  Name = =
REMARK  1 active torsions:
REMARK  status: ('A' for Active; 'I' for Inactive)
REMARK    1  A    between atoms: C_1  and  C_8
REMARK                            x       y       z     vdW  Elec       q    Type
REMARK                         _______ _______ _______ _____ _____    ______ ____
ROOT
ATOM      1  C   UNL     1      50.022 158.543  30.270  0.00  0.00    +0.042 C 
ATOM      2  C   UNL     1      48.693 158.430  30.569  0.00  0.00    +0.003 C 
ATOM      3  C   UNL     1      47.959 159.547  30.908  0.00  0.00    +0.000 C 
ATOM      4  C   UNL     1      48.529 160.804  30.957  0.00  0.00    +0.000 C 
ATOM      5  C   UNL     1      49.876 160.874  30.649  0.00  0.00    +0.000 C 
ATOM      6  C   UNL     1      50.627 159.785  30.310  0.00  0.00    +0.003 C 
ENDROOT
BRANCH   1   8
ATOM      7  O   UNL     1      50.241 156.241  29.874  0.00  0.00    -0.283 OA
ATOM      8  C   UNL     1      50.806 157.363  29.910  0.00  0.00    +0.234 C 
ENDBRANCH   1   8
TORSDOF 1
