REMARK  Name = =
REMARK  4 active torsions:
REMARK  status: ('A' for Active; 'I' for Inactive)
REMARK    1  A    between atoms: N_1  and  C_10
REMARK    2  A    between atoms: C_4  and  C_15
REMARK    3  A    between atoms: C_7  and  C_14
REMARK    4  A    between atoms: C_15  and  N_16
REMARK                            x       y       z     vdW  Elec       q    Type
REMARK                         _______ _______ _______ _____ _____    ______ ____
ROOT
ATOM      1  N   UNL     1      53.068 161.557  31.272  0.00  0.00    -0.259 N 
ATOM      2  C   UNL     1      54.203 160.920  31.894  0.00  0.00    +0.099 C 
ATOM      3  C   UNL     1      55.337 161.262  30.968  0.00  0.00    +0.032 C 
ATOM      4  C   UNL     1      55.060 162.712  30.637  0.00  0.00    +0.094 C 
ATOM      5  C   UNL     1      53.578 162.734  30.617  0.00  0.00    +0.230 C 
ATOM      6  O   UNL     1      52.814 163.611  30.123  0.00  0.00    -0.274 OA
ENDROOT
BRANCH   1  10
ATOM      7  C   UNL     1      49.067 160.455  31.292  0.00  0.00    +0.042 C 
ATOM      8  C   UNL     1      49.926 159.805  30.421  0.00  0.00    +0.005 C 
ATOM      9  C   UNL     1      51.268 160.191  30.435  0.00  0.00    +0.015 C 
ATOM     10  C   UNL     1      51.705 161.168  31.277  0.00  0.00    +0.054 C 
ATOM     11  C   UNL     1      50.827 161.790  32.126  0.00  0.00    +0.015 C 
ATOM     12  C   UNL     1      49.468 161.441  32.153  0.00  0.00    +0.005 C 
BRANCH   7  14
ATOM     13  O   UNL     1      47.224 159.135  30.526  0.00  0.00    -0.283 OA
ATOM     14  C   UNL     1      47.642 160.058  31.273  0.00  0.00    +0.234 C 
ENDBRANCH   7  14
ENDBRANCH   1  10
BRANCH   4  15
ATOM     15  C   UNL     1      55.557 163.111  29.270  0.00  0.00    +0.074 C 
BRANCH  15  16
ATOM     16  N   UNL     1      57.003 163.013  29.185  0.00  0.00    -0.321 NA
ATOM     17  H   UNL     1      57.308 163.288  28.252  0.00  0.00    +0.119 HD
ATOM     18  H   UNL     1      57.290 162.051  29.366  0.00  0.00    +0.119 HD
ENDBRANCH  15  16
ENDBRANCH   4  15
TORSDOF 4
