REMARK  Name = =
REMARK  10 active torsions:
REMARK  status: ('A' for Active; 'I' for Inactive)
REMARK    1  A    between atoms: C_1  and  C_16
REMARK    2  A    between atoms: C_4  and  N_7
REMARK    3  A    between atoms: C_6  and  C_17
REMARK    4  A    between atoms: C_10  and  C_13
REMARK    5  A    between atoms: C_13  and  N_14
REMARK    6  A    between atoms: N_18  and  N_19
REMARK    7  A    between atoms: N_19  and  N_20
REMARK    8  A    between atoms: N_20  and  C_21
REMARK    9  A    between atoms: C_22  and  C_23
REMARK   10  A    between atoms: C_22  and  C_25
REMARK                            x       y       z     vdW  Elec       q    Type
REMARK                         _______ _______ _______ _____ _____    ______ ____
ROOT
ATOM      1  C   UNL     1      53.594 160.014  29.877  0.00  0.00    +0.044 C 
ATOM      2  C   UNL     1      54.601 159.272  29.310  0.00  0.00    +0.005 C 
ATOM      3  C   UNL     1      54.351 158.078  28.689  0.00  0.00    +0.015 C 
ATOM      4  C   UNL     1      53.045 157.588  28.626  0.00  0.00    +0.054 C 
ATOM      5  C   UNL     1      52.051 158.344  29.208  0.00  0.00    +0.017 C 
ATOM      6  C   UNL     1      52.260 159.534  29.825  0.00  0.00    +0.025 C 
ENDROOT
BRANCH   4   7
ATOM      7  N   UNL     1      52.829 156.407  27.843  0.00  0.00    -0.259 N 
ATOM      8  C   UNL     1      53.070 156.289  26.410  0.00  0.00    +0.099 C 
ATOM      9  C   UNL     1      52.703 154.865  26.067  0.00  0.00    +0.032 C 
ATOM     10  C   UNL     1      52.867 154.164  27.385  0.00  0.00    +0.094 C 
ATOM     11  C   UNL     1      52.274 155.179  28.308  0.00  0.00    +0.230 C 
ATOM     12  O   UNL     1      51.477 155.007  29.263  0.00  0.00    -0.274 OA
BRANCH  10  13
ATOM     13  C   UNL     1      52.296 152.813  27.477  0.00  0.00    +0.074 C 
BRANCH  13  14
ATOM     14  N   UNL     1      50.910 152.682  27.194  0.00  0.00    -0.321 NA
ATOM     15  H   UNL     1      50.634 151.705  27.291  0.00  0.00    +0.119 HD
ATOM     16  H   UNL     1      50.727 152.994  26.240  0.00  0.00    +0.119 HD
ENDBRANCH  13  14
ENDBRANCH  10  13
ENDBRANCH   4   7
BRANCH   1  18
ATOM     17  O   UNL     1      55.001 161.623  30.771  0.00  0.00    -0.283 OA
ATOM     18  C   UNL     1      53.843 161.241  30.587  0.00  0.00    +0.234 C 
ENDBRANCH   1  18
BRANCH   6  19
ATOM     19  C   UNL     1      51.205 160.459  30.195  0.00  0.00    +0.121 C 
ATOM     20  N   UNL     1      49.832 160.103  29.809  0.00  0.00    -0.142 NA
BRANCH  20  21
ATOM     21  N   UNL     1      48.918 160.968  30.090  0.00  0.00    -0.048 NA
BRANCH  21  22
ATOM     22  N   UNL     1      49.184 162.176  30.711  0.00  0.00    -0.226 N 
ATOM     23  H   UNL     1      49.638 162.858  30.164  0.00  0.00    +0.174 HD
BRANCH  22  24
ATOM     24  C   UNL     1      48.882 162.536  32.022  0.00  0.00    +0.082 C 
ATOM     25  C   UNL     1      48.147 161.868  32.871  0.00  0.00    +0.058 C 
BRANCH  25  26
ATOM     26  C   UNL     1      47.966 162.446  34.221  0.00  0.00    +0.005 C 
ATOM     27  C   UNL     1      47.374 161.881  35.216  0.00  0.00    +0.000 C 
ENDBRANCH  25  26
BRANCH  25  28
ATOM     28  C   UNL     1      47.604 160.591  32.503  0.00  0.00    +0.235 C 
ATOM     29  O   UNL     1      47.096 159.807  33.310  0.00  0.00    -0.283 OA
ENDBRANCH  25  28
ENDBRANCH  22  24
ENDBRANCH  21  22
ENDBRANCH  20  21
ENDBRANCH   6  19
TORSDOF 10
