MODEL 1
REMARK VINA RESULT:    -8.092      0.000      0.000
REMARK INTER + INTRA:          -8.924
REMARK INTER:                  -9.985
REMARK INTRA:                   1.061
REMARK UNBOUND:                 1.061
REMARK  Name = =
REMARK  4 active torsions:
REMARK  status: ('A' for Active; 'I' for Inactive)
REMARK    1  A    between atoms: C_1  and  C_11
REMARK    2  A    between atoms: C_6  and  S_17
REMARK    3  A    between atoms: C_7  and  C_16
REMARK    4  A    between atoms: S_17  and  N_20
REMARK                            x       y       z     vdW  Elec       q    Type
REMARK                         _______ _______ _______ _____ _____    ______ ____
ROOT
ATOM      1  C   UNL     1      52.160 156.554  29.242  0.00  0.00    +0.226 C 
ATOM      2  O   UNL     1      53.116 157.371  29.176  0.00  0.00    -0.275 OA
ATOM      3  N   UNL     1      52.226 155.321  28.557  0.00  0.00    -0.261 N 
ATOM      4  C   UNL     1      51.388 154.154  28.379  0.00  0.00    +0.099 C 
ATOM      5  C   UNL     1      52.640 153.333  28.063  0.00  0.00    +0.068 C 
ATOM      6  C   UNL     1      53.216 154.689  27.719  0.00  0.00    +0.228 C 
ENDROOT
BRANCH   1  11
ATOM      7  C   UNL     1      50.547 158.385  29.816  0.00  0.00    +0.023 C 
ATOM      8  C   UNL     1      49.074 158.322  30.290  0.00  0.00    +0.002 C 
ATOM      9  C   UNL     1      48.598 157.102  29.550  0.00  0.00    +0.001 C 
ATOM     10  C   UNL     1      49.760 156.165  29.571  0.00  0.00    +0.009 C 
ATOM     11  C   UNL     1      50.981 156.959  30.064  0.00  0.00    +0.078 C 
BRANCH   7  16
ATOM     12  N   UNL     1      52.296 160.123  30.038  0.00  0.00    -0.299 NA
ATOM     13  C   UNL     1      52.477 161.325  30.865  0.00  0.00    +0.069 C 
ATOM     14  C   UNL     1      51.332 161.356  31.842  0.00  0.00    +0.018 C 
ATOM     15  C   UNL     1      50.322 160.449  31.128  0.00  0.00    +0.017 C 
ATOM     16  C   UNL     1      51.286 159.357  30.708  0.00  0.00    +0.054 C 
ATOM     17  H   UNL     1      53.167 159.595  29.980  0.00  0.00    +0.123 HD
ENDBRANCH   7  16
ENDBRANCH   1  11
BRANCH   6  18
ATOM     18  S   UNL     1      52.972 155.119  26.021  0.00  0.00    +0.072 S 
ATOM     19  O   UNL     1      52.758 156.607  25.868  0.00  0.00    -0.153 OA
ATOM     20  O   UNL     1      51.835 154.417  25.381  0.00  0.00    -0.153 OA
BRANCH  18  21
ATOM     21  N   UNL     1      54.432 154.686  25.156  0.00  0.00    -0.180 N 
ATOM     22  C   UNL     1      54.589 153.348  24.690  0.00  0.00    +0.319 C 
ATOM     23  O   UNL     1      53.630 152.546  24.946  0.00  0.00    -0.264 OA
ATOM     24  H   UNL     1      55.135 155.357  24.994  0.00  0.00    +0.177 HD
ENDBRANCH  18  21
ENDBRANCH   6  18
TORSDOF 4
ENDMDL
