REMARK  Name = =
REMARK  4 active torsions:
REMARK  status: ('A' for Active; 'I' for Inactive)
REMARK    1  A    between atoms: C_1  and  C_11
REMARK    2  A    between atoms: C_6  and  S_17
REMARK    3  A    between atoms: C_7  and  C_16
REMARK    4  A    between atoms: S_17  and  N_20
REMARK                            x       y       z     vdW  Elec       q    Type
REMARK                         _______ _______ _______ _____ _____    ______ ____
ROOT
ATOM      1  C   UNL     1      51.282 156.683  29.655  0.00  0.00    +0.226 C 
ATOM      2  O   UNL     1      51.917 156.418  30.711  0.00  0.00    -0.275 OA
ATOM      3  N   UNL     1      50.708 157.959  29.469  0.00  0.00    -0.261 N 
ATOM      4  C   UNL     1      49.937 158.643  28.452  0.00  0.00    +0.099 C 
ATOM      5  C   UNL     1      50.443 159.978  29.001  0.00  0.00    +0.068 C 
ATOM      6  C   UNL     1      50.663 159.166  30.258  0.00  0.00    +0.228 C 
ENDROOT
BRANCH   1  11
ATOM      7  C   UNL     1      52.489 155.276  27.967  0.00  0.00    +0.023 C 
ATOM      8  C   UNL     1      52.220 153.832  27.479  0.00  0.00    +0.002 C 
ATOM      9  C   UNL     1      51.691 153.208  28.741  0.00  0.00    +0.001 C 
ATOM     10  C   UNL     1      50.874 154.280  29.383  0.00  0.00    +0.009 C 
ATOM     11  C   UNL     1      51.174 155.592  28.641  0.00  0.00    +0.078 C 
BRANCH   7  16
ATOM     12  N   UNL     1      53.678 157.195  26.949  0.00  0.00    -0.299 NA
ATOM     13  C   UNL     1      54.160 157.530  25.601  0.00  0.00    +0.069 C 
ATOM     14  C   UNL     1      53.674 156.441  24.683  0.00  0.00    +0.018 C 
ATOM     15  C   UNL     1      53.407 155.315  25.690  0.00  0.00    +0.017 C 
ATOM     16  C   UNL     1      52.718 156.148  26.753  0.00  0.00    +0.054 C 
ATOM     17  H   UNL     1      53.239 158.006  27.384  0.00  0.00    +0.123 HD
ENDBRANCH   7  16
ENDBRANCH   1  11
BRANCH   6  18
ATOM     18  S   UNL     1      49.253 159.170  31.325  0.00  0.00    +0.072 S 
ATOM     19  O   UNL     1      49.671 159.035  32.771  0.00  0.00    -0.153 OA
ATOM     20  O   UNL     1      48.269 158.104  31.023  0.00  0.00    -0.153 OA
BRANCH  18  21
ATOM     21  N   UNL     1      48.453 160.716  31.130  0.00  0.00    -0.180 N 
ATOM     22  C   UNL     1      48.972 161.855  31.812  0.00  0.00    +0.319 C 
ATOM     23  O   UNL     1      50.006 161.657  32.534  0.00  0.00    -0.264 OA
ATOM     24  H   UNL     1      47.656 160.797  30.557  0.00  0.00    +0.177 HD
ENDBRANCH  18  21
ENDBRANCH   6  18
TORSDOF 4
