MODEL 1
REMARK VINA RESULT:    -9.859      0.000      0.000
REMARK INTER + INTRA:         -19.050
REMARK INTER:                 -16.199
REMARK INTRA:                  -2.851
REMARK UNBOUND:                -2.851
REMARK  Name = =
REMARK  12 active torsions:
REMARK  status: ('A' for Active; 'I' for Inactive)
REMARK    1  A    between atoms: N_1  and  C_8
REMARK    2  A    between atoms: C_3  and  C_32
REMARK    3  A    between atoms: C_5  and  C_24
REMARK    4  A    between atoms: N_7  and  C_13
REMARK    5  A    between atoms: C_13  and  C_14
REMARK    6  A    between atoms: C_14  and  N_22
REMARK    7  A    between atoms: C_14  and  O_23
REMARK    8  A    between atoms: C_24  and  O_26
REMARK    9  A    between atoms: O_26  and  C_27
REMARK   10  A    between atoms: C_32  and  O_34
REMARK   11  A    between atoms: O_34  and  N_35
REMARK   12  A    between atoms: C_40  and  O_44
REMARK                            x       y       z     vdW  Elec       q    Type
REMARK                         _______ _______ _______ _____ _____    ______ ____
ROOT
ATOM      1  N   UNL     1      -3.437  -5.094  30.914  0.00  0.00    -0.291 N 
ATOM      2  C   UNL     1      -2.851  -4.157  30.022  0.00  0.00    +0.125 C 
ATOM      3  C   UNL     1      -3.207  -2.901  30.106  0.00  0.00    +0.076 C 
ATOM      4  C   UNL     1      -4.181  -2.359  31.059  0.00  0.00    +0.012 C 
ATOM      5  C   UNL     1      -4.757  -3.380  31.959  0.00  0.00    +0.090 C 
ATOM      6  C   UNL     1      -4.391  -4.651  31.868  0.00  0.00    +0.069 C 
ENDROOT
BRANCH   1   8
ATOM      7  N   UNL     1      -1.739  -6.745  31.168  0.00  0.00    -0.255 NA
ATOM      8  C   UNL     1      -3.083  -6.519  30.861  0.00  0.00    +0.135 C 
ATOM      9  C   UNL     1      -4.098  -7.221  31.735  0.00  0.00    +0.037 C 
ATOM     10  C   UNL     1      -3.480  -8.277  32.606  0.00  0.00    +0.005 C 
ATOM     11  C   UNL     1      -2.289  -7.742  33.367  0.00  0.00    +0.017 C 
ATOM     12  C   UNL     1      -1.349  -6.967  32.507  0.00  0.00    +0.074 C 
BRANCH   7  13
ATOM     13  C   UNL     1      -0.765  -6.800  30.174  0.00  0.00    +0.124 C 
BRANCH  13  14
ATOM     14  C   UNL     1       0.479  -5.983  30.355  0.00  0.00    +0.205 C 
BRANCH  14  22
ATOM     15  N   UNL     1       3.183  -4.938  27.958  0.00  0.00    -0.214 N 
ATOM     16  C   UNL     1       4.491  -4.447  27.606  0.00  0.00    +0.112 C 
ATOM     17  C   UNL     1       4.329  -5.235  26.318  0.00  0.00    +0.108 C 
ATOM     18  C   UNL     1       2.875  -5.033  26.583  0.00  0.00    +0.234 C 
ATOM     19  O   UNL     1       1.870  -4.984  25.829  0.00  0.00    -0.274 OA
ATOM     20  C   UNL     1       2.484  -5.217  29.148  0.00  0.00    +0.311 C 
ATOM     21  O   UNL     1       3.070  -5.015  30.264  0.00  0.00    -0.252 OA
ATOM     22  N   UNL     1       1.154  -5.712  29.116  0.00  0.00    -0.266 N 
ATOM     23  H   UNL     1       0.700  -5.867  28.257  0.00  0.00    +0.153 HD
ENDBRANCH  14  22
BRANCH  14  24
ATOM     24  O   UNL     1       0.327  -4.801  31.028  0.00  0.00    -0.366 OA
ATOM     25  H   UNL     1      -0.434  -4.864  31.624  0.00  0.00    +0.212 HD
ENDBRANCH  14  24
ENDBRANCH  13  14
ENDBRANCH   7  13
ENDBRANCH   1   8
BRANCH   5  26
ATOM     26  C   UNL     1      -5.734  -2.951  32.942  0.00  0.00    +0.342 C 
ATOM     27  O   UNL     1      -5.463  -2.833  34.154  0.00  0.00    -0.245 OA
BRANCH  26  28
ATOM     28  O   UNL     1      -7.018  -2.660  32.522  0.00  0.00    -0.449 OA
BRANCH  28  29
ATOM     29  C   UNL     1      -7.353  -1.485  31.841  0.00  0.00    +0.169 C 
ATOM     30  C   UNL     1      -8.807  -1.280  31.597  0.00  0.00    +0.044 C 
ATOM     31  C   UNL     1      -8.913   0.186  31.256  0.00  0.00    +0.004 C 
ATOM     32  C   UNL     1      -7.711   0.855  31.829  0.00  0.00    +0.004 C 
ATOM     33  C   UNL     1      -6.927  -0.224  32.568  0.00  0.00    +0.044 C 
ENDBRANCH  28  29
ENDBRANCH  26  28
ENDBRANCH   5  26
BRANCH   3  34
ATOM     34  C   UNL     1      -2.583  -1.964  29.167  0.00  0.00    +0.363 C 
ATOM     35  O   UNL     1      -2.687  -0.705  29.294  0.00  0.00    -0.243 OA
BRANCH  34  36
ATOM     36  O   UNL     1      -1.834  -2.399  28.072  0.00  0.00    -0.327 OA
BRANCH  36  37
ATOM     37  N   UNL     1      -0.481  -2.146  28.005  0.00  0.00    -0.130 N 
ATOM     38  C   UNL     1       0.270  -1.871  26.909  0.00  0.00    +0.205 C 
ATOM     39  N   UNL     1      -0.052  -1.763  25.607  0.00  0.00    -0.202 NA
ATOM     40  C   UNL     1       0.922  -1.473  24.714  0.00  0.00    +0.203 C 
ATOM     41  N   UNL     1       2.207  -1.292  25.105  0.00  0.00    -0.188 NA
ATOM     42  C   UNL     1       2.574  -1.390  26.388  0.00  0.00    +0.244 C 
ATOM     43  C   UNL     1       1.584  -1.687  27.316  0.00  0.00    +0.173 C 
ATOM     44  N   UNL     1       1.619  -1.852  28.645  0.00  0.00    -0.215 NA
ATOM     45  C   UNL     1       0.380  -2.125  29.049  0.00  0.00    +0.218 C 
BRANCH  42  46
ATOM     46  O   UNL     1       3.881  -1.211  26.820  0.00  0.00    -0.491 OA
ATOM     47  H   UNL     1       4.436  -1.954  26.953  0.00  0.00    +0.294 HD
ENDBRANCH  42  46
ENDBRANCH  36  37
ENDBRANCH  34  36
ENDBRANCH   3  34
TORSDOF 12
ENDMDL
