REMARK  Name = =
REMARK  3 active torsions:
REMARK  status: ('A' for Active; 'I' for Inactive)
REMARK    1  A    between atoms: C_3  and  O_10
REMARK    2  A    between atoms: C_4  and  C_7
REMARK    3  A    between atoms: C_7  and  O_9
REMARK                            x       y       z     vdW  Elec       q    Type
REMARK                         _______ _______ _______ _____ _____    ______ ____
ROOT
ATOM      1  C   UNL     1      51.413 154.806  28.542  0.00  0.00    +0.003 C 
ATOM      2  C   UNL     1      52.041 155.887  27.969  0.00  0.00    +0.037 C 
ATOM      3  C   UNL     1      52.851 155.686  26.873  0.00  0.00    +0.140 C 
ATOM      4  C   UNL     1      53.060 154.447  26.321  0.00  0.00    +0.109 C 
ATOM      5  C   UNL     1      52.412 153.389  26.925  0.00  0.00    +0.009 C 
ATOM      6  C   UNL     1      51.596 153.542  28.018  0.00  0.00    +0.000 C 
ENDROOT
BRANCH   4   7
ATOM      7  C   UNL     1      53.912 154.222  25.163  0.00  0.00    +0.341 C 
ATOM      8  O   UNL     1      54.331 153.096  24.876  0.00  0.00    -0.245 OA
BRANCH   7   9
ATOM      9  O   UNL     1      54.261 155.305  24.363  0.00  0.00    -0.477 OA
ATOM     10  H   UNL     1      53.948 156.163  24.573  0.00  0.00    +0.295 HD
ENDBRANCH   7   9
ENDBRANCH   4   7
BRANCH   3  11
ATOM     11  O   UNL     1      53.502 156.776  26.271  0.00  0.00    -0.505 OA
ATOM     12  H   UNL     1      53.387 157.639  26.616  0.00  0.00    +0.292 HD
ENDBRANCH   3  11
TORSDOF 3
