REMARK  Name = =
REMARK  3 active torsions:
REMARK  status: ('A' for Active; 'I' for Inactive)
REMARK    1  A    between atoms: C_3  and  O_11
REMARK    2  A    between atoms: C_4  and  C_8
REMARK    3  A    between atoms: C_8  and  O_10
REMARK                            x       y       z     vdW  Elec       q    Type
REMARK                         _______ _______ _______ _____ _____    ______ ____
ROOT
ATOM      1  C   UNL     1      52.306 154.648  27.439  0.00  0.00    +0.033 C 
ATOM      2  C   UNL     1      53.142 155.248  26.520  0.00  0.00    +0.043 C 
ATOM      3  C   UNL     1      53.757 154.492  25.545  0.00  0.00    +0.140 C 
ATOM      4  C   UNL     1      53.572 153.131  25.440  0.00  0.00    +0.109 C 
ATOM      5  C   UNL     1      52.735 152.533  26.360  0.00  0.00    +0.010 C 
ATOM      6  C   UNL     1      52.115 153.285  27.342  0.00  0.00    +0.006 C 
ATOM      7  I   UNL     1      51.349 155.791  28.949  0.00  0.00    -0.042 I 
ENDROOT
BRANCH   4   8
ATOM      8  C   UNL     1      54.234 152.357  24.398  0.00  0.00    +0.341 C 
ATOM      9  O   UNL     1      54.185 151.122  24.331  0.00  0.00    -0.245 OA
BRANCH   8  10
ATOM     10  O   UNL     1      54.962 153.035  23.428  0.00  0.00    -0.477 OA
ATOM     11  H   UNL     1      55.018 153.970  23.452  0.00  0.00    +0.295 HD
ENDBRANCH   8  10
ENDBRANCH   4   8
BRANCH   3  12
ATOM     12  O   UNL     1      54.602 155.086  24.613  0.00  0.00    -0.505 OA
ATOM     13  H   UNL     1      54.759 156.009  24.644  0.00  0.00    +0.292 HD
ENDBRANCH   3  12
TORSDOF 3
