REMARK  Name = =
REMARK  5 active torsions:
REMARK  status: ('A' for Active; 'I' for Inactive)
REMARK    1  A    between atoms: C_5  and  C_12
REMARK    2  A    between atoms: C_12  and  O_14
REMARK    3  A    between atoms: C_17  and  O_24
REMARK    4  A    between atoms: C_18  and  C_21
REMARK    5  A    between atoms: C_21  and  O_23
REMARK                            x       y       z     vdW  Elec       q    Type
REMARK                         _______ _______ _______ _____ _____    ______ ____
ROOT
ATOM      1  I   UNL     1      51.159 156.365  30.412  0.00  0.00    -0.107 I 
ATOM      2  H   UNL     1      52.720 156.365  30.412  0.00  0.00    +0.107 HD
ENDROOT
TORSDOF 0
REMARK  Name = =
REMARK  5 active torsions:
REMARK  status: ('A' for Active; 'I' for Inactive)
REMARK    1  A    between atoms: C_5  and  C_12
REMARK    2  A    between atoms: C_12  and  O_14
REMARK    3  A    between atoms: C_17  and  O_24
REMARK    4  A    between atoms: C_18  and  C_21
REMARK    5  A    between atoms: C_21  and  O_23
REMARK                            x       y       z     vdW  Elec       q    Type
REMARK                         _______ _______ _______ _____ _____    ______ ____
ROOT
ATOM      1  S   UNL     1      49.670 157.609  30.026  0.00  0.00    -0.115 S 
ATOM      2  C   UNL     1      48.485 157.771  31.321  0.00  0.00    +0.087 C 
ATOM      3  C   UNL     1      48.876 158.908  32.148  0.00  0.00    +0.007 C 
ATOM      4  C   UNL     1      49.308 160.074  31.635  0.00  0.00    +0.127 C 
ATOM      5  N   UNL     1      49.398 160.225  30.231  0.00  0.00    -0.245 N 
ATOM      6  C   UNL     1      49.876 159.117  29.385  0.00  0.00    +0.137 C 
ATOM      7  C   UNL     1      48.901 159.676  28.378  0.00  0.00    +0.117 C 
ATOM      8  C   UNL     1      49.244 160.981  29.055  0.00  0.00    +0.233 C 
ATOM      9  O   UNL     1      49.355 162.186  28.767  0.00  0.00    -0.274 OA
ENDROOT
BRANCH   4  10
ATOM     10  C   UNL     1      49.678 161.176  32.509  0.00  0.00    +0.352 C 
ATOM     11  O   UNL     1      49.504 162.379  32.203  0.00  0.00    -0.244 OA
BRANCH  10  12
ATOM     12  O   UNL     1      50.253 160.889  33.745  0.00  0.00    -0.476 OA
ATOM     13  H   UNL     1      50.395 159.999  34.000  0.00  0.00    +0.295 HD
ENDBRANCH  10  12
ENDBRANCH   4  10
TORSDOF 2
REMARK  Name = =
REMARK  5 active torsions:
REMARK  status: ('A' for Active; 'I' for Inactive)
REMARK    1  A    between atoms: C_5  and  C_12
REMARK    2  A    between atoms: C_12  and  O_14
REMARK    3  A    between atoms: C_17  and  O_24
REMARK    4  A    between atoms: C_18  and  C_21
REMARK    5  A    between atoms: C_21  and  O_23
REMARK                            x       y       z     vdW  Elec       q    Type
REMARK                         _______ _______ _______ _____ _____    ______ ____
ROOT
ATOM      1  H   UNK     1      48.736 156.648  28.766  0.00  0.00    +0.000 HD
ENDROOT
TORSDOF 0
REMARK  Name = =
REMARK  5 active torsions:
REMARK  status: ('A' for Active; 'I' for Inactive)
REMARK    1  A    between atoms: C_5  and  C_12
REMARK    2  A    between atoms: C_12  and  O_14
REMARK    3  A    between atoms: C_17  and  O_24
REMARK    4  A    between atoms: C_18  and  C_21
REMARK    5  A    between atoms: C_21  and  O_23
REMARK                            x       y       z     vdW  Elec       q    Type
REMARK                         _______ _______ _______ _____ _____    ______ ____
ROOT
ATOM      1  C   UNL     1      51.994 155.830  28.589  0.00  0.00    +0.003 C 
ATOM      2  C   UNL     1      52.749 156.722  27.866  0.00  0.00    +0.037 C 
ATOM      3  C   UNL     1      53.320 156.390  26.643  0.00  0.00    +0.140 C 
ATOM      4  C   UNL     1      53.120 155.122  26.142  0.00  0.00    +0.109 C 
ATOM      5  C   UNL     1      52.374 154.213  26.839  0.00  0.00    +0.009 C 
ATOM      6  C   UNL     1      51.808 154.568  28.069  0.00  0.00    +0.000 C 
ENDROOT
BRANCH   4   7
ATOM      7  C   UNL     1      53.711 154.733  24.845  0.00  0.00    +0.341 C 
ATOM      8  O   UNL     1      53.042 154.055  24.032  0.00  0.00    -0.245 OA
BRANCH   7   9
ATOM      9  O   UNL     1      55.008 155.121  24.535  0.00  0.00    -0.477 OA
ATOM     10  H   UNL     1      55.504 155.628  25.147  0.00  0.00    +0.295 HD
ENDBRANCH   7   9
ENDBRANCH   4   7
BRANCH   3  11
ATOM     11  O   UNL     1      54.082 157.279  25.904  0.00  0.00    -0.505 OA
ATOM     12  H   UNL     1      54.232 158.147  26.224  0.00  0.00    +0.292 HD
ENDBRANCH   3  11
TORSDOF 3
