REMARK  Name = =
REMARK  2 active torsions:
REMARK  status: ('A' for Active; 'I' for Inactive)
REMARK    1  A    between atoms: O_1  and  C_5
REMARK    2  A    between atoms: O_1  and  C_8
REMARK                            x       y       z     vdW  Elec       q    Type
REMARK                         _______ _______ _______ _____ _____    ______ ____
ROOT
ATOM      1  O   UNL     1      50.462 157.215  30.425  0.00  0.00    -0.453 OA
ENDROOT
BRANCH   1   5
ATOM      2  C   UNL     1      52.852 155.766  27.280  0.00  0.00    +0.000 C 
ATOM      3  C   UNL     1      51.931 154.956  27.912  0.00  0.00    +0.003 C 
ATOM      4  C   UNL     1      51.140 155.439  28.955  0.00  0.00    +0.037 C 
ATOM      5  C   UNL     1      51.249 156.741  29.391  0.00  0.00    +0.145 C 
ATOM      6  C   UNL     1      52.166 157.557  28.764  0.00  0.00    +0.037 C 
ATOM      7  C   UNL     1      52.954 157.066  27.721  0.00  0.00    +0.003 C 
ENDBRANCH   1   5
BRANCH   1   8
ATOM      8  C   UNL     1      49.921 158.469  30.496  0.00  0.00    +0.145 C 
ATOM      9  C   UNL     1      50.701 159.530  30.911  0.00  0.00    +0.037 C 
ATOM     10  C   UNL     1      50.207 160.817  31.000  0.00  0.00    +0.003 C 
ATOM     11  C   UNL     1      48.884 161.068  30.664  0.00  0.00    +0.000 C 
ATOM     12  C   UNL     1      48.091 160.032  30.249  0.00  0.00    +0.003 C 
ATOM     13  C   UNL     1      48.613 158.757  30.170  0.00  0.00    +0.037 C 
ENDBRANCH   1   8
TORSDOF 2
