REMARK  Name = =
REMARK  3 active torsions:
REMARK  status: ('A' for Active; 'I' for Inactive)
REMARK    1  A    between atoms: C_7  and  S_12
REMARK    2  A    between atoms: C_8  and  C_9
REMARK    3  A    between atoms: C_9  and  O_11
REMARK                            x       y       z     vdW  Elec       q    Type
REMARK                         _______ _______ _______ _____ _____    ______ ____
ROOT
ATOM      1  N   UNL     1      52.523 155.900  28.013  0.00  0.00    -0.254 N 
ATOM      2  C   UNL     1      52.145 155.127  29.222  0.00  0.00    +0.094 C 
ATOM      3  C   UNL     1      51.245 156.312  29.501  0.00  0.00    +0.106 C 
ATOM      4  C   UNL     1      52.344 157.045  28.812  0.00  0.00    +0.231 C 
ATOM      5  O   UNL     1      52.921 158.157  28.844  0.00  0.00    -0.274 OA
ATOM      6  C   UNL     1      51.452 153.950  28.542  0.00  0.00    +0.054 C 
ATOM      7  C   UNL     1      52.171 153.811  27.250  0.00  0.00    +0.021 C 
ATOM      8  C   UNL     1      52.774 154.964  26.987  0.00  0.00    +0.131 C 
ENDROOT
BRANCH   8   9
ATOM      9  C   UNL     1      53.594 155.225  25.785  0.00  0.00    +0.352 C 
ATOM     10  O   UNL     1      53.359 156.226  25.062  0.00  0.00    -0.244 OA
BRANCH   9  11
ATOM     11  O   UNL     1      54.633 154.376  25.436  0.00  0.00    -0.476 OA
ATOM     12  H   UNL     1      54.822 153.625  25.964  0.00  0.00    +0.295 HD
ENDBRANCH   9  11
ENDBRANCH   8   9
BRANCH   7  13
ATOM     13  S   UNL     1      52.245 152.376  26.200  0.00  0.00    -0.144 S 
ATOM     14  H   UNL     1      51.522 151.368  26.758  0.00  0.00    +0.107 HD
ENDBRANCH   7  13
TORSDOF 3
