REMARK  Name = =
REMARK  0 active torsions:
REMARK  status: ('A' for Active; 'I' for Inactive)
REMARK                            x       y       z     vdW  Elec       q    Type
REMARK                         _______ _______ _______ _____ _____    ______ ____
ROOT
ATOM      1  C   UNL     1      58.627 160.194  40.551  0.00  0.00    +0.003 C 
ATOM      2  C   UNL     1      58.703 158.968  39.938  0.00  0.00    +0.000 C 
ATOM      3  C   UNL     1      59.149 158.913  38.636  0.00  0.00    +0.000 C 
ATOM      4  C   UNL     1      59.503 160.104  37.999  0.00  0.00    +0.003 C 
ATOM      5  C   UNL     1      59.416 161.321  38.642  0.00  0.00    +0.042 C 
ATOM      6  C   UNL     1      58.969 161.382  39.944  0.00  0.00    +0.042 C 
ATOM      7  C   UNL     1      58.882 162.675  40.610  0.00  0.00    +0.196 C 
ATOM      8  O   UNL     1      58.472 162.718  41.802  0.00  0.00    -0.287 OA
ATOM      9  C   UNL     1      59.251 163.928  39.951  0.00  0.00    +0.042 C 
ATOM     10  C   UNL     1      59.165 165.153  40.592  0.00  0.00    +0.003 C 
ATOM     11  C   UNL     1      59.514 166.344  39.970  0.00  0.00    +0.000 C 
ATOM     12  C   UNL     1      59.961 166.270  38.662  0.00  0.00    +0.000 C 
ATOM     13  C   UNL     1      60.050 165.053  38.014  0.00  0.00    +0.003 C 
ATOM     14  C   UNL     1      59.698 163.865  38.647  0.00  0.00    +0.042 C 
ATOM     15  C   UNL     1      59.792 162.578  37.963  0.00  0.00    +0.196 C 
ATOM     16  O   UNL     1      60.204 162.549  36.770  0.00  0.00    -0.287 OA
ENDROOT
TORSDOF 0
