REMARK  Name = =
REMARK  4 active torsions:
REMARK  status: ('A' for Active; 'I' for Inactive)
REMARK    1  A    between atoms: C_2  and  C_9
REMARK    2  A    between atoms: C_7  and  S_15
REMARK    3  A    between atoms: C_8  and  C_12
REMARK    4  A    between atoms: C_12  and  O_14
REMARK                            x       y       z     vdW  Elec       q    Type
REMARK                         _______ _______ _______ _____ _____    ______ ____
ROOT
ATOM      1  N   UNL     1      52.796 155.264  26.672  0.00  0.00    -0.251 N 
ATOM      2  C   UNL     1      52.197 154.087  27.340  0.00  0.00    +0.106 C 
ATOM      3  C   UNL     1      51.011 155.049  27.490  0.00  0.00    +0.110 C 
ATOM      4  C   UNL     1      52.105 156.048  27.589  0.00  0.00    +0.232 C 
ATOM      5  O   UNL     1      52.264 157.107  28.236  0.00  0.00    -0.274 OA
ATOM      6  C   UNL     1      52.114 153.101  26.223  0.00  0.00    +0.058 C 
ATOM      7  C   UNL     1      53.252 153.526  25.325  0.00  0.00    +0.021 C 
ATOM      8  C   UNL     1      53.607 154.783  25.626  0.00  0.00    +0.132 C 
ENDROOT
BRANCH   2   9
ATOM      9  C   UNL     1      52.834 153.727  28.592  0.00  0.00    +0.053 C 
ATOM     10  C   UNL     1      53.973 153.105  28.660  0.00  0.00    +0.009 C 
ATOM     11 CL   UNL     1      52.018 154.174  30.086  0.00  0.00    -0.085 Cl
ENDBRANCH   2   9
BRANCH   8  12
ATOM     12  C   UNL     1      54.680 155.480  24.935  0.00  0.00    +0.352 C 
ATOM     13  O   UNL     1      54.832 156.729  25.049  0.00  0.00    -0.244 OA
BRANCH  12  14
ATOM     14  O   UNL     1      55.577 154.814  24.126  0.00  0.00    -0.476 OA
ATOM     15  H   UNL     1      55.505 153.887  24.010  0.00  0.00    +0.295 HD
ENDBRANCH  12  14
ENDBRANCH   8  12
BRANCH   7  16
ATOM     16  S   UNL     1      53.913 152.417  24.101  0.00  0.00    -0.144 S 
ATOM     17  H   UNL     1      54.922 153.033  23.429  0.00  0.00    +0.107 HD
ENDBRANCH   7  16
TORSDOF 4
