REMARK  Name = =
REMARK  1 active torsions:
REMARK  status: ('A' for Active; 'I' for Inactive)
REMARK    1  A    between atoms: C_1  and  N_17
REMARK                            x       y       z     vdW  Elec       q    Type
REMARK                         _______ _______ _______ _____ _____    ______ ____
ROOT
ATOM      1  C   UNL     1      58.608 160.266  40.538  0.00  0.00    +0.045 C 
ATOM      2  C   UNL     1      58.586 159.006  39.969  0.00  0.00    +0.014 C 
ATOM      3  C   UNL     1      58.884 158.844  38.632  0.00  0.00    +0.001 C 
ATOM      4  C   UNL     1      59.205 159.932  37.846  0.00  0.00    +0.003 C 
ATOM      5  C   UNL     1      59.218 161.184  38.447  0.00  0.00    +0.043 C 
ATOM      6  C   UNL     1      58.926 161.379  39.780  0.00  0.00    +0.055 C 
ATOM      7  C   UNL     1      58.939 162.693  40.417  0.00  0.00    +0.197 C 
ATOM      8  O   UNL     1      58.669 162.833  41.624  0.00  0.00    -0.287 OA
ATOM      9  C   UNL     1      59.275 163.858  39.608  0.00  0.00    +0.042 C 
ATOM     10  C   UNL     1      59.311 165.140  40.131  0.00  0.00    +0.003 C 
ATOM     11  C   UNL     1      59.632 166.237  39.350  0.00  0.00    +0.000 C 
ATOM     12  C   UNL     1      59.932 166.086  38.013  0.00  0.00    +0.000 C 
ATOM     13  C   UNL     1      59.902 164.803  37.464  0.00  0.00    +0.003 C 
ATOM     14  C   UNL     1      59.575 163.712  38.268  0.00  0.00    +0.042 C 
ATOM     15  C   UNL     1      59.556 162.387  37.656  0.00  0.00    +0.196 C 
ATOM     16  O   UNL     1      59.823 162.214  36.439  0.00  0.00    -0.287 OA
ENDROOT
BRANCH   1  17
ATOM     17  N   UNL     1      58.305 160.470  41.921  0.00  0.00    -0.357 N 
ATOM     18  H   UNL     1      58.074 159.703  42.493  0.00  0.00    +0.142 HD
ATOM     19  H   UNL     1      58.327 161.378  42.301  0.00  0.00    +0.142 HD
ENDBRANCH   1  17
TORSDOF 1
