REMARK  Name = =
REMARK  7 active torsions:
REMARK  status: ('A' for Active; 'I' for Inactive)
REMARK    1  A    between atoms: C_2  and  C_9
REMARK    2  A    between atoms: C_7  and  S_19
REMARK    3  A    between atoms: C_8  and  C_16
REMARK    4  A    between atoms: C_10  and  S_12
REMARK    5  A    between atoms: S_12  and  C_13
REMARK    6  A    between atoms: C_13  and  N_15
REMARK    7  A    between atoms: C_16  and  O_18
REMARK                            x       y       z     vdW  Elec       q    Type
REMARK                         _______ _______ _______ _____ _____    ______ ____
ROOT
ATOM      1  N   UNL     1      52.397 153.486  27.251  0.00  0.00    -0.251 N 
ATOM      2  C   UNL     1      52.148 154.145  25.965  0.00  0.00    +0.107 C 
ATOM      3  C   UNL     1      51.368 152.940  25.531  0.00  0.00    +0.110 C 
ATOM      4  C   UNL     1      52.072 152.239  26.670  0.00  0.00    +0.232 C 
ATOM      5  O   UNL     1      52.244 151.029  26.914  0.00  0.00    -0.274 OA
ATOM      6  C   UNL     1      51.435 155.359  26.432  0.00  0.00    +0.058 C 
ATOM      7  C   UNL     1      52.224 155.690  27.682  0.00  0.00    +0.021 C 
ATOM      8  C   UNL     1      52.766 154.538  28.113  0.00  0.00    +0.132 C 
ENDROOT
BRANCH   2   9
ATOM      9  C   UNL     1      53.356 154.453  25.165  0.00  0.00    +0.059 C 
ATOM     10  C   UNL     1      54.223 153.566  24.760  0.00  0.00    +0.046 C 
ATOM     11 CL   UNL     1      53.603 156.142  24.751  0.00  0.00    -0.085 Cl
BRANCH  10  12
ATOM     12  S   UNL     1      55.636 154.066  23.802  0.00  0.00    -0.065 S 
BRANCH  12  13
ATOM     13  C   UNL     1      55.359 153.849  22.050  0.00  0.00    +0.109 C 
ATOM     14  S   UNL     1      56.470 154.479  21.033  0.00  0.00    -0.028 S 
BRANCH  13  15
ATOM     15  N   UNL     1      54.229 153.164  21.526  0.00  0.00    -0.347 N 
ATOM     16  H   UNL     1      53.557 152.783  22.137  0.00  0.00    +0.143 HD
ATOM     17  H   UNL     1      54.118 153.071  20.552  0.00  0.00    +0.143 HD
ENDBRANCH  13  15
ENDBRANCH  12  13
ENDBRANCH  10  12
ENDBRANCH   2   9
BRANCH   8  18
ATOM     18  C   UNL     1      53.603 154.408  29.299  0.00  0.00    +0.352 C 
ATOM     19  O   UNL     1      53.596 155.259  30.219  0.00  0.00    -0.244 OA
BRANCH  18  20
ATOM     20  O   UNL     1      54.449 153.326  29.455  0.00  0.00    -0.476 OA
ATOM     21  H   UNL     1      54.489 152.663  28.794  0.00  0.00    +0.295 HD
ENDBRANCH  18  20
ENDBRANCH   8  18
BRANCH   7  22
ATOM     22  S   UNL     1      52.408 157.295  28.444  0.00  0.00    -0.144 S 
ATOM     23  H   UNL     1      51.716 158.220  27.726  0.00  0.00    +0.107 HD
ENDBRANCH   7  22
TORSDOF 7
