REMARK  Name = =
REMARK  2 active torsions:
REMARK  status: ('A' for Active; 'I' for Inactive)
REMARK    1  A    between atoms: C_1  and  N_24
REMARK    2  A    between atoms: C_13  and  C_17
REMARK                            x       y       z     vdW  Elec       q    Type
REMARK                         _______ _______ _______ _____ _____    ______ ____
ROOT
ATOM      1  C   UNL     1      58.599 160.394  40.802  0.00  0.00    +0.045 C 
ATOM      2  C   UNL     1      58.573 159.187  40.159  0.00  0.00    +0.014 C 
ATOM      3  C   UNL     1      58.912 159.110  38.811  0.00  0.00    +0.001 C 
ATOM      4  C   UNL     1      59.285 160.238  38.083  0.00  0.00    +0.003 C 
ATOM      5  C   UNL     1      59.306 161.448  38.752  0.00  0.00    +0.043 C 
ATOM      6  C   UNL     1      58.969 161.510  40.082  0.00  0.00    +0.055 C 
ATOM      7  C   UNL     1      59.054 162.834  40.752  0.00  0.00    +0.197 C 
ATOM      8  O   UNL     1      58.750 162.942  41.965  0.00  0.00    -0.287 OA
ATOM      9  C   UNL     1      59.493 163.999  39.979  0.00  0.00    +0.042 C 
ATOM     10  C   UNL     1      59.656 165.182  40.697  0.00  0.00    +0.003 C 
ATOM     11  C   UNL     1      60.163 166.258  40.027  0.00  0.00    -0.000 C 
ATOM     12  C   UNL     1      60.488 166.163  38.693  0.00  0.00    -0.004 C 
ATOM     13  C   UNL     1      60.346 165.036  37.951  0.00  0.00    -0.017 C 
ATOM     14  C   UNL     1      59.830 163.924  38.634  0.00  0.00    +0.038 C 
ATOM     15  C   UNL     1      59.740 162.634  37.995  0.00  0.00    +0.195 C 
ATOM     16  O   UNL     1      60.030 162.492  36.806  0.00  0.00    -0.287 OA
ENDROOT
BRANCH  13  17
ATOM     17  C   UNL     1      60.539 164.965  36.471  0.00  0.00    +0.052 C 
ATOM     18  C   UNL     1      61.936 165.113  36.008  0.00  0.00    +0.036 C 
ATOM     19  C   UNL     1      62.074 166.486  35.411  0.00  0.00    +0.116 C 
ATOM     20  O   UNL     1      61.098 167.207  36.128  0.00  0.00    -0.358 OA
ATOM     21  C   UNL     1      59.980 166.388  35.965  0.00  0.00    +0.119 C 
ATOM     22  C   UNL     1      59.936 166.245  34.460  0.00  0.00    +0.032 C 
ATOM     23  C   UNL     1      61.411 166.421  34.022  0.00  0.00    +0.032 C 
ENDBRANCH  13  17
BRANCH   1  24
ATOM     24  N   UNL     1      58.254 160.554  42.162  0.00  0.00    -0.357 N 
ATOM     25  H   UNL     1      57.986 159.772  42.697  0.00  0.00    +0.142 HD
ATOM     26  H   UNL     1      58.281 161.447  42.575  0.00  0.00    +0.142 HD
ENDBRANCH   1  24
TORSDOF 2
