REMARK  Name = =
REMARK  7 active torsions:
REMARK  status: ('A' for Active; 'I' for Inactive)
REMARK    1  A    between atoms: C_1  and  C_3
REMARK    2  A    between atoms: C_1  and  O_15
REMARK    3  A    between atoms: C_4  and  N_9
REMARK    4  A    between atoms: C_6  and  O_14
REMARK    5  A    between atoms: O_15  and  C_16
REMARK    6  A    between atoms: C_19  and  O_22
REMARK    7  A    between atoms: O_22  and  C_23
REMARK                            x       y       z     vdW  Elec       q    Type
REMARK                         _______ _______ _______ _____ _____    ______ ____
ROOT
ATOM      1  C   UNL     1      52.916 154.711  27.643  0.00  0.00    +0.347 C 
ATOM      2  O   UNL     1      53.333 154.420  28.774  0.00  0.00    -0.244 OA
ENDROOT
BRANCH   1   3
ATOM      3  C   UNL     1      53.435 153.988  26.487  0.00  0.00    +0.090 C 
ATOM      4  C   UNL     1      54.405 153.044  26.612  0.00  0.00    +0.057 C 
ATOM      5  C   UNL     1      54.887 152.422  25.439  0.00  0.00    +0.051 C 
ATOM      6  C   UNL     1      54.424 152.721  24.186  0.00  0.00    +0.135 C 
ATOM      7  C   UNL     1      53.438 153.680  24.089  0.00  0.00    +0.037 C 
ATOM      8  C   UNL     1      52.952 154.301  25.206  0.00  0.00    +0.011 C 
BRANCH   4   9
ATOM      9  N   UNL     1      54.915 152.635  27.862  0.00  0.00    -0.307 N 
ATOM     10  C   UNL     1      54.155 152.269  29.022  0.00  0.00    +0.091 C 
ATOM     11  C   UNL     1      55.084 152.382  30.207  0.00  0.00    +0.023 C 
ATOM     12  C   UNL     1      56.434 152.789  29.659  0.00  0.00    +0.023 C 
ATOM     13  C   UNL     1      56.307 152.513  28.195  0.00  0.00    +0.091 C 
ENDBRANCH   4   9
BRANCH   6  14
ATOM     14  O   UNL     1      54.905 152.103  23.041  0.00  0.00    -0.505 OA
ATOM     15  H   UNL     1      55.575 151.451  23.107  0.00  0.00    +0.292 HD
ENDBRANCH   6  14
ENDBRANCH   1   3
BRANCH   1  16
ATOM     16  O   UNL     1      51.972 155.716  27.538  0.00  0.00    -0.421 OA
BRANCH  16  17
ATOM     17  C   UNL     1      51.621 156.549  28.588  0.00  0.00    +0.149 C 
ATOM     18  C   UNL     1      50.543 156.188  29.368  0.00  0.00    +0.041 C 
ATOM     19  C   UNL     1      50.135 156.953  30.419  0.00  0.00    +0.041 C 
ATOM     20  C   UNL     1      50.814 158.121  30.715  0.00  0.00    +0.145 C 
ATOM     21  C   UNL     1      51.896 158.495  29.943  0.00  0.00    +0.041 C 
ATOM     22  C   UNL     1      52.300 157.713  28.881  0.00  0.00    +0.041 C 
BRANCH  20  23
ATOM     23  O   UNL     1      50.361 158.865  31.793  0.00  0.00    -0.453 OA
BRANCH  23  24
ATOM     24  C   UNL     1      49.394 159.844  31.609  0.00  0.00    +0.145 C 
ATOM     25  C   UNL     1      48.046 159.595  31.601  0.00  0.00    +0.037 C 
ATOM     26  C   UNL     1      47.141 160.593  31.416  0.00  0.00    +0.003 C 
ATOM     27  C   UNL     1      47.587 161.893  31.229  0.00  0.00    +0.000 C 
ATOM     28  C   UNL     1      48.939 162.149  31.235  0.00  0.00    +0.003 C 
ATOM     29  C   UNL     1      49.829 161.133  31.423  0.00  0.00    +0.037 C 
ENDBRANCH  23  24
ENDBRANCH  20  23
ENDBRANCH  16  17
ENDBRANCH   1  16
TORSDOF 7
