REMARK  Name = =
REMARK  9 active torsions:
REMARK  status: ('A' for Active; 'I' for Inactive)
REMARK    1  A    between atoms: C_1  and  O_7
REMARK    2  A    between atoms: C_4  and  O_22
REMARK    3  A    between atoms: O_7  and  C_8
REMARK    4  A    between atoms: C_8  and  C_10
REMARK    5  A    between atoms: C_11  and  N_16
REMARK    6  A    between atoms: C_13  and  O_21
REMARK    7  A    between atoms: O_22  and  C_23
REMARK    8  A    between atoms: C_28  and  C_29
REMARK    9  A    between atoms: C_31  and  O_36
REMARK                            x       y       z     vdW  Elec       q    Type
REMARK                         _______ _______ _______ _____ _____    ______ ____
ROOT
ATOM      1  C   UNL     1      51.973 155.232  28.003  0.00  0.00    +0.149 C 
ATOM      2  C   UNL     1      50.862 155.142  28.817  0.00  0.00    +0.041 C 
ATOM      3  C   UNL     1      50.413 156.197  29.575  0.00  0.00    +0.041 C 
ATOM      4  C   UNL     1      51.057 157.397  29.554  0.00  0.00    +0.145 C 
ATOM      5  C   UNL     1      52.179 157.507  28.740  0.00  0.00    +0.041 C 
ATOM      6  C   UNL     1      52.622 156.456  27.989  0.00  0.00    +0.041 C 
ENDROOT
BRANCH   1   7
ATOM      7  O   UNL     1      52.421 154.162  27.239  0.00  0.00    -0.421 OA
BRANCH   7   8
ATOM      8  C   UNL     1      53.056 153.054  27.754  0.00  0.00    +0.347 C 
ATOM      9  O   UNL     1      52.289 152.284  28.436  0.00  0.00    -0.244 OA
BRANCH   8  10
ATOM     10  C   UNL     1      54.448 152.701  27.597  0.00  0.00    +0.090 C 
ATOM     11  C   UNL     1      55.054 152.623  26.376  0.00  0.00    +0.057 C 
ATOM     12  C   UNL     1      56.413 152.227  26.346  0.00  0.00    +0.051 C 
ATOM     13  C   UNL     1      57.137 151.925  27.460  0.00  0.00    +0.135 C 
ATOM     14  C   UNL     1      56.512 152.009  28.683  0.00  0.00    +0.037 C 
ATOM     15  C   UNL     1      55.183 152.392  28.752  0.00  0.00    +0.011 C 
BRANCH  11  16
ATOM     16  N   UNL     1      54.410 152.947  25.171  0.00  0.00    -0.307 N 
ATOM     17  C   UNL     1      54.051 154.246  24.663  0.00  0.00    +0.091 C 
ATOM     18  C   UNL     1      54.791 154.152  23.295  0.00  0.00    +0.023 C 
ATOM     19  C   UNL     1      54.582 152.699  22.891  0.00  0.00    +0.023 C 
ATOM     20  C   UNL     1      53.987 152.031  24.139  0.00  0.00    +0.091 C 
ENDBRANCH  11  16
BRANCH  13  21
ATOM     21  O   UNL     1      58.478 151.539  27.367  0.00  0.00    -0.505 OA
ATOM     22  H   UNL     1      58.893 151.485  26.529  0.00  0.00    +0.292 HD
ENDBRANCH  13  21
ENDBRANCH   8  10
ENDBRANCH   7   8
ENDBRANCH   1   7
BRANCH   4  23
ATOM     23  O   UNL     1      50.692 158.506  30.271  0.00  0.00    -0.454 OA
BRANCH  23  24
ATOM     24  C   UNL     1      49.499 159.168  30.161  0.00  0.00    +0.143 C 
ATOM     25  C   UNL     1      48.370 158.599  29.637  0.00  0.00    +0.037 C 
ATOM     26  C   UNL     1      47.216 159.346  29.568  0.00  0.00    +0.003 C 
ATOM     27  C   UNL     1      47.154 160.650  30.004  0.00  0.00    -0.000 C 
ATOM     28  C   UNL     1      48.298 161.218  30.533  0.00  0.00    +0.000 C 
ATOM     29  C   UNL     1      49.467 160.500  30.618  0.00  0.00    +0.030 C 
BRANCH  29  30
ATOM     30  C   UNL     1      50.668 161.107  31.180  0.00  0.00    +0.104 C 
ATOM     31  N   UNL     1      50.609 161.386  32.591  0.00  0.00    -0.244 N 
ATOM     32  C   UNL     1      49.589 161.114  33.487  0.00  0.00    +0.402 C 
ATOM     33  O   UNL     1      49.699 161.410  34.700  0.00  0.00    -0.226 OA
ATOM     34  C   UNL     1      51.861 162.051  32.876  0.00  0.00    +0.097 C 
ATOM     35  C   UNL     1      52.032 162.954  31.657  0.00  0.00    +0.024 C 
ATOM     36  C   UNL     1      50.909 162.522  30.676  0.00  0.00    +0.026 C 
BRANCH  32  37
ATOM     37  O   UNL     1      48.418 160.511  33.080  0.00  0.00    -0.466 OA
ATOM     38  H   UNL     1      48.300 160.275  32.181  0.00  0.00    +0.297 HD
ENDBRANCH  32  37
ENDBRANCH  29  30
ENDBRANCH  23  24
ENDBRANCH   4  23
TORSDOF 9
