REMARK  Name = =
REMARK  11 active torsions:
REMARK  status: ('A' for Active; 'I' for Inactive)
REMARK    1  A    between atoms: C_1  and  O_7
REMARK    2  A    between atoms: C_4  and  O_26
REMARK    3  A    between atoms: C_5  and  S_22
REMARK    4  A    between atoms: O_7  and  C_8
REMARK    5  A    between atoms: C_8  and  C_10
REMARK    6  A    between atoms: C_11  and  N_16
REMARK    7  A    between atoms: C_13  and  O_21
REMARK    8  A    between atoms: S_22  and  C_23
REMARK    9  A    between atoms: O_26  and  C_27
REMARK   10  A    between atoms: C_32  and  C_33
REMARK   11  A    between atoms: C_35  and  O_40
REMARK                            x       y       z     vdW  Elec       q    Type
REMARK                         _______ _______ _______ _____ _____    ______ ____
ROOT
ATOM      1  C   UNL     1      52.680 155.055  27.716  0.00  0.00    +0.149 C 
ATOM      2  C   UNL     1      52.797 156.204  26.977  0.00  0.00    +0.041 C 
ATOM      3  C   UNL     1      52.350 157.409  27.506  0.00  0.00    +0.041 C 
ATOM      4  C   UNL     1      51.776 157.542  28.759  0.00  0.00    +0.151 C 
ATOM      5  C   UNL     1      51.681 156.324  29.472  0.00  0.00    +0.071 C 
ATOM      6  C   UNL     1      52.119 155.125  28.965  0.00  0.00    +0.047 C 
ENDROOT
BRANCH   1   7
ATOM      7  O   UNL     1      53.137 153.887  27.150  0.00  0.00    -0.421 OA
BRANCH   7   8
ATOM      8  C   UNL     1      52.397 152.767  26.885  0.00  0.00    +0.347 C 
ATOM      9  O   UNL     1      51.179 152.831  27.295  0.00  0.00    -0.244 OA
BRANCH   8  10
ATOM     10  C   UNL     1      52.819 151.565  26.220  0.00  0.00    +0.090 C 
ATOM     11  C   UNL     1      53.917 151.520  25.423  0.00  0.00    +0.057 C 
ATOM     12  C   UNL     1      54.274 150.325  24.751  0.00  0.00    +0.051 C 
ATOM     13  C   UNL     1      53.519 149.193  24.894  0.00  0.00    +0.135 C 
ATOM     14  C   UNL     1      52.414 149.262  25.708  0.00  0.00    +0.037 C 
ATOM     15  C   UNL     1      52.058 150.416  26.365  0.00  0.00    +0.011 C 
BRANCH  11  16
ATOM     16  N   UNL     1      54.767 152.613  25.244  0.00  0.00    -0.307 N 
ATOM     17  C   UNL     1      55.906 152.983  26.030  0.00  0.00    +0.091 C 
ATOM     18  C   UNL     1      56.966 153.071  24.897  0.00  0.00    +0.023 C 
ATOM     19  C   UNL     1      56.154 153.757  23.800  0.00  0.00    +0.023 C 
ATOM     20  C   UNL     1      54.690 153.601  24.197  0.00  0.00    +0.091 C 
ENDBRANCH  11  16
BRANCH  13  21
ATOM     21  O   UNL     1      53.857 147.993  24.233  0.00  0.00    -0.505 OA
ATOM     22  H   UNL     1      54.613 147.959  23.681  0.00  0.00    +0.292 HD
ENDBRANCH  13  21
ENDBRANCH   8  10
ENDBRANCH   7   8
ENDBRANCH   1   7
BRANCH   5  23
ATOM     23  S   UNL     1      50.884 156.395  31.077  0.00  0.00    -0.027 S 
BRANCH  23  24
ATOM     24  C   UNL     1      49.300 157.164  30.988  0.00  0.00    +0.274 C 
ATOM     25  O   UNL     1      48.800 157.491  29.886  0.00  0.00    -0.263 OA
ATOM     26  N   UNL     1      48.576 157.418  32.178  0.00  0.00    -0.320 N 
ATOM     27  H   UNL     1      48.958 157.166  33.050  0.00  0.00    +0.146 HD
ATOM     28  H   UNL     1      47.691 157.847  32.134  0.00  0.00    +0.146 HD
ENDBRANCH  23  24
ENDBRANCH   5  23
BRANCH   4  29
ATOM     29  O   UNL     1      51.310 158.624  29.361  0.00  0.00    -0.453 OA
BRANCH  29  30
ATOM     30  C   UNL     1      50.340 159.507  29.194  0.00  0.00    +0.143 C 
ATOM     31  C   UNL     1      49.539 159.712  28.055  0.00  0.00    +0.037 C 
ATOM     32  C   UNL     1      48.552 160.673  28.008  0.00  0.00    +0.003 C 
ATOM     33  C   UNL     1      48.296 161.481  29.063  0.00  0.00    -0.000 C 
ATOM     34  C   UNL     1      49.077 161.296  30.200  0.00  0.00    +0.000 C 
ATOM     35  C   UNL     1      50.053 160.360  30.269  0.00  0.00    +0.030 C 
BRANCH  35  36
ATOM     36  C   UNL     1      50.907 160.331  31.472  0.00  0.00    +0.104 C 
ATOM     37  N   UNL     1      51.535 161.628  31.677  0.00  0.00    -0.244 N 
ATOM     38  C   UNL     1      52.803 162.068  31.362  0.00  0.00    +0.402 C 
ATOM     39  O   UNL     1      53.710 161.369  30.810  0.00  0.00    -0.226 OA
ATOM     40  C   UNL     1      50.510 162.465  32.343  0.00  0.00    +0.097 C 
ATOM     41  C   UNL     1      49.868 161.488  33.316  0.00  0.00    +0.024 C 
ATOM     42  C   UNL     1      50.078 160.133  32.737  0.00  0.00    +0.026 C 
BRANCH  38  43
ATOM     43  O   UNL     1      53.241 163.389  31.629  0.00  0.00    -0.466 OA
ATOM     44  H   UNL     1      52.660 164.002  32.036  0.00  0.00    +0.297 HD
ENDBRANCH  38  43
ENDBRANCH  35  36
ENDBRANCH  29  30
ENDBRANCH   4  29
TORSDOF 11
