REMARK  Name = =
REMARK  6 active torsions:
REMARK  status: ('A' for Active; 'I' for Inactive)
REMARK    1  A    between atoms: C_1  and  C_10
REMARK    2  A    between atoms: C_6  and  S_16
REMARK    3  A    between atoms: C_7  and  N_20
REMARK    4  A    between atoms: C_10  and  C_13
REMARK    5  A    between atoms: S_16  and  O_19
REMARK    6  A    between atoms: N_20  and  N_21
REMARK                            x       y       z     vdW  Elec       q    Type
REMARK                         _______ _______ _______ _____ _____    ______ ____
ROOT
ATOM      1  C   UNL     1     -14.415  -9.322  21.593  0.00  0.00    +0.153 C 
ATOM      2  O   UNL     1     -14.283  -9.558  20.258  0.00  0.00    -0.345 OA
ATOM      3  C   UNL     1     -14.281  -8.509  19.414  0.00  0.00    +0.208 C 
ATOM      4  C   UNL     1     -13.767  -7.241  20.009  0.00  0.00    +0.204 C 
ATOM      5  O   UNL     1     -14.076  -6.143  19.581  0.00  0.00    -0.292 OA
ATOM      6  C   UNL     1     -12.846  -7.413  21.167  0.00  0.00    +0.210 C 
ATOM      7  C   UNL     1     -13.611  -8.228  22.188  0.00  0.00    +0.127 C 
ENDROOT
BRANCH   1  10
ATOM      8  N   UNL     1     -16.895  -7.208  21.683  0.00  0.00    -0.281 NA
ATOM      9  C   UNL     1     -16.360  -8.106  22.673  0.00  0.00    +0.093 C 
ATOM     10  C   UNL     1     -15.889  -9.261  21.905  0.00  0.00    +0.120 C 
ATOM     11  N   UNL     1     -16.654  -9.174  20.681  0.00  0.00    -0.196 NA
ATOM     12  C   UNL     1     -17.211  -8.024  20.568  0.00  0.00    +0.161 C 
ATOM     13  H   UNL     1     -16.202  -6.505  21.426  0.00  0.00    +0.125 HD
BRANCH  10  14
ATOM     14  C   UNL     1     -16.339 -10.506  22.592  0.00  0.00    -0.001 C 
ATOM     15  C   UNL     1     -16.845 -10.415  23.809  0.00  0.00    +0.032 C 
ATOM     16  I   UNL     1     -17.515 -12.105  24.880  0.00  0.00    -0.042 I 
ENDBRANCH  10  14
ENDBRANCH   1  10
BRANCH   6  17
ATOM     17  S   UNL     1     -11.386  -8.219  20.575  0.00  0.00    -0.003 S 
ATOM     18  O   UNL     1     -10.176  -7.900  21.376  0.00  0.00    -0.072 OA
ATOM     19  O   UNL     1     -11.541  -9.711  20.547  0.00  0.00    -0.072 OA
BRANCH  17  20
ATOM     20  O   UNL     1     -11.210  -7.744  18.951  0.00  0.00    -0.271 OA
ATOM     21  H   UNL     1     -11.105  -6.781  18.905  0.00  0.00    +0.243 HD
ENDBRANCH  17  20
ENDBRANCH   6  17
BRANCH   7  22
ATOM     22  N   UNL     1     -12.690  -8.719  23.209  0.00  0.00    -0.246 NA
ATOM     23  H   UNL     1     -11.888  -9.145  22.745  0.00  0.00    +0.141 HD
BRANCH  22  24
ATOM     24  N   UNL     1     -12.236  -7.727  24.045  0.00  0.00    -0.270 NA
ATOM     25  H   UNL     1     -13.028  -7.291  24.517  0.00  0.00    +0.137 HD
ATOM     26  H   UNL     1     -11.736  -7.025  23.499  0.00  0.00    +0.137 HD
ENDBRANCH  22  24
ENDBRANCH   7  22
TORSDOF 6
