MODEL 1
REMARK VINA RESULT:    -8.741      0.000      0.000
REMARK INTER + INTRA:         -12.991
REMARK INTER:                 -11.552
REMARK INTRA:                  -1.439
REMARK UNBOUND:                -1.439
REMARK  Name = =
REMARK  6 active torsions:
REMARK  status: ('A' for Active; 'I' for Inactive)
REMARK    1  A    between atoms: N_1  and  N_19
REMARK    2  A    between atoms: C_3  and  C_26
REMARK    3  A    between atoms: N_4  and  C_37
REMARK    4  A    between atoms: C_5  and  C_7
REMARK    5  A    between atoms: C_9  and  S_18
REMARK    6  A    between atoms: C_31  and  C_32
REMARK                            x       y       z     vdW  Elec       q    Type
REMARK                         _______ _______ _______ _____ _____    ______ ____
ROOT
ATOM      1  N   UNL     1       0.411  -8.609  27.323  0.00  0.00    -0.203 NA
ATOM      2  C   UNL     1       1.729  -8.020  27.415  0.00  0.00    +0.116 C 
ATOM      3  C   UNL     1       1.461  -6.511  27.428  0.00  0.00    +0.114 C 
ATOM      4  N   UNL     1       0.643  -6.349  28.609  0.00  0.00    -0.285 N 
ATOM      5  C   UNL     1      -0.713  -6.830  28.500  0.00  0.00    +0.132 C 
ATOM      6  C   UNL     1      -0.516  -8.361  28.323  0.00  0.00    +0.118 C 
ENDROOT
BRANCH   5   7
ATOM      7  C   UNL     1      -1.567  -6.597  29.662  0.00  0.00    +0.080 C 
ATOM      8  C   UNL     1      -1.620  -7.646  30.593  0.00  0.00    +0.022 C 
ATOM      9  C   UNL     1      -2.331  -7.543  31.745  0.00  0.00    +0.025 C 
ATOM     10  C   UNL     1      -3.010  -6.362  31.981  0.00  0.00    +0.040 C 
ATOM     11  C   UNL     1      -2.948  -5.343  31.053  0.00  0.00    +0.134 C 
ATOM     12  N   UNL     1      -3.660  -4.164  31.361  0.00  0.00    -0.266 N 
ATOM     13  C   UNL     1      -4.234  -3.782  32.616  0.00  0.00    +0.127 C 
ATOM     14  C   UNL     1      -5.401  -2.910  32.158  0.00  0.00    +0.166 C 
ATOM     15  O   UNL     1      -5.296  -2.817  30.766  0.00  0.00    -0.332 OA
ATOM     16  C   UNL     1      -3.962  -3.094  30.440  0.00  0.00    +0.242 C 
ATOM     17  N   UNL     1      -2.233  -5.453  29.897  0.00  0.00    -0.233 NA
BRANCH   9  18
ATOM     18  S   UNL     1      -2.422  -8.890  32.946  0.00  0.00    -0.141 S 
ATOM     19  H   UNL     1      -2.142  -8.411  34.188  0.00  0.00    +0.107 HD
ENDBRANCH   9  18
ENDBRANCH   5   7
BRANCH   1  20
ATOM     20  N   UNL     1      -0.055  -8.750  26.019  0.00  0.00    -0.260 N 
ATOM     21  C   UNL     1       0.458  -9.718  25.118  0.00  0.00    +0.142 C 
ATOM     22  N   UNL     1       1.707  -9.712  24.645  0.00  0.00    -0.228 NA
ATOM     23  C   UNL     1       2.172 -10.624  23.779  0.00  0.00    +0.100 C 
ATOM     24  C   UNL     1       1.353 -11.627  23.334  0.00  0.00    +0.021 C 
ATOM     25  C   UNL     1       0.035 -11.694  23.790  0.00  0.00    +0.004 C 
ATOM     26  C   UNL     1      -0.382 -10.732  24.676  0.00  0.00    +0.035 C 
ATOM     27  H   UNL     1      -0.771  -8.150  25.707  0.00  0.00    +0.168 HD
ENDBRANCH   1  20
BRANCH   3  28
ATOM     28  C   UNL     1       2.618  -5.656  27.298  0.00  0.00    -0.006 C 
ATOM     29  C   UNL     1       3.719  -5.956  27.960  0.00  0.00    -0.003 C 
ATOM     30  C   UNL     1       4.941  -5.141  27.878  0.00  0.00    -0.000 C 
ATOM     31  C   UNL     1       5.005  -4.081  27.133  0.00  0.00    -0.000 C 
ATOM     32  C   UNL     1       3.842  -3.691  26.344  0.00  0.00    -0.003 C 
ATOM     33  C   UNL     1       2.559  -4.357  26.585  0.00  0.00    -0.008 C 
BRANCH  33  34
ATOM     34  C   UNL     1       1.640  -3.361  27.243  0.00  0.00    +0.108 C 
ATOM     35  N   UNL     1       0.422  -3.333  26.407  0.00  0.00    -0.268 NA
ATOM     36  C   UNL     1       0.042  -1.942  26.392  0.00  0.00    +0.217 C 
ATOM     37  O   UNL     1       1.251  -1.276  26.283  0.00  0.00    -0.336 OA
ATOM     38  C   UNL     1       2.066  -1.942  27.175  0.00  0.00    +0.164 C 
ATOM     39  H   UNL     1      -0.315  -3.905  26.820  0.00  0.00    +0.126 HD
ENDBRANCH  33  34
ENDBRANCH   3  28
BRANCH   4  40
ATOM     40  C   UNL     1       1.159  -5.844  29.800  0.00  0.00    +0.132 C 
ATOM     41  C   UNL     1       1.182  -4.524  30.200  0.00  0.00    +0.034 C 
ATOM     42  C   UNL     1       1.693  -4.162  31.441  0.00  0.00    +0.004 C 
ATOM     43  C   UNL     1       2.189  -5.113  32.297  0.00  0.00    +0.021 C 
ATOM     44  C   UNL     1       2.164  -6.425  31.892  0.00  0.00    +0.100 C 
ATOM     45  N   UNL     1       1.670  -6.720  30.709  0.00  0.00    -0.229 NA
ENDBRANCH   4  40
TORSDOF 6
ENDMDL
