REMARK  Name = =
REMARK  0 active torsions:
REMARK  status: ('A' for Active; 'I' for Inactive)
REMARK                            x       y       z     vdW  Elec       q    Type
REMARK                         _______ _______ _______ _____ _____    ______ ____
ROOT
ATOM      1  N   UNL     1      51.956 156.354  28.178  0.00  0.00    -0.284 NA
ATOM      2  C   UNL     1      52.806 155.865  27.182  0.00  0.00    +0.142 C 
ATOM      3  N   UNL     1      52.838 154.479  26.937  0.00  0.00    -0.284 NA
ATOM      4  C   UNL     1      51.764 153.714  27.495  0.00  0.00    +0.071 C 
ATOM      5  C   UNL     1      51.723 154.038  28.984  0.00  0.00    +0.034 C 
ATOM      6  C   UNL     1      51.407 155.485  29.124  0.00  0.00    +0.071 C 
ATOM      7  H   UNL     1      52.485 157.056  28.696  0.00  0.00    +0.125 HD
ATOM      8  H   UNL     1      53.711 154.115  27.320  0.00  0.00    +0.125 HD
ENDROOT
TORSDOF 0
