REMARK  Name = =
REMARK  2 active torsions:
REMARK  status: ('A' for Active; 'I' for Inactive)
REMARK    1  A    between atoms: N_3  and  N_7
REMARK    2  A    between atoms: N_7  and  N_10
REMARK                            x       y       z     vdW  Elec       q    Type
REMARK                         _______ _______ _______ _____ _____    ______ ____
ROOT
ATOM      1  N   UNL     1      52.708 156.051  28.452  0.00  0.00    -0.282 NA
ATOM      2  C   UNL     1      53.069 155.725  27.121  0.00  0.00    +0.165 C 
ATOM      3  N   UNL     1      52.698 154.475  26.615  0.00  0.00    -0.166 NA
ATOM      4  C   UNL     1      52.034 153.542  27.384  0.00  0.00    +0.097 C 
ATOM      5  C   UNL     1      52.081 153.817  28.891  0.00  0.00    +0.036 C 
ATOM      6  C   UNL     1      51.616 155.277  28.997  0.00  0.00    +0.071 C 
ATOM      7  H   UNL     1      53.525 155.907  29.046  0.00  0.00    +0.125 HD
ENDROOT
BRANCH   3   8
ATOM      8  N   UNL     1      53.648 153.991  25.678  0.00  0.00    -0.108 N 
ATOM      9  C   UNL     1      54.214 155.008  24.842  0.00  0.00    +0.339 C 
ATOM     10  O   UNL     1      55.050 154.661  23.955  0.00  0.00    -0.262 OA
BRANCH   8  11
ATOM     11  N   UNL     1      54.055 152.733  25.574  0.00  0.00    -0.157 NA
ATOM     12  C   UNL     1      53.834 151.644  25.049  0.00  0.00    +0.142 C 
ENDBRANCH   8  11
ENDBRANCH   3   8
TORSDOF 2
