REMARK  Name = =
REMARK  2 active torsions:
REMARK  status: ('A' for Active; 'I' for Inactive)
REMARK    1  A    between atoms: N_3  and  N_9
REMARK    2  A    between atoms: N_9  and  N_12
REMARK                            x       y       z     vdW  Elec       q    Type
REMARK                         _______ _______ _______ _____ _____    ______ ____
ROOT
ATOM      1  N   UNL     1      52.336 152.953  26.942  0.00  0.00    -0.269 N 
ATOM      2  C   UNL     1      52.190 153.914  28.002  0.00  0.00    +0.210 C 
ATOM      3  N   UNL     1      52.616 155.225  27.671  0.00  0.00    -0.194 N 
ATOM      4  C   UNL     1      52.394 155.719  26.381  0.00  0.00    +0.081 C 
ATOM      5  C   UNL     1      52.339 154.750  25.253  0.00  0.00    +0.013 C 
ATOM      6  C   UNL     1      52.438 153.312  25.570  0.00  0.00    +0.122 C 
ATOM      7  C   UNL     1      52.381 151.585  27.279  0.00  0.00    +0.157 C 
ATOM      8  N   UNL     1      51.394 150.993  27.824  0.00  0.00    -0.283 NA
ATOM      9  H   UNL     1      51.456 150.036  28.048  0.00  0.00    +0.188 HD
ENDROOT
BRANCH   3  10
ATOM     10  N   UNL     1      52.038 156.119  28.609  0.00  0.00    -0.092 N 
ATOM     11  C   UNL     1      50.913 155.749  29.383  0.00  0.00    +0.342 C 
ATOM     12  O   UNL     1      50.332 156.437  30.222  0.00  0.00    -0.261 OA
BRANCH  10  13
ATOM     13  N   UNL     1      52.619 157.342  28.734  0.00  0.00    -0.154 NA
ATOM     14  C   UNL     1      52.331 158.346  29.429  0.00  0.00    +0.142 C 
ENDBRANCH  10  13
ENDBRANCH   3  10
TORSDOF 2
