REMARK  Name = =
REMARK  5 active torsions:
REMARK  status: ('A' for Active; 'I' for Inactive)
REMARK    1  A    between atoms: C_1  and  C_17
REMARK    2  A    between atoms: C_8  and  O_25
REMARK    3  A    between atoms: C_9  and  O_24
REMARK    4  A    between atoms: N_13  and  N_19
REMARK    5  A    between atoms: N_19  and  N_22
REMARK                            x       y       z     vdW  Elec       q    Type
REMARK                         _______ _______ _______ _____ _____    ______ ____
ROOT
ATOM      1  C   UNL     1      49.810 158.191  30.689  0.00  0.00    +0.131 C 
ATOM      2  N   UNL     1      48.740 157.733  29.859  0.00  0.00    -0.289 NA
ATOM      3  C   UNL     1      48.339 158.602  28.809  0.00  0.00    +0.074 C 
ATOM      4  C   UNL     1      48.809 160.010  28.883  0.00  0.00    +0.043 C 
ATOM      5  C   UNL     1      48.905 160.428  30.298  0.00  0.00    -0.020 C 
ATOM      6  C   UNL     1      49.406 159.532  31.212  0.00  0.00    -0.002 C 
ATOM      7  C   UNL     1      49.525 159.862  32.557  0.00  0.00    +0.037 C 
ATOM      8  C   UNL     1      49.145 161.102  33.019  0.00  0.00    +0.167 C 
ATOM      9  C   UNL     1      48.638 162.011  32.091  0.00  0.00    +0.167 C 
ATOM     10  C   UNL     1      48.525 161.670  30.759  0.00  0.00    +0.035 C 
ATOM     11  H   UNL     1      47.929 157.574  30.457  0.00  0.00    +0.124 HD
ENDROOT
BRANCH   1  18
ATOM     12  N   UNL     1      51.443 157.280  29.044  0.00  0.00    -0.281 N 
ATOM     13  C   UNL     1      51.704 155.891  29.334  0.00  0.00    +0.189 C 
ATOM     14  N   UNL     1      52.694 155.312  28.512  0.00  0.00    -0.162 NA
ATOM     15  C   UNL     1      53.502 156.166  27.744  0.00  0.00    +0.098 C 
ATOM     16  C   UNL     1      52.837 157.322  27.094  0.00  0.00    +0.041 C 
ATOM     17  C   UNL     1      51.512 157.702  27.666  0.00  0.00    +0.095 C 
ATOM     18  C   UNL     1      51.124 158.245  30.033  0.00  0.00    +0.119 C 
ATOM     19  N   UNL     1      51.992 159.135  30.333  0.00  0.00    -0.287 NA
ATOM     20  H   UNL     1      51.786 159.812  31.017  0.00  0.00    +0.188 HD
BRANCH  14  21
ATOM     21  N   UNL     1      52.430 154.069  28.012  0.00  0.00    -0.108 N 
ATOM     22  C   UNL     1      51.956 153.046  28.870  0.00  0.00    +0.339 C 
ATOM     23  O   UNL     1      51.689 151.879  28.488  0.00  0.00    -0.262 OA
BRANCH  21  24
ATOM     24  N   UNL     1      52.598 153.713  26.653  0.00  0.00    -0.157 NA
ATOM     25  C   UNL     1      53.510 152.854  26.310  0.00  0.00    +0.142 C 
ENDBRANCH  21  24
ENDBRANCH  14  21
ENDBRANCH   1  18
BRANCH   9  26
ATOM     26  O   UNL     1      48.242 163.273  32.505  0.00  0.00    -0.503 OA
ATOM     27  H   UNL     1      48.315 163.514  33.407  0.00  0.00    +0.292 HD
ENDBRANCH   9  26
BRANCH   8  28
ATOM     28  O   UNL     1      49.244 161.485  34.352  0.00  0.00    -0.503 OA
ATOM     29  H   UNL     1      49.583 160.886  34.988  0.00  0.00    +0.292 HD
ENDBRANCH   8  28
TORSDOF 5
