REMARK  Name = =
REMARK  0 active torsions:
REMARK  status: ('A' for Active; 'I' for Inactive)
REMARK                            x       y       z     vdW  Elec       q    Type
REMARK                         _______ _______ _______ _____ _____    ______ ____
ROOT
ATOM      1  C   UNL     1      52.240 155.932  28.417  0.00  0.00    +0.087 C 
ATOM      2  N   UNL     1      51.733 155.788  29.793  0.00  0.00    -0.283 NA
ATOM      3  C   UNL     1      51.002 157.064  29.877  0.00  0.00    +0.142 C 
ATOM      4  N   UNL     1      52.035 157.995  29.475  0.00  0.00    -0.283 NA
ATOM      5  C   UNL     1      52.866 157.308  28.507  0.00  0.00    +0.087 C 
ATOM      6  H   UNL     1      52.486 155.729  30.478  0.00  0.00    +0.125 HD
ATOM      7  H   UNL     1      52.593 158.271  30.283  0.00  0.00    +0.125 HD
ENDROOT
TORSDOF 0
