REMARK  Name = =
REMARK  2 active torsions:
REMARK  status: ('A' for Active; 'I' for Inactive)
REMARK    1  A    between atoms: C_2  and  C_7
REMARK    2  A    between atoms: C_4  and  O_12
REMARK                            x       y       z     vdW  Elec       q    Type
REMARK                         _______ _______ _______ _____ _____    ______ ____
ROOT
ATOM      1  C   UNL     1      53.994 153.804  27.593  0.00  0.00    -0.003 C 
ATOM      2  C   UNL     1      52.673 154.163  27.830  0.00  0.00    -0.004 C 
ATOM      3  C   UNL     1      51.706 153.423  27.216  0.00  0.00    +0.034 C 
ATOM      4  C   UNL     1      51.997 152.351  26.384  0.00  0.00    +0.133 C 
ATOM      5  C   UNL     1      53.324 152.023  26.171  0.00  0.00    +0.037 C 
ATOM      6  C   UNL     1      54.335 152.748  26.774  0.00  0.00    +0.003 C 
ENDROOT
BRANCH   2   7
ATOM      7  C   UNL     1      52.396 155.282  28.702  0.00  0.00    +0.094 C 
ATOM      8  N   UNL     1      50.960 155.479  28.963  0.00  0.00    -0.280 NA
ATOM      9  C   UNL     1      51.084 156.717  29.753  0.00  0.00    +0.143 C 
ATOM     10  N   UNL     1      52.025 157.523  29.025  0.00  0.00    -0.282 NA
ATOM     11  C   UNL     1      52.734 156.636  28.114  0.00  0.00    +0.090 C 
ATOM     12  H   UNL     1      50.553 154.713  29.500  0.00  0.00    +0.125 HD
ATOM     13  H   UNL     1      52.683 157.961  29.670  0.00  0.00    +0.125 HD
ENDBRANCH   2   7
BRANCH   4  14
ATOM     14  O   UNL     1      50.954 151.641  25.790  0.00  0.00    -0.506 OA
ATOM     15  H   UNL     1      50.065 151.889  25.955  0.00  0.00    +0.292 HD
ENDBRANCH   4  14
TORSDOF 2
