REMARK  Name = =
REMARK  3 active torsions:
REMARK  status: ('A' for Active; 'I' for Inactive)
REMARK    1  A    between atoms: C_1  and  C_8
REMARK    2  A    between atoms: C_2  and  C_18
REMARK    3  A    between atoms: C_4  and  O_23
REMARK                            x       y       z     vdW  Elec       q    Type
REMARK                         _______ _______ _______ _____ _____    ______ ____
ROOT
ATOM      1  C   UNL     1      53.615 151.730  25.160  0.00  0.00    +0.015 C 
ATOM      2  C   UNL     1      53.079 151.085  26.240  0.00  0.00    -0.002 C 
ATOM      3  C   UNL     1      52.909 149.685  26.156  0.00  0.00    +0.034 C 
ATOM      4  C   UNL     1      53.271 148.959  25.040  0.00  0.00    +0.133 C 
ATOM      5  C   UNL     1      53.814 149.620  23.974  0.00  0.00    +0.037 C 
ATOM      6  C   UNL     1      53.981 150.987  24.035  0.00  0.00    +0.004 C 
ENDROOT
BRANCH   1   8
ATOM      7  C   UNL     1      52.387 153.899  24.831  0.00  0.00    +0.019 C 
ATOM      8  C   UNL     1      53.512 153.170  25.014  0.00  0.00    +0.082 C 
ATOM      9  N   UNL     1      54.739 153.833  24.963  0.00  0.00    -0.231 NA
ATOM     10  C   UNL     1      54.894 155.121  24.743  0.00  0.00    +0.135 C 
ATOM     11  C   UNL     1      53.743 155.872  24.546  0.00  0.00    +0.071 C 
ATOM     12  C   UNL     1      52.506 155.279  24.592  0.00  0.00    +0.008 C 
ATOM     13  C   UNL     1      53.900 157.215  24.265  0.00  0.00    +0.200 C 
ATOM     14  O   UNL     1      52.856 157.877  24.089  0.00  0.00    -0.286 OA
ATOM     15  C   UNL     1      55.149 157.817  24.180  0.00  0.00    +0.058 C 
ATOM     16  C   UNL     1      56.255 157.047  24.392  0.00  0.00    +0.066 C 
ATOM     17  N   UNL     1      56.090 155.730  24.662  0.00  0.00    -0.297 N 
ATOM     18  H   UNL     1      56.896 155.184  24.808  0.00  0.00    +0.154 HD
ENDBRANCH   1   8
BRANCH   2  19
ATOM     19  C   UNL     1      52.863 151.737  27.532  0.00  0.00    +0.094 C 
ATOM     20  N   UNL     1      51.325 151.432  27.780  0.00  0.00    -0.280 NA
ATOM     21  C   UNL     1      51.193 152.242  28.967  0.00  0.00    +0.143 C 
ATOM     22  N   UNL     1      51.616 153.553  28.437  0.00  0.00    -0.282 NA
ATOM     23  C   UNL     1      52.614 153.239  27.467  0.00  0.00    +0.090 C 
ATOM     24  H   UNL     1      51.144 150.444  27.956  0.00  0.00    +0.125 HD
ATOM     25  H   UNL     1      52.005 154.134  29.180  0.00  0.00    +0.125 HD
ENDBRANCH   2  19
BRANCH   4  26
ATOM     26  O   UNL     1      53.074 147.562  25.042  0.00  0.00    -0.506 OA
ATOM     27  H   UNL     1      52.699 147.143  25.791  0.00  0.00    +0.292 HD
ENDBRANCH   4  26
TORSDOF 3
