REMARK  Name = =
REMARK  6 active torsions:
REMARK  status: ('A' for Active; 'I' for Inactive)
REMARK    1  A    between atoms: C_1  and  C_12
REMARK    2  A    between atoms: C_2  and  C_20
REMARK    3  A    between atoms: C_15  and  O_19
REMARK    4  A    between atoms: C_21  and  C_26
REMARK    5  A    between atoms: C_23  and  O_32
REMARK    6  A    between atoms: C_26  and  S_31
REMARK                            x       y       z     vdW  Elec       q    Type
REMARK                         _______ _______ _______ _____ _____    ______ ____
ROOT
ATOM      1  C   UNL     1      53.868 153.087  24.815  0.00  0.00    +0.020 C 
ATOM      2  C   UNL     1      53.567 154.065  25.782  0.00  0.00    +0.082 C 
ATOM      3  N   UNL     1      53.922 155.322  25.541  0.00  0.00    -0.231 NA
ATOM      4  C   UNL     1      54.547 155.770  24.456  0.00  0.00    +0.135 C 
ATOM      5  C   UNL     1      54.868 154.843  23.467  0.00  0.00    +0.071 C 
ATOM      6  C   UNL     1      54.520 153.523  23.672  0.00  0.00    +0.008 C 
ATOM      7  C   UNL     1      55.515 155.279  22.333  0.00  0.00    +0.200 C 
ATOM      8  O   UNL     1      55.812 154.462  21.433  0.00  0.00    -0.286 OA
ATOM      9  C   UNL     1      55.812 156.622  22.242  0.00  0.00    +0.058 C 
ATOM     10  C   UNL     1      55.492 157.537  23.225  0.00  0.00    +0.066 C 
ATOM     11  N   UNL     1      54.860 157.081  24.319  0.00  0.00    -0.297 N 
ATOM     12  H   UNL     1      54.619 157.712  25.035  0.00  0.00    +0.154 HD
ENDROOT
BRANCH   1  13
ATOM     13  C   UNL     1      53.536 151.699  25.028  0.00  0.00    +0.029 C 
ATOM     14  C   UNL     1      54.561 150.753  24.850  0.00  0.00    +0.143 C 
ATOM     15  C   UNL     1      54.346 149.404  25.029  0.00  0.00    +0.066 C 
ATOM     16  C   UNL     1      53.095 148.929  25.395  0.00  0.00    +0.136 C 
ATOM     17  C   UNL     1      52.072 149.850  25.575  0.00  0.00    +0.037 C 
ATOM     18  C   UNL     1      52.321 151.192  25.388  0.00  0.00    +0.005 C 
ATOM     19  F   UNL     1      55.784 151.160  24.497  0.00  0.00    -0.204 F 
BRANCH  16  20
ATOM     20  O   UNL     1      52.852 147.577  25.581  0.00  0.00    -0.505 OA
ATOM     21  H   UNL     1      53.543 146.956  25.459  0.00  0.00    +0.292 HD
ENDBRANCH  16  20
ENDBRANCH   1  13
BRANCH   2  22
ATOM     22  C   UNL     1      52.902 153.638  26.989  0.00  0.00    +0.016 C 
ATOM     23  C   UNL     1      52.242 154.471  27.851  0.00  0.00    +0.005 C 
ATOM     24  C   UNL     1      51.572 153.957  28.973  0.00  0.00    +0.034 C 
ATOM     25  C   UNL     1      51.578 152.610  29.208  0.00  0.00    +0.133 C 
ATOM     26  C   UNL     1      52.245 151.774  28.338  0.00  0.00    +0.037 C 
ATOM     27  C   UNL     1      52.909 152.245  27.231  0.00  0.00    +0.004 C 
BRANCH  23  28
ATOM     28  C   UNL     1      52.258 155.943  27.672  0.00  0.00    +0.114 C 
ATOM     29  N   UNL     1      51.200 156.472  28.561  0.00  0.00    -0.274 NA
ATOM     30  C   UNL     1      51.885 157.089  29.656  0.00  0.00    +0.143 C 
ATOM     31  N   UNL     1      53.061 157.688  29.032  0.00  0.00    -0.282 NA
ATOM     32  C   UNL     1      53.511 156.611  28.146  0.00  0.00    +0.099 C 
ATOM     33  H   UNL     1      50.605 155.714  28.896  0.00  0.00    +0.126 HD
ATOM     34  H   UNL     1      53.772 157.920  29.726  0.00  0.00    +0.125 HD
BRANCH  28  35
ATOM     35  S   UNL     1      51.914 156.497  26.006  0.00  0.00    -0.150 S 
ATOM     36  H   UNL     1      52.872 156.025  25.164  0.00  0.00    +0.104 HD
ENDBRANCH  28  35
ENDBRANCH  23  28
BRANCH  25  37
ATOM     37  O   UNL     1      50.926 152.035  30.312  0.00  0.00    -0.506 OA
ATOM     38  H   UNL     1      50.465 152.579  30.920  0.00  0.00    +0.292 HD
ENDBRANCH  25  37
ENDBRANCH   2  22
TORSDOF 6
