REMARK  Name = =
REMARK  5 active torsions:
REMARK  status: ('A' for Active; 'I' for Inactive)
REMARK    1  A    between atoms: C_1  and  C_12
REMARK    2  A    between atoms: C_15  and  O_19
REMARK    3  A    between atoms: C_23  and  O_34
REMARK    4  A    between atoms: S_31  and  N_32
REMARK    5  A    between atoms: N_32  and  O_33
REMARK                            x       y       z     vdW  Elec       q    Type
REMARK                         _______ _______ _______ _____ _____    ______ ____
ROOT
ATOM      1  C   UNL     1      53.709 154.519  25.308  0.00  0.00    +0.003 C 
ATOM      2  C   UNL     1      53.244 154.550  26.596  0.00  0.00    +0.130 C 
ATOM      3  N   UNL     1      52.855 153.359  27.165  0.00  0.00    -0.238 N 
ATOM      4  C   UNL     1      52.904 152.193  26.544  0.00  0.00    +0.113 C 
ATOM      5  C   UNL     1      53.365 152.113  25.244  0.00  0.00    +0.067 C 
ATOM      6  C   UNL     1      53.758 153.278  24.655  0.00  0.00    +0.003 C 
ATOM      7  C   UNL     1      53.392 150.872  24.651  0.00  0.00    +0.199 C 
ATOM      8  O   UNL     1      53.806 150.773  23.476  0.00  0.00    -0.286 OA
ATOM      9  C   UNL     1      52.979 149.734  25.306  0.00  0.00    +0.058 C 
ATOM     10  C   UNL     1      52.516 149.846  26.620  0.00  0.00    +0.066 C 
ATOM     11  N   UNL     1      52.499 151.074  27.182  0.00  0.00    -0.300 N 
ATOM     12  C   UNL     1      53.125 155.731  27.436  0.00  0.00    -0.001 C 
ATOM     13  C   UNL     1      52.308 155.810  28.546  0.00  0.00    +0.004 C 
ATOM     14  C   UNL     1      52.241 156.982  29.302  0.00  0.00    +0.034 C 
ATOM     15  C   UNL     1      52.974 158.096  28.984  0.00  0.00    +0.133 C 
ATOM     16  C   UNL     1      53.792 158.035  27.888  0.00  0.00    +0.036 C 
ATOM     17  C   UNL     1      53.864 156.875  27.130  0.00  0.00    +0.001 C 
ATOM     18  C   UNL     1      51.541 154.622  28.957  0.00  0.00    +0.139 C 
ATOM     19  N   UNL     1      50.403 154.429  28.094  0.00  0.00    -0.272 NA
ATOM     20  C   UNL     1      49.255 155.011  28.744  0.00  0.00    +0.143 C 
ATOM     21  N   UNL     1      49.700 155.556  29.990  0.00  0.00    -0.282 NA
ATOM     22  C   UNL     1      50.847 154.774  30.300  0.00  0.00    +0.101 C 
ATOM     23  S   UNL     1      52.556 153.125  29.121  0.00  0.00    -0.002 S 
ATOM     24  H   UNL     1      52.174 151.158  28.107  0.00  0.00    +0.153 HD
ATOM     25  H   UNL     1      50.565 154.889  27.198  0.00  0.00    +0.126 HD
ATOM     26  H   UNL     1      48.984 155.455  30.709  0.00  0.00    +0.125 HD
ENDROOT
BRANCH   1  27
ATOM     27  C   UNL     1      54.151 155.718  24.638  0.00  0.00    +0.026 C 
ATOM     28  C   UNL     1      53.281 156.749  24.381  0.00  0.00    +0.143 C 
ATOM     29  C   UNL     1      53.737 157.900  23.717  0.00  0.00    +0.066 C 
ATOM     30  C   UNL     1      55.050 158.008  23.317  0.00  0.00    +0.136 C 
ATOM     31  C   UNL     1      55.917 156.973  23.575  0.00  0.00    +0.037 C 
ATOM     32  C   UNL     1      55.448 155.856  24.226  0.00  0.00    +0.005 C 
ATOM     33  F   UNL     1      51.964 156.718  24.711  0.00  0.00    -0.204 F 
BRANCH  30  34
ATOM     34  O   UNL     1      55.554 159.116  22.661  0.00  0.00    -0.505 OA
ATOM     35  H   UNL     1      56.456 159.141  22.409  0.00  0.00    +0.292 HD
ENDBRANCH  30  34
ENDBRANCH   1  27
BRANCH  23  36
ATOM     36  N   UNL     1      51.536 151.861  29.794  0.00  0.00    -0.138 NA
ATOM     37  H   UNL     1      50.824 152.295  30.382  0.00  0.00    +0.168 HD
BRANCH  36  38
ATOM     38  O   UNL     1      50.927 151.132  28.852  0.00  0.00    -0.304 OA
ATOM     39  H   UNL     1      51.594 150.714  28.285  0.00  0.00    +0.237 HD
ENDBRANCH  36  38
ENDBRANCH  23  36
BRANCH  15  40
ATOM     40  O   UNL     1      52.884 159.266  29.768  0.00  0.00    -0.506 OA
ATOM     41  H   UNL     1      52.318 159.287  30.514  0.00  0.00    +0.292 HD
ENDBRANCH  15  40
TORSDOF 5
