REMARK  Name = =
REMARK  6 active torsions:
REMARK  status: ('A' for Active; 'I' for Inactive)
REMARK    1  A    between atoms: C_1  and  C_12
REMARK    2  A    between atoms: C_15  and  O_19
REMARK    3  A    between atoms: C_23  and  O_35
REMARK    4  A    between atoms: C_26  and  S_31
REMARK    5  A    between atoms: S_31  and  N_32
REMARK    6  A    between atoms: N_32  and  O_34
REMARK                            x       y       z     vdW  Elec       q    Type
REMARK                         _______ _______ _______ _____ _____    ______ ____
ROOT
ATOM      1  C   UNL     1      53.756 153.465  25.353  0.00  0.00    +0.002 C 
ATOM      2  C   UNL     1      53.344 154.243  26.391  0.00  0.00    +0.120 C 
ATOM      3  N   UNL     1      53.598 155.553  26.331  0.00  0.00    -0.277 N 
ATOM      4  C   UNL     1      54.247 156.112  25.270  0.00  0.00    +0.105 C 
ATOM      5  C   UNL     1      54.668 155.334  24.212  0.00  0.00    +0.066 C 
ATOM      6  C   UNL     1      54.428 153.994  24.238  0.00  0.00    +0.003 C 
ATOM      7  C   UNL     1      55.336 155.930  23.127  0.00  0.00    +0.199 C 
ATOM      8  O   UNL     1      55.688 155.161  22.202  0.00  0.00    -0.286 OA
ATOM      9  C   UNL     1      55.562 157.276  23.130  0.00  0.00    +0.058 C 
ATOM     10  C   UNL     1      55.138 158.030  24.189  0.00  0.00    +0.066 C 
ATOM     11  N   UNL     1      54.503 157.426  25.208  0.00  0.00    -0.300 N 
ATOM     12  C   UNL     1      52.649 153.663  27.500  0.00  0.00    -0.002 C 
ATOM     13  C   UNL     1      52.020 154.440  28.422  0.00  0.00    +0.005 C 
ATOM     14  C   UNL     1      51.330 153.730  29.428  0.00  0.00    +0.034 C 
ATOM     15  C   UNL     1      51.288 152.368  29.488  0.00  0.00    +0.133 C 
ATOM     16  C   UNL     1      51.935 151.616  28.546  0.00  0.00    +0.036 C 
ATOM     17  C   UNL     1      52.615 152.261  27.552  0.00  0.00    +0.001 C 
ATOM     18  C   UNL     1      52.077 155.875  28.440  0.00  0.00    +0.149 C 
ATOM     19  N   UNL     1      52.889 156.459  29.523  0.00  0.00    -0.271 NA
ATOM     20  C   UNL     1      52.933 157.842  29.161  0.00  0.00    +0.144 C 
ATOM     21  N   UNL     1      52.851 157.901  27.754  0.00  0.00    -0.267 NA
ATOM     22  C   UNL     1      52.559 156.592  27.213  0.00  0.00    +0.162 C 
ATOM     23  H   UNL     1      54.206 157.987  25.960  0.00  0.00    +0.153 HD
ATOM     24  H   UNL     1      53.824 156.053  29.543  0.00  0.00    +0.126 HD
ATOM     25  H   UNL     1      53.741 158.229  27.379  0.00  0.00    +0.126 HD
ENDROOT
BRANCH   1  26
ATOM     26  C   UNL     1      53.587 152.038  25.316  0.00  0.00    +0.026 C 
ATOM     27  C   UNL     1      52.396 151.422  25.480  0.00  0.00    +0.143 C 
ATOM     28  C   UNL     1      52.287 150.037  25.423  0.00  0.00    +0.066 C 
ATOM     29  C   UNL     1      53.389 149.251  25.198  0.00  0.00    +0.136 C 
ATOM     30  C   UNL     1      54.613 149.851  25.027  0.00  0.00    +0.037 C 
ATOM     31  C   UNL     1      54.696 151.213  25.087  0.00  0.00    +0.005 C 
ATOM     32  F   UNL     1      51.277 152.141  25.695  0.00  0.00    -0.204 F 
BRANCH  29  33
ATOM     33  O   UNL     1      53.252 147.852  25.144  0.00  0.00    -0.505 OA
ATOM     34  H   UNL     1      52.410 147.459  25.263  0.00  0.00    +0.292 HD
ENDBRANCH  29  33
ENDBRANCH   1  26
BRANCH  15  35
ATOM     35  O   UNL     1      50.604 151.693  30.485  0.00  0.00    -0.506 OA
ATOM     36  H   UNL     1      50.148 152.173  31.148  0.00  0.00    +0.292 HD
ENDBRANCH  15  35
BRANCH  18  37
ATOM     37  S   UNL     1      50.366 156.514  28.696  0.00  0.00    -0.019 S 
BRANCH  37  38
ATOM     38  N   UNL     1      50.154 157.230  30.267  0.00  0.00    -0.119 NA
ATOM     39  C   UNL     1      48.741 157.506  30.446  0.00  0.00    +0.134 C 
BRANCH  38  40
ATOM     40  O   UNL     1      50.797 158.418  30.299  0.00  0.00    -0.301 OA
ATOM     41  H   UNL     1      51.749 158.274  30.182  0.00  0.00    +0.238 HD
ENDBRANCH  38  40
ENDBRANCH  37  38
ENDBRANCH  18  37
TORSDOF 6
