REMARK  Name = =
REMARK  0 active torsions:
REMARK  status: ('A' for Active; 'I' for Inactive)
REMARK                            x       y       z     vdW  Elec       q    Type
REMARK                         _______ _______ _______ _____ _____    ______ ____
ROOT
ATOM      1  N   UNL     1      -3.597  -4.648  31.804  0.00  0.00    -0.264 NA
ATOM      2  C   UNL     1      -3.624  -3.394  31.027  0.00  0.00    +0.100 C 
ATOM      3  C   UNL     1      -3.814  -4.261  29.827  0.00  0.00    +0.045 C 
ATOM      4  C   UNL     1      -2.900  -5.174  30.661  0.00  0.00    +0.083 C 
ATOM      5  S   UNL     1      -5.118  -2.618  31.716  0.00  0.00    -0.124 S 
ATOM      6  C   UNL     1      -5.043  -3.553  33.235  0.00  0.00    +0.076 C 
ATOM      7  C   UNL     1      -4.215  -4.523  33.040  0.00  0.00    +0.085 C 
ENDROOT
TORSDOF 0
