REMARK  Name = =
REMARK  1 active torsions:
REMARK  status: ('A' for Active; 'I' for Inactive)
REMARK    1  A    between atoms: C_4  and  C_8
REMARK                            x       y       z     vdW  Elec       q    Type
REMARK                         _______ _______ _______ _____ _____    ______ ____
ROOT
ATOM      1  N   UNL     1      -4.384  -4.758  32.530  0.00  0.00    -0.259 NA
ATOM      2  C   UNL     1      -3.862  -3.840  31.527  0.00  0.00    +0.108 C 
ATOM      3  C   UNL     1      -3.822  -4.974  30.549  0.00  0.00    +0.051 C 
ATOM      4  C   UNL     1      -3.637  -5.804  31.809  0.00  0.00    +0.126 C 
ATOM      5  S   UNL     1      -5.394  -2.810  31.417  0.00  0.00    -0.123 S 
ATOM      6  C   UNL     1      -5.862  -3.098  33.123  0.00  0.00    +0.076 C 
ATOM      7  C   UNL     1      -5.209  -4.169  33.493  0.00  0.00    +0.085 C 
ENDROOT
BRANCH   4   8
ATOM      8  C   UNL     1      -4.376  -7.075  31.800  0.00  0.00    +0.223 C 
ATOM      9  O   UNL     1      -4.370  -7.769  32.788  0.00  0.00    -0.287 OA
ENDBRANCH   4   8
TORSDOF 1
