REMARK  Name = =
REMARK  4 active torsions:
REMARK  status: ('A' for Active; 'I' for Inactive)
REMARK    1  A    between atoms: C_3  and  O_10
REMARK    2  A    between atoms: C_4  and  C_8
REMARK    3  A    between atoms: O_10  and  S_11
REMARK    4  A    between atoms: S_11  and  N_14
REMARK                            x       y       z     vdW  Elec       q    Type
REMARK                         _______ _______ _______ _____ _____    ______ ____
ROOT
ATOM      1  N   UNL     1      -4.186  -5.139  32.772  0.00  0.00    -0.255 NA
ATOM      2  C   UNL     1      -3.339  -4.234  31.964  0.00  0.00    +0.138 C 
ATOM      3  C   UNL     1      -4.287  -3.121  32.364  0.00  0.00    +0.192 C 
ATOM      4  C   UNL     1      -4.639  -3.976  33.556  0.00  0.00    +0.156 C 
ATOM      5  S   UNL     1      -3.796  -5.035  30.353  0.00  0.00    -0.121 S 
ATOM      6  C   UNL     1      -3.884  -6.696  31.098  0.00  0.00    +0.076 C 
ATOM      7  C   UNL     1      -4.094  -6.469  32.377  0.00  0.00    +0.085 C 
ENDROOT
BRANCH   4   8
ATOM      8  C   UNL     1      -6.039  -4.027  33.968  0.00  0.00    +0.226 C 
ATOM      9  O   UNL     1      -6.501  -3.111  34.651  0.00  0.00    -0.287 OA
ENDBRANCH   4   8
BRANCH   3  10
ATOM     10  O   UNL     1      -5.224  -2.938  31.395  0.00  0.00    -0.225 OA
BRANCH  10  11
ATOM     11  S   UNL     1      -5.572  -1.301  31.258  0.00  0.00    +0.065 S 
ATOM     12  O   UNL     1      -6.756  -1.031  30.375  0.00  0.00    -0.052 OA
ATOM     13  O   UNL     1      -4.388  -0.546  30.672  0.00  0.00    -0.052 OA
BRANCH  11  14
ATOM     14  N   UNL     1      -5.796  -0.659  32.833  0.00  0.00    -0.178 N 
ATOM     15  C   UNL     1      -7.112  -0.411  33.302  0.00  0.00    +0.319 C 
ATOM     16  O   UNL     1      -8.062  -0.684  32.526  0.00  0.00    -0.264 OA
ATOM     17  H   UNL     1      -5.019  -0.465  33.406  0.00  0.00    +0.177 HD
ENDBRANCH  11  14
ENDBRANCH  10  11
ENDBRANCH   3  10
TORSDOF 4
