REMARK  Name = =
REMARK  7 active torsions:
REMARK  status: ('A' for Active; 'I' for Inactive)
REMARK    1  A    between atoms: C_3  and  O_17
REMARK    2  A    between atoms: C_4  and  C_8
REMARK    3  A    between atoms: C_6  and  N_10
REMARK    4  A    between atoms: N_10  and  S_11
REMARK    5  A    between atoms: S_11  and  N_14
REMARK    6  A    between atoms: O_17  and  S_18
REMARK    7  A    between atoms: S_18  and  N_21
REMARK                            x       y       z     vdW  Elec       q    Type
REMARK                         _______ _______ _______ _____ _____    ______ ____
ROOT
ATOM      1  N   UNL     1       0.769  -7.587  29.596  0.00  0.00    -0.288 N 
ATOM      2  C   UNL     1       1.061  -6.326  28.862  0.00  0.00    +0.159 C 
ATOM      3  C   UNL     1       1.684  -7.036  27.760  0.00  0.00    +0.199 C 
ATOM      4  C   UNL     1       1.001  -8.267  28.334  0.00  0.00    +0.171 C 
ATOM      5  S   UNL     1       2.135  -5.648  30.203  0.00  0.00    -0.075 S 
ATOM      6  C   UNL     1       1.110  -6.346  31.489  0.00  0.00    +0.108 C 
ATOM      7  C   UNL     1       0.476  -7.359  30.947  0.00  0.00    +0.085 C 
ENDROOT
BRANCH   4   8
ATOM      8  C   UNL     1      -0.284  -8.524  27.641  0.00  0.00    +0.230 C 
ATOM      9  O   UNL     1      -0.470  -8.232  26.472  0.00  0.00    -0.286 OA
ENDBRANCH   4   8
BRANCH   6  10
ATOM     10  N   UNL     1       1.000  -5.894  32.797  0.00  0.00    -0.196 N 
ATOM     11  H   UNL     1       0.091  -5.770  33.153  0.00  0.00    +0.176 HD
BRANCH  10  12
ATOM     12  S   UNL     1       2.314  -5.530  33.855  0.00  0.00    +0.127 S 
ATOM     13  O   UNL     1       3.594  -6.192  33.453  0.00  0.00    -0.135 OA
ATOM     14  O   UNL     1       1.917  -5.931  35.267  0.00  0.00    -0.135 OA
BRANCH  12  15
ATOM     15  N   UNL     1       2.579  -3.821  33.790  0.00  0.00    -0.165 N 
ATOM     16  C   UNL     1       3.699  -3.221  34.461  0.00  0.00    +0.320 C 
ATOM     17  O   UNL     1       4.504  -3.916  35.104  0.00  0.00    -0.263 OA
ATOM     18  H   UNL     1       1.953  -3.252  33.286  0.00  0.00    +0.178 HD
ENDBRANCH  12  15
ENDBRANCH  10  12
ENDBRANCH   6  10
BRANCH   3  19
ATOM     19  O   UNL     1       3.026  -7.130  27.591  0.00  0.00    -0.225 OA
BRANCH  19  20
ATOM     20  S   UNL     1       3.657  -6.802  26.124  0.00  0.00    +0.065 S 
ATOM     21  O   UNL     1       3.497  -5.321  25.828  0.00  0.00    -0.052 OA
ATOM     22  O   UNL     1       5.161  -7.038  26.117  0.00  0.00    -0.052 OA
BRANCH  20  23
ATOM     23  N   UNL     1       3.010  -7.649  24.796  0.00  0.00    -0.178 N 
ATOM     24  C   UNL     1       2.976  -9.069  24.857  0.00  0.00    +0.319 C 
ATOM     25  O   UNL     1       3.417  -9.692  25.874  0.00  0.00    -0.264 OA
ATOM     26  H   UNL     1       2.669  -7.168  24.007  0.00  0.00    +0.177 HD
ENDBRANCH  20  23
ENDBRANCH  19  20
ENDBRANCH   3  19
TORSDOF 7
