REMARK  Name = =
REMARK  4 active torsions:
REMARK  status: ('A' for Active; 'I' for Inactive)
REMARK    1  A    between atoms: C_3  and  O_22
REMARK    2  A    between atoms: C_4  and  C_20
REMARK    3  A    between atoms: O_22  and  S_23
REMARK    4  A    between atoms: S_23  and  N_26
REMARK                            x       y       z     vdW  Elec       q    Type
REMARK                         _______ _______ _______ _____ _____    ______ ____
ROOT
ATOM      1  N   UNL     1       2.122  -5.292  28.401  0.00  0.00    -0.251 NA
ATOM      2  C   UNL     1       2.434  -6.638  28.502  0.00  0.00    +0.140 C 
ATOM      3  C   UNL     1       3.647  -6.386  27.692  0.00  0.00    +0.192 C 
ATOM      4  C   UNL     1       2.930  -5.062  27.333  0.00  0.00    +0.156 C 
ATOM      5  S   UNL     1       1.088  -7.560  27.548  0.00  0.00    -0.105 S 
ATOM      6  C   UNL     1      -0.286  -6.610  28.299  0.00  0.00    +0.125 C 
ATOM      7  N   UNL     1      -0.487  -7.453  29.423  0.00  0.00    -0.158 NA
ATOM      8  S   UNL     1      -0.631  -7.026  31.153  0.00  0.00    +0.113 S 
ATOM      9  O   UNL     1      -2.092  -6.737  31.305  0.00  0.00    -0.138 OA
ATOM     10  O   UNL     1      -0.200  -8.147  31.987  0.00  0.00    -0.138 OA
ATOM     11  N   UNL     1       0.256  -5.547  31.425  0.00  0.00    -0.174 N 
ATOM     12  C   UNL     1       1.114  -4.821  30.562  0.00  0.00    +0.254 C 
ATOM     13  C   UNL     1       1.289  -4.501  29.106  0.00  0.00    +0.117 C 
ATOM     14  C   UNL     1       1.870  -3.070  29.114  0.00  0.00    +0.024 C 
ATOM     15  C   UNL     1       0.916  -2.154  28.456  0.00  0.00    +0.002 C 
ATOM     16  C   UNL     1       0.021  -3.054  27.631  0.00  0.00    +0.002 C 
ATOM     17  C   UNL     1      -0.116  -4.201  28.565  0.00  0.00    +0.024 C 
ATOM     18  O   UNL     1       2.033  -4.268  31.283  0.00  0.00    -0.272 OA
ATOM     19  C   UNL     1      -0.717  -5.444  27.910  0.00  0.00    +0.030 C 
ATOM     20  H   UNL     1       0.295  -8.107  29.390  0.00  0.00    +0.151 HD
ATOM     21  H   UNL     1       0.142  -5.155  32.321  0.00  0.00    +0.178 HD
ENDROOT
BRANCH   4  22
ATOM     22  C   UNL     1       2.486  -5.199  25.922  0.00  0.00    +0.226 C 
ATOM     23  O   UNL     1       2.133  -4.300  25.204  0.00  0.00    -0.287 OA
ENDBRANCH   4  22
BRANCH   3  24
ATOM     24  O   UNL     1       3.923  -7.184  26.606  0.00  0.00    -0.225 OA
BRANCH  24  25
ATOM     25  S   UNL     1       5.585  -7.398  26.531  0.00  0.00    +0.065 S 
ATOM     26  O   UNL     1       6.070  -6.851  25.194  0.00  0.00    -0.052 OA
ATOM     27  O   UNL     1       6.282  -6.603  27.629  0.00  0.00    -0.052 OA
BRANCH  25  28
ATOM     28  N   UNL     1       6.089  -9.015  26.695  0.00  0.00    -0.178 N 
ATOM     29  C   UNL     1       7.470  -9.278  26.900  0.00  0.00    +0.319 C 
ATOM     30  O   UNL     1       8.287  -8.309  26.955  0.00  0.00    -0.264 OA
ATOM     31  H   UNL     1       5.438  -9.752  26.649  0.00  0.00    +0.177 HD
ENDBRANCH  25  28
ENDBRANCH  24  25
ENDBRANCH   3  24
TORSDOF 4
