REMARK  Name = =
REMARK  6 active torsions:
REMARK  status: ('A' for Active; 'I' for Inactive)
REMARK    1  A    between atoms: C_2  and  C_22
REMARK    2  A    between atoms: C_3  and  O_25
REMARK    3  A    between atoms: C_4  and  C_20
REMARK    4  A    between atoms: N_23  and  O_24
REMARK    5  A    between atoms: O_25  and  S_26
REMARK    6  A    between atoms: S_26  and  N_29
REMARK                            x       y       z     vdW  Elec       q    Type
REMARK                         _______ _______ _______ _____ _____    ______ ____
ROOT
ATOM      1  N   UNL     1       2.240  -5.845  28.264  0.00  0.00    -0.248 NA
ATOM      2  C   UNL     1       1.190  -5.199  28.936  0.00  0.00    +0.156 C 
ATOM      3  C   UNL     1       0.743  -6.521  29.446  0.00  0.00    +0.195 C 
ATOM      4  C   UNL     1       2.015  -7.103  28.778  0.00  0.00    +0.157 C 
ATOM      5  S   UNL     1      -0.073  -4.564  27.688  0.00  0.00    -0.102 S 
ATOM      6  C   UNL     1       1.189  -3.890  26.524  0.00  0.00    +0.125 C 
ATOM      7  N   UNL     1       1.243  -2.587  27.064  0.00  0.00    -0.158 NA
ATOM      8  S   UNL     1       2.638  -1.578  27.526  0.00  0.00    +0.113 S 
ATOM      9  O   UNL     1       2.329  -0.689  28.645  0.00  0.00    -0.138 OA
ATOM     10  O   UNL     1       2.971  -0.886  26.235  0.00  0.00    -0.138 OA
ATOM     11  N   UNL     1       3.996  -2.654  27.853  0.00  0.00    -0.174 N 
ATOM     12  C   UNL     1       3.970  -4.083  28.053  0.00  0.00    +0.254 C 
ATOM     13  C   UNL     1       3.267  -5.307  27.581  0.00  0.00    +0.117 C 
ATOM     14  C   UNL     1       4.452  -6.323  27.548  0.00  0.00    +0.024 C 
ATOM     15  C   UNL     1       5.338  -5.605  26.511  0.00  0.00    +0.002 C 
ATOM     16  C   UNL     1       4.366  -4.814  25.617  0.00  0.00    +0.002 C 
ATOM     17  C   UNL     1       3.075  -5.347  26.073  0.00  0.00    +0.024 C 
ATOM     18  O   UNL     1       4.873  -4.338  28.944  0.00  0.00    -0.272 OA
ATOM     19  C   UNL     1       1.845  -4.601  25.644  0.00  0.00    +0.030 C 
ATOM     20  H   UNL     1       0.693  -2.653  27.920  0.00  0.00    +0.151 HD
ATOM     21  H   UNL     1       4.882  -2.227  27.906  0.00  0.00    +0.178 HD
ENDROOT
BRANCH   4  22
ATOM     22  C   UNL     1       1.573  -8.223  27.927  0.00  0.00    +0.226 C 
ATOM     23  O   UNL     1       1.270  -8.119  26.771  0.00  0.00    -0.287 OA
ENDBRANCH   4  22
BRANCH   2  24
ATOM     24  C   UNL     1       1.597  -4.162  29.863  0.00  0.00    +0.140 C 
ATOM     25  N   UNL     1       2.402  -4.302  30.821  0.00  0.00    -0.087 NA
BRANCH  25  26
ATOM     26  O   UNL     1       3.081  -5.382  31.243  0.00  0.00    -0.409 OA
ATOM     27  H   UNL     1       3.649  -5.318  31.985  0.00  0.00    +0.328 HD
ENDBRANCH  25  26
ENDBRANCH   2  24
BRANCH   3  28
ATOM     28  O   UNL     1       0.785  -6.721  30.807  0.00  0.00    -0.225 OA
BRANCH  28  29
ATOM     29  S   UNL     1      -0.645  -7.232  31.478  0.00  0.00    +0.065 S 
ATOM     30  O   UNL     1      -0.459  -7.216  32.990  0.00  0.00    -0.052 OA
ATOM     31  O   UNL     1      -1.778  -6.271  31.194  0.00  0.00    -0.052 OA
BRANCH  29  32
ATOM     32  N   UNL     1      -1.149  -8.789  30.939  0.00  0.00    -0.178 N 
ATOM     33  C   UNL     1      -1.669  -9.058  29.646  0.00  0.00    +0.319 C 
ATOM     34  O   UNL     1      -1.771  -8.102  28.841  0.00  0.00    -0.264 OA
ATOM     35  H   UNL     1      -1.071  -9.541  31.569  0.00  0.00    +0.177 HD
ENDBRANCH  29  32
ENDBRANCH  28  29
ENDBRANCH   3  28
TORSDOF 6
