REMARK  Name = =
REMARK  0 active torsions:
REMARK  status: ('A' for Active; 'I' for Inactive)
REMARK                            x       y       z     vdW  Elec       q    Type
REMARK                         _______ _______ _______ _____ _____    ______ ____
ROOT
ATOM      1  C   UNL     1      52.092 157.722  28.706  0.00  0.00    +0.000 C 
ATOM      2  C   UNL     1      53.361 157.517  28.957  0.00  0.00    +0.000 C 
ENDROOT
TORSDOF 0
