REMARK  Name = =
REMARK  4 active torsions:
REMARK  status: ('A' for Active; 'I' for Inactive)
REMARK    1  A    between atoms: C_1  and  C_32
REMARK    2  A    between atoms: C_2  and  N_12
REMARK    3  A    between atoms: C_7  and  O_33
REMARK    4  A    between atoms: C_10  and  C_24
REMARK                            x       y       z     vdW  Elec       q    Type
REMARK                         _______ _______ _______ _____ _____    ______ ____
ROOT
ATOM      1  C   UNL     1      51.614 158.458  28.339  0.00  0.00    +0.010 A 
ATOM      2  C   UNL     1      51.040 157.640  29.477  0.00  0.00    +0.124 A 
ATOM      3  N   UNL     1      51.569 156.478  29.211  0.00  0.00    -0.262 N 
ATOM      4  C   UNL     1      52.271 156.383  28.267  0.00  0.00    +0.068 A 
ATOM      5  C   UNL     1      52.370 157.739  27.565  0.00  0.00    +0.018 A 
ATOM      6  C   UNL     1      53.154 158.023  26.425  0.00  0.00    +0.038 C 
ATOM      7  C   UNL     1      53.920 157.050  25.858  0.00  0.00    +0.134 C 
ATOM      8  C   UNL     1      53.823 155.692  26.549  0.00  0.00    +0.038 C 
ATOM      9  C   UNL     1      53.169 155.604  27.430  0.00  0.00    +0.021 C 
ATOM     10  C   UNL     1      51.170 155.427  30.256  0.00  0.00    +0.266 C 
ATOM     11  O   UNL     1      51.037 155.502  31.288  0.00  0.00    -0.267 OA
ENDROOT
BRANCH   2  12
ATOM     12  N   UNL     1      50.144 158.114  30.428  0.00  0.00    -0.224 N 
ATOM     13  C   UNL     1      50.432 159.281  31.170  0.00  0.00    +0.055 C 
ATOM     14  C   UNL     1      49.578 160.106  31.976  0.00  0.00    -0.008 C 
ATOM     15  C   UNL     1      50.172 161.231  32.656  0.00  0.00    -0.003 C 
ATOM     16  C   UNL     1      51.461 161.380  32.455  0.00  0.00    -0.000 C 
ATOM     17  C   UNL     1      52.325 160.714  31.766  0.00  0.00    +0.001 C 
ATOM     18  C   UNL     1      51.774 159.592  31.084  0.00  0.00    +0.015 C 
ATOM     19  C   UNL     1      48.131 160.031  32.223  0.00  0.00    +0.028 C 
ATOM     20  C   UNL     1      47.361 159.190  31.292  0.00  0.00    +0.014 C 
ATOM     21  C   UNL     1      47.659 157.720  31.227  0.00  0.00    +0.086 C 
ATOM     22  C   UNL     1      48.861 157.432  30.381  0.00  0.00    +0.234 C 
ATOM     23  O   UNL     1      48.748 156.489  29.523  0.00  0.00    -0.274 OA
ENDBRANCH   2  12
BRANCH  10  24
ATOM     24  C   UNL     1      50.955 154.078  29.370  0.00  0.00    +0.057 C 
ATOM     25  C   UNL     1      51.740 153.174  29.910  0.00  0.00    +0.006 C 
ATOM     26  C   UNL     1      52.184 152.146  28.926  0.00  0.00    +0.012 C 
ATOM     27  C   UNL     1      51.696 152.382  27.691  0.00  0.00    +0.058 C 
ATOM     28  C   UNL     1      50.930 153.258  27.157  0.00  0.00    +0.012 C 
ATOM     29  C   UNL     1      50.400 154.389  28.216  0.00  0.00    +0.006 C 
ATOM     30 CL   UNL     1      52.280 151.061  26.508  0.00  0.00    -0.082 Cl
ENDBRANCH  10  24
BRANCH   1  32
ATOM     31  C   UNL     1      50.896 161.236  28.439  0.00  0.00    +0.005 C 
ATOM     32  C   UNL     1      51.291 159.756  28.382  0.00  0.00    +0.029 C 
ENDBRANCH   1  32
BRANCH   7  33
ATOM     33  O   UNL     1      54.735 157.153  24.787  0.00  0.00    -0.506 OA
ATOM     34  H   UNL     1      54.819 157.972  24.339  0.00  0.00    +0.292 HD
ENDBRANCH   7  33
TORSDOF 4
