REMARK  Name = =
REMARK  8 active torsions:
REMARK  status: ('A' for Active; 'I' for Inactive)
REMARK    1  A    between atoms: C_1  and  C_32
REMARK    2  A    between atoms: C_2  and  N_12
REMARK    3  A    between atoms: C_7  and  O_38
REMARK    4  A    between atoms: C_10  and  C_24
REMARK    5  A    between atoms: C_31  and  O_33
REMARK    6  A    between atoms: O_33  and  P_34
REMARK    7  A    between atoms: P_34  and  N_36
REMARK    8  A    between atoms: P_34  and  N_37
REMARK                            x       y       z     vdW  Elec       q    Type
REMARK                         _______ _______ _______ _____ _____    ______ ____
ROOT
ATOM      1  C   UNL     1      53.048 158.751  29.550  0.00  0.00    +0.076 A 
ATOM      2  C   UNL     1      51.738 159.005  30.207  0.00  0.00    +0.136 A 
ATOM      3  N   UNL     1      51.751 160.112  30.829  0.00  0.00    -0.261 N 
ATOM      4  C   UNL     1      53.001 160.673  30.699  0.00  0.00    +0.069 A 
ATOM      5  C   UNL     1      53.790 159.916  29.960  0.00  0.00    +0.030 A 
ATOM      6  C   UNL     1      55.086 160.292  29.576  0.00  0.00    +0.039 C 
ATOM      7  C   UNL     1      55.561 161.562  30.019  0.00  0.00    +0.134 C 
ATOM      8  C   UNL     1      54.723 162.313  30.790  0.00  0.00    +0.038 C 
ATOM      9  C   UNL     1      53.428 161.930  31.170  0.00  0.00    +0.021 C 
ATOM     10  C   UNL     1      50.597 160.997  31.127  0.00  0.00    +0.266 C 
ATOM     11  O   UNL     1      50.502 161.817  31.950  0.00  0.00    -0.267 OA
ENDROOT
BRANCH   2  12
ATOM     12  N   UNL     1      50.798 157.916  30.090  0.00  0.00    -0.223 N 
ATOM     13  C   UNL     1      51.241 156.664  29.523  0.00  0.00    +0.055 C 
ATOM     14  C   UNL     1      50.472 155.596  28.979  0.00  0.00    -0.008 C 
ATOM     15  C   UNL     1      51.073 154.423  28.549  0.00  0.00    -0.003 C 
ATOM     16  C   UNL     1      52.436 154.300  28.640  0.00  0.00    -0.000 C 
ATOM     17  C   UNL     1      53.185 155.333  29.157  0.00  0.00    +0.001 C 
ATOM     18  C   UNL     1      52.606 156.491  29.591  0.00  0.00    +0.015 C 
ATOM     19  C   UNL     1      49.020 155.565  28.750  0.00  0.00    +0.028 C 
ATOM     20  C   UNL     1      48.303 156.102  29.964  0.00  0.00    +0.014 C 
ATOM     21  C   UNL     1      48.208 157.616  29.910  0.00  0.00    +0.086 C 
ATOM     22  C   UNL     1      49.455 158.198  30.468  0.00  0.00    +0.234 C 
ATOM     23  O   UNL     1      49.270 159.034  31.370  0.00  0.00    -0.274 OA
ENDBRANCH   2  12
BRANCH  10  24
ATOM     24  C   UNL     1      49.437 160.808  30.201  0.00  0.00    +0.057 C 
ATOM     25  C   UNL     1      49.900 160.675  28.827  0.00  0.00    +0.006 C 
ATOM     26  C   UNL     1      49.068 160.483  27.784  0.00  0.00    +0.012 C 
ATOM     27  C   UNL     1      47.665 160.406  28.056  0.00  0.00    +0.058 C 
ATOM     28  C   UNL     1      47.264 160.535  29.339  0.00  0.00    +0.012 C 
ATOM     29  C   UNL     1      48.163 160.738  30.392  0.00  0.00    +0.006 C 
ATOM     30 CL   UNL     1      46.635 160.158  26.657  0.00  0.00    -0.082 Cl
ENDBRANCH  10  24
BRANCH   1  32
ATOM     31  C   UNL     1      53.198 157.338  27.384  0.00  0.00    +0.068 C 
ATOM     32  C   UNL     1      53.128 158.044  28.459  0.00  0.00    -0.032 C 
BRANCH  31  33
ATOM     33  O   UNL     1      53.274 156.482  26.091  0.00  0.00    -0.215 OA
BRANCH  33  34
ATOM     34  P   UNL     1      54.638 157.003  25.191  0.00  0.00    +0.351 P 
ATOM     35  O   UNL     1      55.434 158.020  26.078  0.00  0.00    -0.254 OA
BRANCH  34  36
ATOM     36  N   UNL     1      54.316 157.682  23.661  0.00  0.00    -0.246 NA
ATOM     37  H   UNL     1      53.678 158.471  23.767  0.00  0.00    +0.129 HD
ATOM     38  H   UNL     1      53.889 156.978  23.059  0.00  0.00    +0.129 HD
ENDBRANCH  34  36
BRANCH  34  39
ATOM     39  N   UNL     1      55.741 155.634  25.039  0.00  0.00    -0.246 NA
ATOM     40  H   UNL     1      55.923 155.240  25.962  0.00  0.00    +0.129 HD
ATOM     41  H   UNL     1      56.618 155.949  24.625  0.00  0.00    +0.129 HD
ENDBRANCH  34  39
ENDBRANCH  33  34
ENDBRANCH  31  33
ENDBRANCH   1  32
BRANCH   7  42
ATOM     42  O   UNL     1      56.831 161.959  29.633  0.00  0.00    -0.506 OA
ATOM     43  H   UNL     1      57.357 161.394  29.102  0.00  0.00    +0.292 HD
ENDBRANCH   7  42
TORSDOF 8
