REMARK  Name = =
REMARK  2 active torsions:
REMARK  status: ('A' for Active; 'I' for Inactive)
REMARK    1  A    between atoms: C_1  and  O_7
REMARK    2  A    between atoms: C_4  and  C_8
REMARK                            x       y       z     vdW  Elec       q    Type
REMARK                         _______ _______ _______ _____ _____    ______ ____
ROOT
ATOM      1  C   UNL     1      -5.265  -2.151  31.723  0.00  0.00    +0.134 C 
ATOM      2  C   UNL     1      -5.705  -2.798  32.859  0.00  0.00    +0.037 C 
ATOM      3  C   UNL     1      -5.171  -3.998  33.278  0.00  0.00    +0.006 C 
ATOM      4  C   UNL     1      -4.162  -4.576  32.540  0.00  0.00    +0.042 C 
ATOM      5  C   UNL     1      -3.699  -3.949  31.395  0.00  0.00    +0.006 C 
ATOM      6  C   UNL     1      -4.252  -2.754  31.004  0.00  0.00    +0.037 C 
ENDROOT
BRANCH   1   7
ATOM      7  O   UNL     1      -5.854  -0.955  31.376  0.00  0.00    -0.506 OA
ATOM      8  H   UNL     1      -6.538  -0.598  31.907  0.00  0.00    +0.292 HD
ENDBRANCH   1   7
BRANCH   4   9
ATOM      9  C   UNL     1      -3.607  -5.844  32.995  0.00  0.00    +0.234 C 
ATOM     10  O   UNL     1      -4.083  -6.363  34.030  0.00  0.00    -0.283 OA
ENDBRANCH   4   9
TORSDOF 2
