REMARK  Name = =
REMARK  1 active torsions:
REMARK  status: ('A' for Active; 'I' for Inactive)
REMARK    1  A    between atoms: C_2  and  S_11
REMARK                            x       y       z     vdW  Elec       q    Type
REMARK                         _______ _______ _______ _____ _____    ______ ____
ROOT
ATOM      1  C   UNL     1      -3.556  -4.657  31.557  0.00  0.00    +0.026 C 
ATOM      2  C   UNL     1      -4.127  -4.890  32.785  0.00  0.00    +0.133 C 
ATOM      3  N   UNL     1      -5.006  -4.023  33.281  0.00  0.00    -0.235 NA
ATOM      4  C   UNL     1      -5.374  -2.895  32.618  0.00  0.00    +0.099 C 
ATOM      5  C   UNL     1      -4.814  -2.646  31.390  0.00  0.00    +0.021 C 
ATOM      6  C   UNL     1      -3.903  -3.507  30.833  0.00  0.00    +0.004 C 
ATOM      7  C   UNL     1      -3.310  -3.314  29.612  0.00  0.00    +0.000 C 
ATOM      8  C   UNL     1      -2.394  -4.180  29.054  0.00  0.00    +0.000 C 
ATOM      9  C   UNL     1      -2.068  -5.303  29.784  0.00  0.00    +0.000 C 
ATOM     10  C   UNL     1      -2.641  -5.539  31.018  0.00  0.00    +0.002 C 
ENDROOT
BRANCH   2  11
ATOM     11  S   UNL     1      -3.701  -6.334  33.710  0.00  0.00    +0.059 S 
ATOM     12  O   UNL     1      -4.515  -7.541  33.268  0.00  0.00    -0.254 OA
ATOM     13  H   UNL     1      -3.939  -6.100  35.028  0.00  0.00    +0.145 HD
ENDBRANCH   2  11
TORSDOF 1
