REMARK  Name = =
REMARK  5 active torsions:
REMARK  status: ('A' for Active; 'I' for Inactive)
REMARK    1  A    between atoms: C_1  and  O_7
REMARK    2  A    between atoms: C_2  and  C_10
REMARK    3  A    between atoms: C_4  and  C_8
REMARK    4  A    between atoms: C_10  and  C_11
REMARK    5  A    between atoms: C_10  and  O_17
REMARK                            x       y       z     vdW  Elec       q    Type
REMARK                         _______ _______ _______ _____ _____    ______ ____
ROOT
ATOM      1  C   UNL     1      -0.660  -0.189  22.215  0.00  0.00    +0.132 C 
ATOM      2  C   UNL     1      -1.441   0.801  21.673  0.00  0.00    +0.042 C 
ATOM      3  C   UNL     1      -0.828   1.708  20.805  0.00  0.00    +0.005 C 
ATOM      4  C   UNL     1       0.501   1.659  20.471  0.00  0.00    +0.042 C 
ATOM      5  C   UNL     1       1.252   0.649  21.037  0.00  0.00    +0.006 C 
ATOM      6  C   UNL     1       0.706  -0.275  21.899  0.00  0.00    +0.036 C 
ENDROOT
BRANCH   1   7
ATOM      7  O   UNL     1      -1.141  -1.148  23.088  0.00  0.00    -0.506 OA
ATOM      8  H   UNL     1      -2.044  -1.144  23.337  0.00  0.00    +0.292 HD
ENDBRANCH   1   7
BRANCH   4   9
ATOM      9  C   UNL     1       1.105   2.636  19.549  0.00  0.00    +0.234 C 
ATOM     10  O   UNL     1       2.308   2.654  19.275  0.00  0.00    -0.283 OA
ENDBRANCH   4   9
BRANCH   2  11
ATOM     11  C   UNL     1      -2.884   0.893  21.993  0.00  0.00    +0.158 C 
BRANCH  11  12
ATOM     12  C   UNL     1      -3.618   1.915  21.219  0.00  0.00    +0.009 C 
ATOM     13  C   UNL     1      -4.129   1.574  19.959  0.00  0.00    -0.002 C 
ATOM     14  C   UNL     1      -4.818   2.488  19.183  0.00  0.00    -0.000 C 
ATOM     15  C   UNL     1      -5.028   3.776  19.625  0.00  0.00    -0.000 C 
ATOM     16  C   UNL     1      -4.533   4.125  20.858  0.00  0.00    -0.000 C 
ATOM     17  C   UNL     1      -3.837   3.192  21.634  0.00  0.00    -0.002 C 
ENDBRANCH  11  12
BRANCH  11  18
ATOM     18  O   UNL     1      -3.499  -0.360  21.987  0.00  0.00    -0.375 OA
ATOM     19  H   UNL     1      -2.970  -0.982  22.510  0.00  0.00    +0.211 HD
ENDBRANCH  11  18
ENDBRANCH   2  11
TORSDOF 5
