REMARK  Name = =
REMARK  8 active torsions:
REMARK  status: ('A' for Active; 'I' for Inactive)
REMARK    1  A    between atoms: C_1  and  O_9
REMARK    2  A    between atoms: C_2  and  C_14
REMARK    3  A    between atoms: C_4  and  C_7
REMARK    4  A    between atoms: O_9  and  C_10
REMARK    5  A    between atoms: C_10  and  O_12
REMARK    6  A    between atoms: O_12  and  O_13
REMARK    7  A    between atoms: C_14  and  C_15
REMARK    8  A    between atoms: C_14  and  O_21
REMARK                            x       y       z     vdW  Elec       q    Type
REMARK                         _______ _______ _______ _____ _____    ______ ____
ROOT
ATOM      1  C   UNL     1      -2.526  -0.429  20.807  0.00  0.00    +0.150 C 
ATOM      2  C   UNL     1      -3.750  -0.890  20.369  0.00  0.00    +0.043 C 
ATOM      3  C   UNL     1      -4.929  -0.378  20.888  0.00  0.00    +0.005 C 
ATOM      4  C   UNL     1      -4.893   0.616  21.867  0.00  0.00    +0.042 C 
ATOM      5  C   UNL     1      -3.675   1.062  22.293  0.00  0.00    +0.006 C 
ATOM      6  C   UNL     1      -2.496   0.551  21.773  0.00  0.00    +0.038 C 
ENDROOT
BRANCH   4   7
ATOM      7  C   UNL     1      -6.099   1.175  22.431  0.00  0.00    +0.234 C 
ATOM      8  O   UNL     1      -7.161   1.116  21.769  0.00  0.00    -0.283 OA
ENDBRANCH   4   7
BRANCH   1   9
ATOM      9  O   UNL     1      -1.389  -0.988  20.241  0.00  0.00    -0.392 OA
BRANCH   9  10
ATOM     10  C   UNL     1      -0.456  -0.216  19.553  0.00  0.00    +0.547 C 
ATOM     11  O   UNL     1      -0.872   0.363  18.515  0.00  0.00    -0.200 OA
BRANCH  10  12
ATOM     12  O   UNL     1       0.862  -0.054  19.933  0.00  0.00    -0.261 OA
BRANCH  12  13
ATOM     13  O   UNL     1       1.617   0.800  19.203  0.00  0.00    -0.195 OA
ATOM     14  H   UNL     1       2.516   0.827  19.566  0.00  0.00    +0.268 HD
ENDBRANCH  12  13
ENDBRANCH  10  12
ENDBRANCH   9  10
ENDBRANCH   1   9
BRANCH   2  15
ATOM     15  C   UNL     1      -3.872  -1.951  19.337  0.00  0.00    +0.158 C 
BRANCH  15  16
ATOM     16  C   UNL     1      -4.472  -3.167  19.905  0.00  0.00    +0.009 C 
ATOM     17  C   UNL     1      -3.748  -4.023  20.698  0.00  0.00    -0.002 C 
ATOM     18  C   UNL     1      -4.372  -5.150  21.199  0.00  0.00    -0.000 C 
ATOM     19  C   UNL     1      -5.707  -5.444  20.928  0.00  0.00    -0.000 C 
ATOM     20  C   UNL     1      -6.411  -4.565  20.128  0.00  0.00    -0.000 C 
ATOM     21  C   UNL     1      -5.815  -3.427  19.609  0.00  0.00    -0.002 C 
ENDBRANCH  15  16
BRANCH  15  22
ATOM     22  O   UNL     1      -4.480  -1.509  18.169  0.00  0.00    -0.375 OA
ATOM     23  H   UNL     1      -4.532  -2.241  17.535  0.00  0.00    +0.211 HD
ENDBRANCH  15  22
ENDBRANCH   2  15
TORSDOF 8
