REMARK  Name = =
REMARK  11 active torsions:
REMARK  status: ('A' for Active; 'I' for Inactive)
REMARK    1  A    between atoms: C_1  and  O_9
REMARK    2  A    between atoms: C_2  and  C_23
REMARK    3  A    between atoms: C_4  and  C_7
REMARK    4  A    between atoms: O_9  and  C_10
REMARK    5  A    between atoms: C_10  and  O_12
REMARK    6  A    between atoms: O_12  and  O_13
REMARK    7  A    between atoms: O_13  and  O_14
REMARK    8  A    between atoms: O_14  and  C_15
REMARK    9  A    between atoms: C_18  and  C_21
REMARK   10  A    between atoms: C_23  and  C_24
REMARK   11  A    between atoms: C_23  and  O_30
REMARK                            x       y       z     vdW  Elec       q    Type
REMARK                         _______ _______ _______ _____ _____    ______ ____
ROOT
ATOM      1  C   UNL     1      -4.810  -2.357  21.556  0.00  0.00    +0.150 C 
ATOM      2  C   UNL     1      -5.297  -1.139  21.158  0.00  0.00    +0.043 C 
ATOM      3  C   UNL     1      -4.466  -0.044  21.176  0.00  0.00    +0.005 C 
ATOM      4  C   UNL     1      -3.143  -0.142  21.588  0.00  0.00    +0.042 C 
ATOM      5  C   UNL     1      -2.632  -1.353  21.991  0.00  0.00    +0.006 C 
ATOM      6  C   UNL     1      -3.481  -2.465  21.972  0.00  0.00    +0.038 C 
ENDROOT
BRANCH   4   7
ATOM      7  C   UNL     1      -2.291   1.032  21.594  0.00  0.00    +0.234 C 
ATOM      8  O   UNL     1      -1.114   1.019  22.035  0.00  0.00    -0.283 OA
ENDBRANCH   4   7
BRANCH   1   9
ATOM      9  O   UNL     1      -5.666  -3.446  21.530  0.00  0.00    -0.392 OA
BRANCH   9  10
ATOM     10  C   UNL     1      -5.677  -4.339  20.481  0.00  0.00    +0.550 C 
ATOM     11  O   UNL     1      -6.170  -3.959  19.393  0.00  0.00    -0.200 OA
BRANCH  10  12
ATOM     12  O   UNL     1      -5.180  -5.629  20.550  0.00  0.00    -0.219 OA
BRANCH  12  13
ATOM     13  O   UNL     1      -4.177  -6.038  19.732  0.00  0.00    +0.048 OA
BRANCH  13  14
ATOM     14  O   UNL     1      -3.427  -4.938  19.470  0.00  0.00    -0.297 OA
BRANCH  14  15
ATOM     15  C   UNL     1      -2.040  -5.029  19.429  0.00  0.00    +0.187 C 
ATOM     16  C   UNL     1      -1.380  -5.364  18.267  0.00  0.00    +0.041 C 
ATOM     17  C   UNL     1       0.016  -5.458  18.217  0.00  0.00    +0.003 C 
ATOM     18  C   UNL     1       0.790  -5.220  19.327  0.00  0.00    +0.000 C 
ATOM     19  C   UNL     1       0.104  -4.880  20.499  0.00  0.00    +0.003 C 
ATOM     20  C   UNL     1      -1.271  -4.787  20.548  0.00  0.00    +0.041 C 
BRANCH  18  21
ATOM     21  C   UNL     1       2.242  -5.303  19.333  0.00  0.00    +0.000 C 
ATOM     22  C   UNL     1       2.908  -5.621  18.249  0.00  0.00    +0.000 C 
ENDBRANCH  18  21
ENDBRANCH  14  15
ENDBRANCH  13  14
ENDBRANCH  12  13
ENDBRANCH  10  12
ENDBRANCH   9  10
ENDBRANCH   1   9
BRANCH   2  23
ATOM     23  C   UNL     1      -6.699  -1.011  20.715  0.00  0.00    +0.158 C 
BRANCH  23  24
ATOM     24  C   UNL     1      -7.567  -0.514  21.815  0.00  0.00    +0.009 C 
ATOM     25  C   UNL     1      -7.460  -0.997  23.102  0.00  0.00    -0.002 C 
ATOM     26  C   UNL     1      -8.276  -0.525  24.123  0.00  0.00    -0.000 C 
ATOM     27  C   UNL     1      -9.225   0.446  23.892  0.00  0.00    -0.000 C 
ATOM     28  C   UNL     1      -9.335   0.931  22.606  0.00  0.00    -0.000 C 
ATOM     29  C   UNL     1      -8.522   0.457  21.594  0.00  0.00    -0.002 C 
ENDBRANCH  23  24
BRANCH  23  30
ATOM     30  O   UNL     1      -6.818  -0.101  19.654  0.00  0.00    -0.375 OA
ATOM     31  H   UNL     1      -6.263  -0.393  18.914  0.00  0.00    +0.211 HD
ENDBRANCH  23  30
ENDBRANCH   2  23
TORSDOF 11
