REMARK  Name = =
REMARK  13 active torsions:
REMARK  status: ('A' for Active; 'I' for Inactive)
REMARK    1  A    between atoms: C_1  and  O_9
REMARK    2  A    between atoms: C_2  and  C_23
REMARK    3  A    between atoms: C_4  and  C_7
REMARK    4  A    between atoms: O_9  and  C_10
REMARK    5  A    between atoms: C_10  and  O_12
REMARK    6  A    between atoms: O_12  and  O_13
REMARK    7  A    between atoms: O_13  and  O_14
REMARK    8  A    between atoms: O_14  and  C_15
REMARK    9  A    between atoms: C_18  and  C_21
REMARK   10  A    between atoms: C_23  and  C_24
REMARK   11  A    between atoms: C_23  and  O_33
REMARK   12  A    between atoms: C_25  and  C_30
REMARK   13  A    between atoms: C_30  and  O_32
REMARK                            x       y       z     vdW  Elec       q    Type
REMARK                         _______ _______ _______ _____ _____    ______ ____
ROOT
ATOM      1  C   UNL     1      -1.935  -0.160  21.318  0.00  0.00    +0.150 C 
ATOM      2  C   UNL     1      -0.569  -0.134  21.155  0.00  0.00    +0.043 C 
ATOM      3  C   UNL     1       0.062   0.830  20.375  0.00  0.00    +0.005 C 
ATOM      4  C   UNL     1      -0.689   1.779  19.748  0.00  0.00    +0.042 C 
ATOM      5  C   UNL     1      -2.065   1.776  19.893  0.00  0.00    +0.006 C 
ATOM      6  C   UNL     1      -2.676   0.809  20.675  0.00  0.00    +0.038 C 
ENDROOT
BRANCH   4   7
ATOM      7  C   UNL     1      -0.064   2.824  18.907  0.00  0.00    +0.234 C 
ATOM      8  O   UNL     1       1.185   2.910  18.813  0.00  0.00    -0.283 OA
ENDBRANCH   4   7
BRANCH   1   9
ATOM      9  O   UNL     1      -2.546  -1.129  22.100  0.00  0.00    -0.392 OA
BRANCH   9  10
ATOM     10  C   UNL     1      -3.373  -2.078  21.534  0.00  0.00    +0.550 C 
ATOM     11  O   UNL     1      -3.294  -2.261  20.301  0.00  0.00    -0.200 OA
BRANCH  10  12
ATOM     12  O   UNL     1      -4.288  -2.843  22.243  0.00  0.00    -0.219 OA
BRANCH  12  13
ATOM     13  O   UNL     1      -4.901  -3.855  21.646  0.00  0.00    +0.048 OA
BRANCH  13  14
ATOM     14  O   UNL     1      -6.127  -4.089  22.128  0.00  0.00    -0.297 OA
BRANCH  14  15
ATOM     15  C   UNL     1      -6.671  -5.339  21.877  0.00  0.00    +0.187 C 
ATOM     16  C   UNL     1      -7.258  -5.658  20.679  0.00  0.00    +0.041 C 
ATOM     17  C   UNL     1      -7.789  -6.904  20.455  0.00  0.00    +0.003 C 
ATOM     18  C   UNL     1      -7.768  -7.919  21.417  0.00  0.00    +0.000 C 
ATOM     19  C   UNL     1      -7.179  -7.592  22.616  0.00  0.00    +0.003 C 
ATOM     20  C   UNL     1      -6.640  -6.322  22.838  0.00  0.00    +0.041 C 
BRANCH  18  21
ATOM     21  C   UNL     1      -8.349  -9.205  21.101  0.00  0.00    +0.000 C 
ATOM     22  C   UNL     1      -8.327 -10.190  21.971  0.00  0.00    +0.000 C 
ENDBRANCH  18  21
ENDBRANCH  14  15
ENDBRANCH  13  14
ENDBRANCH  12  13
ENDBRANCH  10  12
ENDBRANCH   9  10
ENDBRANCH   1   9
BRANCH   2  23
ATOM     23  C   UNL     1       0.243  -1.177  21.853  0.00  0.00    +0.158 C 
BRANCH  23  24
ATOM     24  C   UNL     1       1.682  -0.824  21.942  0.00  0.00    +0.015 C 
ATOM     25  C   UNL     1       2.280  -0.566  23.146  0.00  0.00    +0.074 C 
ATOM     26  C   UNL     1       3.636  -0.213  23.167  0.00  0.00    +0.006 C 
ATOM     27  C   UNL     1       4.375  -0.120  22.015  0.00  0.00    +0.000 C 
ATOM     28  C   UNL     1       3.735  -0.389  20.819  0.00  0.00    -0.000 C 
ATOM     29  C   UNL     1       2.411  -0.737  20.752  0.00  0.00    -0.001 C 
BRANCH  25  30
ATOM     30  C   UNL     1       1.588  -0.663  24.423  0.00  0.00    +0.338 C 
ATOM     31  O   UNL     1       1.692   0.322  25.234  0.00  0.00    -0.245 OA
BRANCH  30  32
ATOM     32  O   UNL     1       0.828  -1.701  24.869  0.00  0.00    -0.477 OA
ATOM     33  H   UNL     1       0.706  -2.458  24.330  0.00  0.00    +0.295 HD
ENDBRANCH  30  32
ENDBRANCH  25  30
ENDBRANCH  23  24
BRANCH  23  34
ATOM     34  O   UNL     1       0.101  -2.333  21.046  0.00  0.00    -0.375 OA
ATOM     35  H   UNL     1      -0.837  -2.570  20.983  0.00  0.00    +0.211 HD
ENDBRANCH  23  34
ENDBRANCH   2  23
TORSDOF 13
