REMARK  Name = =
REMARK  12 active torsions:
REMARK  status: ('A' for Active; 'I' for Inactive)
REMARK    1  A    between atoms: C_1  and  C_5
REMARK    2  A    between atoms: N_3  and  O_22
REMARK    3  A    between atoms: N_4  and  S_7
REMARK    4  A    between atoms: N_4  and  C_19
REMARK    5  A    between atoms: S_7  and  C_10
REMARK    6  A    between atoms: C_19  and  O_21
REMARK    7  A    between atoms: O_22  and  P_23
REMARK    8  A    between atoms: P_23  and  N_25
REMARK    9  A    between atoms: P_23  and  C_30
REMARK   10  A    between atoms: P_23  and  O_34
REMARK   11  A    between atoms: N_28  and  O_29
REMARK   12  A    between atoms: N_32  and  N_33
REMARK                            x       y       z     vdW  Elec       q    Type
REMARK                         _______ _______ _______ _____ _____    ______ ____
ROOT
ATOM      1  C   UNL     1       1.208  -4.296  26.445  0.00  0.00    +0.323 C 
ATOM      2  O   UNL     1       0.785  -5.394  26.851  0.00  0.00    -0.263 OA
ATOM      3  N   UNL     1       0.254  -3.191  26.434  0.00  0.00    -0.180 N 
ATOM      4  H   UNL     1       0.521  -2.294  26.130  0.00  0.00    +0.183 HD
ENDROOT
BRANCH   1   6
ATOM      5  N   UNL     1       3.484  -5.106  25.717  0.00  0.00    -0.158 N 
ATOM      6  C   UNL     1       2.551  -4.111  26.011  0.00  0.00    +0.318 C 
ATOM      7  O   UNL     1       2.956  -2.890  25.868  0.00  0.00    -0.264 OA
BRANCH   5   8
ATOM      8  S   UNL     1       5.108  -4.664  25.162  0.00  0.00    +0.171 S 
ATOM      9  O   UNL     1       5.479  -3.266  25.580  0.00  0.00    -0.230 OA
BRANCH   8  11
ATOM     10  C   UNL     1       6.986  -6.674  24.959  0.00  0.00    +0.028 C 
ATOM     11  C   UNL     1       6.292  -5.797  25.796  0.00  0.00    +0.155 C 
ATOM     12  N   UNL     1       6.573  -5.867  27.128  0.00  0.00    -0.234 NA
ATOM     13  C   UNL     1       7.471  -6.736  27.593  0.00  0.00    +0.100 C 
ATOM     14  C   UNL     1       8.165  -7.609  26.784  0.00  0.00    +0.021 C 
ATOM     15  C   UNL     1       7.918  -7.577  25.447  0.00  0.00    +0.004 C 
ATOM     16  C   UNL     1       8.622  -8.438  24.640  0.00  0.00    +0.000 C 
ATOM     17  C   UNL     1       8.383  -8.395  23.286  0.00  0.00    +0.000 C 
ATOM     18  C   UNL     1       7.455  -7.496  22.786  0.00  0.00    +0.000 C 
ATOM     19  C   UNL     1       6.755  -6.640  23.592  0.00  0.00    +0.002 C 
ENDBRANCH   8  11
ENDBRANCH   5   8
BRANCH   5  20
ATOM     20  C   UNL     1       3.238  -6.517  25.851  0.00  0.00    +0.289 C 
ATOM     21 CL   UNL     1       3.600  -7.241  24.237  0.00  0.00    -0.059 Cl
BRANCH  20  22
ATOM     22  O   UNL     1       4.035  -7.098  26.835  0.00  0.00    -0.354 OA
ATOM     23  H   UNL     1       3.829  -6.699  27.695  0.00  0.00    +0.213 HD
ENDBRANCH  20  22
ENDBRANCH   5  20
ENDBRANCH   1   6
BRANCH   3  24
ATOM     24  O   UNL     1      -0.974  -3.430  26.843  0.00  0.00    -0.220 OA
BRANCH  24  25
ATOM     25  P   UNL     1      -1.399  -2.395  28.121  0.00  0.00    +0.210 P 
ATOM     26  H   UNL     1      -0.053  -2.409  28.426  0.00  0.00    +0.133 HD
BRANCH  25  27
ATOM     27  N   UNL     1      -2.469  -3.405  28.962  0.00  0.00    -0.240 N 
ATOM     28  C   UNL     1      -2.214  -4.711  29.454  0.00  0.00    +0.328 C 
ATOM     29  O   UNL     1      -1.071  -5.158  29.241  0.00  0.00    -0.250 OA
ATOM     30  N   UNL     1      -3.207  -5.496  30.160  0.00  0.00    -0.181 N 
ATOM     31  H   UNL     1      -3.370  -3.044  29.128  0.00  0.00    +0.159 HD
ATOM     32  H   UNL     1      -4.105  -5.125  30.317  0.00  0.00    +0.184 HD
BRANCH  30  33
ATOM     33  O   UNL     1      -2.902  -6.734  30.602  0.00  0.00    -0.294 OA
ATOM     34  H   UNL     1      -1.985  -6.945  30.367  0.00  0.00    +0.241 HD
ENDBRANCH  30  33
ENDBRANCH  25  27
BRANCH  25  35
ATOM     35  C   UNL     1       0.144  -2.093  28.862  0.00  0.00    +0.304 C 
ATOM     36  O   UNL     1       0.446  -2.550  29.971  0.00  0.00    -0.264 OA
ATOM     37  N   UNL     1       1.126  -1.312  28.212  0.00  0.00    -0.246 N 
ATOM     38  H   UNL     1       0.911  -0.929  27.331  0.00  0.00    +0.169 HD
BRANCH  37  39
ATOM     39  N   UNL     1       2.415  -1.050  28.769  0.00  0.00    -0.254 NA
ATOM     40  H   UNL     1       2.492  -1.508  29.677  0.00  0.00    +0.140 HD
ATOM     41  H   UNL     1       2.538  -0.044  28.884  0.00  0.00    +0.140 HD
ENDBRANCH  37  39
ENDBRANCH  25  35
BRANCH  25  42
ATOM     42  O   UNL     1      -2.110  -0.850  28.061  0.00  0.00    -0.342 OA
ATOM     43  H   UNL     1      -3.051  -0.935  27.842  0.00  0.00    +0.218 HD
ENDBRANCH  25  42
ENDBRANCH  24  25
ENDBRANCH   3  24
TORSDOF 12
REMARK  Name = =
REMARK  12 active torsions:
REMARK  status: ('A' for Active; 'I' for Inactive)
REMARK    1  A    between atoms: C_1  and  C_5
REMARK    2  A    between atoms: N_3  and  O_22
REMARK    3  A    between atoms: N_4  and  S_7
REMARK    4  A    between atoms: N_4  and  C_19
REMARK    5  A    between atoms: S_7  and  C_10
REMARK    6  A    between atoms: C_19  and  O_21
REMARK    7  A    between atoms: O_22  and  P_23
REMARK    8  A    between atoms: P_23  and  N_25
REMARK    9  A    between atoms: P_23  and  C_30
REMARK   10  A    between atoms: P_23  and  O_34
REMARK   11  A    between atoms: N_28  and  O_29
REMARK   12  A    between atoms: N_32  and  N_33
REMARK                            x       y       z     vdW  Elec       q    Type
REMARK                         _______ _______ _______ _____ _____    ______ ____
ROOT
ATOM      1  O   HOH     1      -1.616  -1.746  29.452  0.00  0.00    +0.000 OA
ENDROOT
TORSDOF 0
