REMARK  Name = =
REMARK  5 active torsions:
REMARK  status: ('A' for Active; 'I' for Inactive)
REMARK    1  A    between atoms: C_1  and  C_12
REMARK    2  A    between atoms: C_1  and  N_16
REMARK    3  A    between atoms: C_8  and  O_26
REMARK    4  A    between atoms: C_9  and  O_25
REMARK    5  A    between atoms: C_17  and  C_19
REMARK                            x       y       z     vdW  Elec       q    Type
REMARK                         _______ _______ _______ _____ _____    ______ ____
ROOT
ATOM      1  C   UNL     1      50.302 160.276  31.644  0.00  0.00    +0.159 C 
ATOM      2  N   UNL     1      51.557 160.715  32.222  0.00  0.00    -0.277 NA
ATOM      3  C   UNL     1      51.922 162.047  31.795  0.00  0.00    +0.075 C 
ATOM      4  C   UNL     1      50.916 163.003  32.430  0.00  0.00    +0.043 C 
ATOM      5  C   UNL     1      49.613 162.703  31.801  0.00  0.00    -0.018 C 
ATOM      6  C   UNL     1      49.359 161.401  31.444  0.00  0.00    +0.012 C 
ATOM      7  C   UNL     1      48.136 161.159  30.860  0.00  0.00    +0.038 C 
ATOM      8  C   UNL     1      47.203 162.181  30.644  0.00  0.00    +0.167 C 
ATOM      9  C   UNL     1      47.481 163.475  31.010  0.00  0.00    +0.167 C 
ATOM     10  C   UNL     1      48.710 163.718  31.596  0.00  0.00    +0.035 C 
ATOM     11  H   UNL     1      52.292 160.067  31.940  0.00  0.00    +0.125 HD
ENDROOT
BRANCH   1  13
ATOM     12  N   UNL     1      49.071 158.235  32.207  0.00  0.00    -0.160 NA
ATOM     13  C   UNL     1      49.741 159.270  32.581  0.00  0.00    +0.113 C 
ATOM     14  C   UNL     1      49.822 159.238  34.065  0.00  0.00    +0.039 C 
ATOM     15  C   UNL     1      49.075 158.001  34.395  0.00  0.00    +0.110 C 
ATOM     16  N   UNL     1      48.677 157.483  33.303  0.00  0.00    -0.116 NA
ENDBRANCH   1  13
BRANCH   1  17
ATOM     17  N   UNL     1      50.624 159.607  30.410  0.00  0.00    -0.284 N 
ATOM     18  C   UNL     1      51.321 158.386  30.408  0.00  0.00    +0.247 C 
ATOM     19  O   UNL     1      51.641 157.921  31.542  0.00  0.00    -0.270 OA
ATOM     20  H   UNL     1      50.352 160.011  29.554  0.00  0.00    +0.151 HD
BRANCH  18  21
ATOM     21  C   UNL     1      51.675 157.663  29.208  0.00  0.00    +0.053 C 
ATOM     22  C   UNL     1      51.169 156.396  29.026  0.00  0.00    +0.005 C 
ATOM     23  C   UNL     1      51.484 155.668  27.890  0.00  0.00    +0.000 C 
ATOM     24  C   UNL     1      52.318 156.256  26.959  0.00  0.00    +0.000 C 
ATOM     25  C   UNL     1      52.815 157.509  27.146  0.00  0.00    +0.000 C 
ATOM     26  C   UNL     1      52.504 158.243  28.278  0.00  0.00    +0.005 C 
ENDBRANCH  18  21
ENDBRANCH   1  17
BRANCH   9  27
ATOM     27  O   UNL     1      46.552 164.491  30.795  0.00  0.00    -0.503 OA
ATOM     28  H   UNL     1      45.727 164.295  30.396  0.00  0.00    +0.292 HD
ENDBRANCH   9  27
BRANCH   8  29
ATOM     29  O   UNL     1      45.970 161.882  30.046  0.00  0.00    -0.503 OA
ATOM     30  H   UNL     1      45.773 161.001  29.794  0.00  0.00    +0.292 HD
ENDBRANCH   8  29
TORSDOF 5
