MODEL 1
REMARK VINA RESULT:    -6.618      0.000      0.000
REMARK INTER + INTRA:         -11.082
REMARK INTER:                  -9.327
REMARK INTRA:                  -1.755
REMARK UNBOUND:                -1.755
REMARK  Name = =
REMARK  8 active torsions:
REMARK  status: ('A' for Active; 'I' for Inactive)
REMARK    1  A    between atoms: N_1  and  C_4
REMARK    2  A    between atoms: N_1  and  N_21
REMARK    3  A    between atoms: C_2  and  C_29
REMARK    4  A    between atoms: C_4  and  C_15
REMARK    5  A    between atoms: C_11  and  O_20
REMARK    6  A    between atoms: C_12  and  O_19
REMARK    7  A    between atoms: C_33  and  N_35
REMARK    8  A    between atoms: N_38  and  N_39
REMARK                            x       y       z     vdW  Elec       q    Type
REMARK                         _______ _______ _______ _____ _____    ______ ____
ROOT
ATOM      1  N   UNL     1      62.890 167.030  36.215  0.00  0.00    -0.179 N 
ATOM      2  C   UNL     1      63.407 166.377  37.339  0.00  0.00    +0.267 C 
ATOM      3  O   UNL     1      64.723 166.215  37.272  0.00  0.00    -0.268 OA
ENDROOT
BRANCH   1   4
ATOM      4  C   UNL     1      61.571 167.440  35.876  0.00  0.00    +0.168 C 
ATOM      5  N   UNL     1      61.648 168.421  34.835  0.00  0.00    -0.278 NA
ATOM      6  C   UNL     1      60.626 168.607  33.927  0.00  0.00    +0.075 C 
ATOM      7  C   UNL     1      59.383 167.807  33.997  0.00  0.00    +0.043 C 
ATOM      8  C   UNL     1      59.626 166.497  34.610  0.00  0.00    -0.019 C 
ATOM      9  C   UNL     1      60.657 166.322  35.499  0.00  0.00    +0.011 C 
ATOM     10  C   UNL     1      60.811 165.057  36.027  0.00  0.00    +0.038 C 
ATOM     11  C   UNL     1      59.967 163.993  35.683  0.00  0.00    +0.167 C 
ATOM     12  C   UNL     1      58.936 164.168  34.793  0.00  0.00    +0.167 C 
ATOM     13  C   UNL     1      58.783 165.433  34.265  0.00  0.00    +0.035 C 
ATOM     14  H   UNL     1      62.477 168.192  34.288  0.00  0.00    +0.125 HD
BRANCH   4  16
ATOM     15  N   UNL     1      59.914 167.897  37.721  0.00  0.00    -0.168 NA
ATOM     16  C   UNL     1      60.947 168.191  37.039  0.00  0.00    +0.184 C 
ATOM     17  C   UNL     1      61.426 169.491  37.589  0.00  0.00    +0.025 C 
ATOM     18  C   UNL     1      60.477 169.804  38.649  0.00  0.00    +0.119 C 
ATOM     19  N   UNL     1      59.626 168.842  38.675  0.00  0.00    -0.151 NA
ENDBRANCH   4  16
BRANCH  12  20
ATOM     20  O   UNL     1      58.064 163.159  34.408  0.00  0.00    -0.503 OA
ATOM     21  H   UNL     1      57.281 163.004  34.899  0.00  0.00    +0.292 HD
ENDBRANCH  12  20
BRANCH  11  22
ATOM     22  O   UNL     1      60.186 162.755  36.256  0.00  0.00    -0.503 OA
ATOM     23  H   UNL     1      59.498 162.326  36.724  0.00  0.00    +0.292 HD
ENDBRANCH  11  22
ENDBRANCH   1   4
BRANCH   1  24
ATOM     24  N   UNL     1      63.918 167.269  35.184  0.00  0.00    -0.149 N 
ATOM     25  C   UNL     1      64.280 166.238  34.293  0.00  0.00    +0.248 C 
ATOM     26  O   UNL     1      63.640 165.172  34.187  0.00  0.00    -0.273 OA
ATOM     27  C   UNL     1      65.477 166.429  33.442  0.00  0.00    +0.088 C 
ATOM     28  C   UNL     1      65.602 167.830  32.935  0.00  0.00    +0.019 C 
ATOM     29  C   UNL     1      65.416 168.877  33.966  0.00  0.00    +0.088 C 
ATOM     30  C   UNL     1      64.587 168.509  35.125  0.00  0.00    +0.248 C 
ATOM     31  O   UNL     1      64.454 169.316  36.114  0.00  0.00    -0.273 OA
ENDBRANCH   1  24
BRANCH   2  32
ATOM     32  C   UNL     1      62.866 165.841  38.552  0.00  0.00    +0.056 C 
ATOM     33  C   UNL     1      62.498 166.557  39.666  0.00  0.00    +0.005 C 
ATOM     34  C   UNL     1      62.034 165.972  40.845  0.00  0.00    +0.001 C 
ATOM     35  C   UNL     1      61.922 164.626  40.941  0.00  0.00    +0.015 C 
ATOM     36  C   UNL     1      62.273 163.861  39.862  0.00  0.00    +0.052 C 
ATOM     37  C   UNL     1      62.735 164.463  38.693  0.00  0.00    +0.019 C 
BRANCH  36  38
ATOM     38  N   UNL     1      62.158 162.450  39.893  0.00  0.00    -0.267 N 
ATOM     39  C   UNL     1      61.052 161.668  39.529  0.00  0.00    +0.321 C 
ATOM     40  O   UNL     1      60.017 162.233  39.117  0.00  0.00    -0.251 OA
ATOM     41  N   UNL     1      61.102 160.225  39.630  0.00  0.00    -0.189 N 
ATOM     42  H   UNL     1      62.951 161.959  40.207  0.00  0.00    +0.156 HD
ATOM     43  H   UNL     1      61.915 159.774  39.954  0.00  0.00    +0.175 HD
BRANCH  41  44
ATOM     44  N   UNL     1      59.987 159.485  39.264  0.00  0.00    +0.051 NA
ATOM     45  O   UNL     1      59.612 158.462  39.871  0.00  0.00    -0.079 OA
ENDBRANCH  41  44
ENDBRANCH  36  38
ENDBRANCH   2  32
TORSDOF 8
ENDMDL
