MODEL 1
REMARK VINA RESULT:    -6.108      0.000      0.000
REMARK INTER + INTRA:         -10.169
REMARK INTER:                  -8.607
REMARK INTRA:                  -1.562
REMARK UNBOUND:                -1.562
REMARK  Name = =
REMARK  8 active torsions:
REMARK  status: ('A' for Active; 'I' for Inactive)
REMARK    1  A    between atoms: S_20  and  O_24
REMARK    2  A    between atoms: P_21  and  O_30
REMARK    3  A    between atoms: O_24  and  C_25
REMARK    4  A    between atoms: C_25  and  O_27
REMARK    5  A    between atoms: O_27  and  C_28
REMARK    6  A    between atoms: O_30  and  P_31
REMARK    7  A    between atoms: P_31  and  O_33
REMARK    8  A    between atoms: P_31  and  O_34
REMARK                            x       y       z     vdW  Elec       q    Type
REMARK                         _______ _______ _______ _____ _____    ______ ____
ROOT
ATOM      1  C   UNL     1      59.449 160.834  40.062  0.00  0.00    +0.112 C 
ATOM      2  C   UNL     1      58.099 160.970  40.753  0.00  0.00    +0.027 C 
ATOM      3  C   UNL     1      58.224 160.422  42.129  0.00  0.00    +0.008 C 
ATOM      4  C   UNL     1      56.851 160.414  42.758  0.00  0.00    +0.040 C 
ATOM      5  C   UNL     1      56.480 161.843  43.011  0.00  0.00    +0.076 C 
ATOM      6  C   UNL     1      57.296 162.833  42.249  0.00  0.00    +0.020 C 
ATOM      7  C   UNL     1      57.662 162.417  40.857  0.00  0.00    +0.004 C 
ATOM      8  N   UNL     1      55.076 162.097  42.956  0.00  0.00    -0.302 N 
ATOM      9  C   UNL     1      54.188 161.341  42.143  0.00  0.00    +0.246 C 
ATOM     10  O   UNL     1      53.021 161.746  41.873  0.00  0.00    -0.270 OA
ATOM     11  C   UNL     1      54.672 160.068  41.625  0.00  0.00    +0.053 C 
ATOM     12  C   UNL     1      55.893 159.681  41.929  0.00  0.00    -0.020 C 
ATOM     13  C   UNL     1      58.986 159.173  42.269  0.00  0.00    +0.001 C 
ATOM     14  C   UNL     1      59.423 158.508  41.021  0.00  0.00    +0.002 C 
ATOM     15  C   UNL     1      59.713 159.390  39.864  0.00  0.00    +0.026 C 
ATOM     16  C   UNL     1      58.767 159.013  38.737  0.00  0.00    +0.003 C 
ATOM     17  C   UNL     1      58.343 160.291  38.072  0.00  0.00    +0.015 C 
ATOM     18  C   UNL     1      59.264 161.360  38.662  0.00  0.00    +0.097 C 
ATOM     19  O   UNL     1      60.366 161.517  40.806  0.00  0.00    -0.290 OA
ATOM     20  S   UNL     1      60.968 162.647  38.117  0.00  0.00    +0.015 S 
ATOM     21  P   UNL     1      61.323 162.598  40.013  0.00  0.00    +0.413 P 
ATOM     22  O   UNL     1      62.764 162.073  40.073  0.00  0.00    -0.244 OA
ATOM     23  H   UNL     1      61.209 161.318  37.694  0.00  0.00    +0.134 HD
ATOM     24  H   UNL     1      54.708 162.827  43.504  0.00  0.00    +0.150 HD
ENDROOT
BRANCH  20  25
ATOM     25  O   UNL     1      62.298 163.559  37.444  0.00  0.00    -0.374 OA
BRANCH  25  26
ATOM     26  C   UNL     1      62.064 164.710  36.709  0.00  0.00    +0.529 C 
ATOM     27  O   UNL     1      62.745 165.720  36.991  0.00  0.00    -0.201 OA
BRANCH  26  28
ATOM     28  O   UNL     1      61.121 164.791  35.690  0.00  0.00    -0.352 OA
BRANCH  28  29
ATOM     29  C   UNL     1      61.237 165.669  34.630  0.00  0.00    +0.427 C 
ATOM     30  O   UNL     1      61.999 165.387  33.680  0.00  0.00    -0.237 OA
ENDBRANCH  28  29
ENDBRANCH  26  28
ENDBRANCH  25  26
ENDBRANCH  20  25
BRANCH  21  31
ATOM     31  O   UNL     1      61.328 164.143  40.630  0.00  0.00    -0.199 OA
BRANCH  31  32
ATOM     32  P   UNL     1      62.870 164.735  40.959  0.00  0.00    +0.480 P 
ATOM     33  O   UNL     1      62.787 166.146  41.536  0.00  0.00    -0.227 OA
BRANCH  32  34
ATOM     34  O   UNL     1      63.894 164.660  39.640  0.00  0.00    -0.302 OA
ATOM     35  H   UNL     1      63.556 164.010  39.005  0.00  0.00    +0.222 HD
ENDBRANCH  32  34
BRANCH  32  36
ATOM     36  O   UNL     1      63.516 163.767  42.213  0.00  0.00    -0.302 OA
ATOM     37  H   UNL     1      62.798 163.277  42.645  0.00  0.00    +0.222 HD
ENDBRANCH  32  36
ENDBRANCH  31  32
ENDBRANCH  21  31
TORSDOF 8
ENDMDL
