MODEL 1
REMARK VINA RESULT:    -6.198      0.000      0.000
REMARK INTER + INTRA:          -7.863
REMARK INTER:                  -7.466
REMARK INTRA:                  -0.397
REMARK UNBOUND:                -0.397
REMARK  Name = =
REMARK  4 active torsions:
REMARK  status: ('A' for Active; 'I' for Inactive)
REMARK    1  A    between atoms: C_2  and  N_21
REMARK    2  A    between atoms: C_15  and  O_20
REMARK    3  A    between atoms: N_21  and  CA_22
REMARK    4  A    between atoms: CA_22  and  C_24
REMARK                            x       y       z     vdW  Elec       q    Type
REMARK                         _______ _______ _______ _____ _____    ______ ____
ROOT
ATOM      1  N   UNK A   0      59.687 160.834  39.104  0.00  0.00    -0.258 NA
ATOM      2  C   UNK A   0      59.925 161.690  38.038  0.00  0.00    +0.116 C 
ATOM      3  C   UNK A   0      61.404 161.313  37.772  0.00  0.00    +0.040 C 
ATOM      4  C   UNK A   0      61.900 161.321  39.239  0.00  0.00    +0.053 C 
ATOM      5  C   UNK A   0      60.697 161.137  40.083  0.00  0.00    +0.068 C 
ATOM      6  C   UNK A   0      60.704 160.078  41.091  0.00  0.00    +0.037 C 
ATOM      7  C   UNK A   0      62.009 159.673  41.658  0.00  0.00    +0.007 C 
ATOM      8  C   UNK A   0      63.206 160.186  40.933  0.00  0.00    +0.020 C 
ATOM      9  C   UNK A   0      62.952 160.263  39.444  0.00  0.00    +0.074 C 
ATOM     10  N   UNK A   0      64.118 160.890  38.857  0.00  0.00    -0.334 N 
ATOM     11  C   UNK A   0      63.975 162.278  39.122  0.00  0.00    +0.044 C 
ATOM     12  C   UNK A   0      62.641 162.567  39.385  0.00  0.00    -0.007 C 
ATOM     13  C   UNK A   0      62.336 163.876  39.677  0.00  0.00    +0.000 C 
ATOM     14  C   UNK A   0      63.322 164.860  39.705  0.00  0.00    +0.036 C 
ATOM     15  C   UNK A   0      64.640 164.541  39.438  0.00  0.00    +0.135 C 
ATOM     16  C   UNK A   0      64.961 163.252  39.148  0.00  0.00    +0.051 C 
ATOM     17  C   UNK A   0      59.723 158.998  40.968  0.00  0.00    -0.028 C 
ATOM     18  C   UNK A   0      58.627 159.159  40.249  0.00  0.00    -0.013 C 
ATOM     19  C   UNK A   0      58.423 160.474  39.566  0.00  0.00    +0.099 C 
ATOM     20  H   UNK A   0      64.854 160.449  38.375  0.00  0.00    +0.147 HD
ENDROOT
BRANCH  15  21
ATOM     21  O   UNK A   0      65.629 165.538  39.465  0.00  0.00    -0.505 OA
ATOM     22  H   UNK A   0      65.496 166.317  39.969  0.00  0.00    +0.292 HD
ENDBRANCH  15  21
BRANCH   2  23
ATOM     23  N   ALA A   1      59.132 161.510  36.869  0.00  0.00    -0.281 NA
ATOM     24  H   ALA A   1      58.152 161.550  37.150  0.00  0.00    +0.125 HD
BRANCH  23  25
ATOM     25  CA  ALA A   1      59.324 162.460  35.821  0.00  0.00    +0.121 C 
ATOM     26  CB  ALA A   1      59.434 163.890  36.305  0.00  0.00    +0.026 C 
BRANCH  25  27
ATOM     27  C   ALA A   1      58.394 162.370  34.692  0.00  0.00    +0.223 C 
ATOM     28  O   ALA A   1      58.631 161.630  33.760  0.00  0.00    -0.287 OA
ENDBRANCH  25  27
ENDBRANCH  23  25
ENDBRANCH   2  23
TORSDOF 4
ENDMDL
