REMARK  Name = =
REMARK  9 active torsions:
REMARK  status: ('A' for Active; 'I' for Inactive)
REMARK    1  A    between atoms: C_4  and  O_38
REMARK    2  A    between atoms: C_6  and  O_39
REMARK    3  A    between atoms: C_7  and  C_12
REMARK    4  A    between atoms: C_10  and  C_29
REMARK    5  A    between atoms: C_11  and  C_22
REMARK    6  A    between atoms: C_25  and  O_28
REMARK    7  A    between atoms: C_32  and  O_35
REMARK    8  A    between atoms: O_35  and  C_36
REMARK    9  A    between atoms: O_39  and  C_40
REMARK                            x       y       z     vdW  Elec       q    Type
REMARK                         _______ _______ _______ _____ _____    ______ ____
ROOT
ATOM      1  O   UNL     1     -15.343 -42.980  28.397  0.00  0.00    -0.453 OA
ATOM      2  C   UNL     1     -15.359 -42.615  27.146  0.00  0.00    +0.150 A 
ATOM      3  C   UNL     1     -14.140 -42.582  26.506  0.00  0.00    +0.107 A 
ATOM      4  C   UNL     1     -14.068 -42.205  25.196  0.00  0.00    +0.143 C 
ATOM      5  C   UNL     1     -15.261 -41.865  24.560  0.00  0.00    +0.074 C 
ATOM      6  C   UNL     1     -16.497 -41.895  25.193  0.00  0.00    +0.145 C 
ATOM      7  C   UNL     1     -16.569 -42.270  26.504  0.00  0.00    +0.046 C 
ATOM      8  C   UNL     1     -12.960 -42.916  27.152  0.00  0.00    +0.204 A 
ATOM      9  O   UNL     1     -11.851 -42.898  26.606  0.00  0.00    -0.286 OA
ATOM     10  C   UNL     1     -13.045 -43.290  28.483  0.00  0.00    +0.074 A 
ATOM     11  C   UNL     1     -14.301 -43.309  29.085  0.00  0.00    +0.148 A 
ENDROOT
BRANCH   7  12
ATOM     12  C   UNL     1     -17.787 -42.473  27.228  0.00  0.00    +0.028 C 
ATOM     13  C   UNL     1     -19.006 -41.999  26.369  0.00  0.00    +0.004 C 
ATOM     14  C   UNL     1     -20.060 -43.074  26.738  0.00  0.00    +0.000 C 
ATOM     15  C   UNL     1     -19.917 -43.478  28.163  0.00  0.00    +0.000 C 
ATOM     16  C   UNL     1     -19.222 -42.586  29.125  0.00  0.00    +0.000 C 
ATOM     17  C   UNL     1     -18.074 -41.797  28.520  0.00  0.00    +0.005 C 
ATOM     18  C   UNL     1     -21.436 -42.597  26.376  0.00  0.00    +0.000 C 
ATOM     19  C   UNL     1     -21.296 -41.560  25.286  0.00  0.00    +0.000 C 
ATOM     20  C   UNL     1     -20.765 -40.302  25.958  0.00  0.00    +0.000 C 
ATOM     21  C   UNL     1     -19.573 -40.670  26.845  0.00  0.00    +0.000 C 
ENDBRANCH   7  12
BRANCH  11  22
ATOM     22  C   UNL     1     -14.348 -43.708  30.493  0.00  0.00    +0.035 C 
ATOM     23  C   UNL     1     -14.087 -44.943  30.987  0.00  0.00    +0.006 C 
ATOM     24  C   UNL     1     -14.187 -45.171  32.340  0.00  0.00    +0.037 C 
ATOM     25  C   UNL     1     -14.548 -44.177  33.220  0.00  0.00    +0.134 C 
ATOM     26  C   UNL     1     -14.825 -42.895  32.745  0.00  0.00    +0.037 C 
ATOM     27  C   UNL     1     -14.715 -42.702  31.388  0.00  0.00    +0.006 C 
BRANCH  25  28
ATOM     28  O   UNL     1     -14.646 -44.407  34.576  0.00  0.00    -0.506 OA
ATOM     29  H   UNL     1     -14.465 -45.259  34.921  0.00  0.00    +0.292 HD
ENDBRANCH  25  28
ENDBRANCH  11  22
BRANCH  10  30
ATOM     30  C   UNL     1     -11.893 -43.628  29.309  0.00  0.00    +0.006 C 
ATOM     31  C   UNL     1     -11.383 -42.684  30.207  0.00  0.00    +0.003 C 
ATOM     32  C   UNL     1     -10.305 -42.977  31.017  0.00  0.00    +0.038 C 
ATOM     33  C   UNL     1      -9.677 -44.196  30.990  0.00  0.00    +0.149 C 
ATOM     34  C   UNL     1     -10.176 -45.151  30.093  0.00  0.00    +0.038 C 
ATOM     35  C   UNL     1     -11.250 -44.843  29.294  0.00  0.00    +0.003 C 
BRANCH  33  36
ATOM     36  O   UNL     1      -8.587 -44.530  31.794  0.00  0.00    -0.417 OA
BRANCH  36  37
ATOM     37  C   UNL     1      -7.275 -44.161  31.511  0.00  0.00    +0.423 C 
ATOM     38  O   UNL     1      -7.019 -43.399  30.556  0.00  0.00    -0.237 OA
ENDBRANCH  36  37
ENDBRANCH  33  36
ENDBRANCH  10  30
BRANCH   4  39
ATOM     39  O   UNL     1     -12.834 -42.178  24.561  0.00  0.00    -0.505 OA
ATOM     40  H   UNL     1     -12.060 -42.416  25.032  0.00  0.00    +0.292 HD
ENDBRANCH   4  39
BRANCH   6  41
ATOM     41  O   UNL     1     -17.612 -41.552  24.447  0.00  0.00    -0.440 OA
BRANCH  41  42
ATOM     42  C   UNL     1     -17.703 -41.533  23.069  0.00  0.00    +0.368 C 
ATOM     43  O   UNL     1     -17.630 -40.213  22.517  0.00  0.00    -0.407 OA
ATOM     44  C   UNL     1     -18.734 -39.934  21.733  0.00  0.00    +0.344 C 
ATOM     45  O   UNL     1     -18.986 -38.886  21.094  0.00  0.00    -0.245 OA
ATOM     46  C   UNL     1     -19.591 -41.100  21.770  0.00  0.00    +0.085 C 
ATOM     47  C   UNL     1     -19.014 -42.001  22.524  0.00  0.00    +0.071 C 
ENDBRANCH  41  42
ENDBRANCH   6  41
TORSDOF 9
