REMARK  Name = =
REMARK  1 active torsions:
REMARK  status: ('A' for Active; 'I' for Inactive)
REMARK    1  A    between atoms: C_1  and  C_20
REMARK                            x       y       z     vdW  Elec       q    Type
REMARK                         _______ _______ _______ _____ _____    ______ ____
ROOT
ATOM      1  C   UNL     1     -13.134 -43.433  27.417  0.00  0.00    +0.029 C 
ATOM      2  C   UNL     1     -14.338 -42.569  27.762  0.00  0.00    +0.005 C 
ATOM      3  C   UNL     1     -15.089 -42.066  26.610  0.00  0.00    +0.000 C 
ATOM      4  C   UNL     1     -14.309 -41.575  25.454  0.00  0.00    +0.000 C 
ATOM      5  C   UNL     1     -13.192 -42.496  25.104  0.00  0.00    +0.000 C 
ATOM      6  C   UNL     1     -12.315 -42.846  26.307  0.00  0.00    +0.005 C 
ATOM      7  C   UNL     1     -15.307 -41.557  24.330  0.00  0.00    +0.000 C 
ATOM      8  C   UNL     1     -16.511 -42.327  24.764  0.00  0.00    +0.000 C 
ATOM      9  C   UNL     1     -16.227 -42.898  26.132  0.00  0.00    +0.000 C 
ATOM     10  C   UNL     1     -15.195 -43.345  28.713  0.00  0.00    +0.005 C 
ATOM     11  C   UNL     1     -14.503 -43.640  30.030  0.00  0.00    +0.022 C 
ATOM     12  C   UNL     1     -13.084 -44.085  29.800  0.00  0.00    -0.041 C 
ATOM     13  C   UNL     1     -12.551 -44.957  30.641  0.00  0.00    +0.029 C 
ATOM     14  C   UNL     1     -11.177 -45.381  30.410  0.00  0.00    +0.173 C 
ATOM     15  O   UNL     1     -10.632 -46.140  31.249  0.00  0.00    -0.291 OA
ATOM     16  C   UNL     1     -10.373 -44.969  29.236  0.00  0.00    +0.069 C 
ATOM     17  C   UNL     1     -10.923 -43.689  28.619  0.00  0.00    +0.012 C 
ATOM     18  C   UNL     1     -12.365 -43.543  28.676  0.00  0.00    +0.023 C 
ENDROOT
BRANCH   1  20
ATOM     19  S   UNL     1     -12.635 -45.887  26.826  0.00  0.00    -0.055 S 
ATOM     20  C   UNL     1     -13.564 -44.809  26.989  0.00  0.00    +0.016 C 
ENDBRANCH   1  20
TORSDOF 1
