REMARK  Name = =
REMARK  0 active torsions:
REMARK  status: ('A' for Active; 'I' for Inactive)
REMARK                            x       y       z     vdW  Elec       q    Type
REMARK                         _______ _______ _______ _____ _____    ______ ____
ROOT
ATOM      1  C   UNL     1      51.107 155.316  29.112  0.00  0.00    +0.000 C 
ATOM      2  C   UNL     1      51.763 156.110  28.080  0.00  0.00    +0.000 C 
ATOM      3  C   UNL     1      51.650 157.575  28.136  0.00  0.00    +0.000 C 
ATOM      4  C   UNL     1      51.416 158.127  29.516  0.00  0.00    +0.000 C 
ATOM      5  C   UNL     1      50.150 157.432  30.036  0.00  0.00    +0.000 C 
ATOM      6  C   UNL     1      50.527 156.007  30.276  0.00  0.00    +0.000 C 
ATOM      7  C   UNL     1      53.103 155.599  27.614  0.00  0.00    +0.000 C 
ATOM      8  C   UNL     1      53.120 154.151  27.344  0.00  0.00    +0.000 C 
ATOM      9  C   UNL     1      52.930 153.728  25.942  0.00  0.00    +0.000 C 
ATOM     10  C   UNL     1      53.338 154.694  24.898  0.00  0.00    +0.000 C 
ATOM     11  C   UNL     1      54.333 155.696  25.425  0.00  0.00    +0.000 C 
ATOM     12  C   UNL     1      53.596 156.473  26.523  0.00  0.00    +0.000 C 
ATOM     13  C   UNL     1      53.887 153.915  23.745  0.00  0.00    +0.000 C 
ATOM     14  C   UNL     1      53.596 152.453  24.086  0.00  0.00    +0.000 C 
ATOM     15  C   UNL     1      53.752 152.485  25.601  0.00  0.00    +0.000 C 
ATOM     16  C   UNL     1      52.230 153.346  28.230  0.00  0.00    +0.000 C 
ATOM     17  C   UNL     1      51.816 154.047  29.491  0.00  0.00    +0.000 C 
ENDROOT
TORSDOF 0
