REMARK  Name = =
REMARK  2 active torsions:
REMARK  status: ('A' for Active; 'I' for Inactive)
REMARK    1  A    between atoms: C_11  and  C_18
REMARK    2  A    between atoms: C_19  and  C_20
REMARK                            x       y       z     vdW  Elec       q    Type
REMARK                         _______ _______ _______ _____ _____    ______ ____
ROOT
ATOM      1  C   UNL     1      52.060 156.248  28.689  0.00  0.00    +0.000 C 
ATOM      2  C   UNL     1      51.267 155.319  27.767  0.00  0.00    +0.000 C 
ATOM      3  C   UNL     1      50.522 154.285  28.571  0.00  0.00    +0.000 C 
ATOM      4  C   UNL     1      50.382 154.680  30.018  0.00  0.00    +0.000 C 
ATOM      5  C   UNL     1      50.074 156.161  30.216  0.00  0.00    +0.000 C 
ATOM      6  C   UNL     1      51.116 157.018  29.503  0.00  0.00    +0.000 C 
ATOM      7  C   UNL     1      52.221 154.829  26.757  0.00  0.00    +0.001 C 
ATOM      8  C   UNL     1      53.186 153.850  27.357  0.00  0.00    +0.000 C 
ATOM      9  C   UNL     1      54.223 153.364  26.438  0.00  0.00    +0.001 C 
ATOM     10  C   UNL     1      54.391 154.278  25.166  0.00  0.00    +0.012 C 
ATOM     11  C   UNL     1      54.428 155.610  25.572  0.00  0.00    +0.064 C 
ATOM     12  C   UNL     1      52.733 155.835  25.875  0.00  0.00    +0.013 C 
ATOM     13  C   UNL     1      53.051 153.829  24.523  0.00  0.00    +0.001 C 
ATOM     14  C   UNL     1      53.437 152.323  24.393  0.00  0.00    +0.000 C 
ATOM     15  C   UNL     1      53.989 152.007  25.766  0.00  0.00    +0.000 C 
ATOM     16  C   UNL     1      53.544 154.208  28.754  0.00  0.00    +0.000 C 
ATOM     17  C   UNL     1      53.286 155.635  29.194  0.00  0.00    +0.000 C 
ENDROOT
BRANCH  11  18
ATOM     18  C   UNL     1      54.490 156.729  24.651  0.00  0.00    -0.092 C 
ATOM     19  C   UNL     1      54.558 157.596  23.935  0.00  0.00    -0.091 C 
BRANCH  19  20
ATOM     20  C   UNL     1      54.614 158.592  23.127  0.00  0.00    +0.076 C 
ATOM     21  C   UNL     1      54.684 159.790  22.177  0.00  0.00    +0.015 C 
ENDBRANCH  19  20
ENDBRANCH  11  18
TORSDOF 2
