REMARK  Name = =
REMARK  3 active torsions:
REMARK  status: ('A' for Active; 'I' for Inactive)
REMARK    1  A    between atoms: C_1  and  S_18
REMARK    2  A    between atoms: C_11  and  C_19
REMARK    3  A    between atoms: C_20  and  C_21
REMARK                            x       y       z     vdW  Elec       q    Type
REMARK                         _______ _______ _______ _____ _____    ______ ____
ROOT
ATOM      1  C   UNL     1      51.534 156.629  28.355  0.00  0.00    +0.036 C 
ATOM      2  C   UNL     1      52.146 155.296  28.541  0.00  0.00    +0.009 C 
ATOM      3  C   UNL     1      52.879 155.167  29.864  0.00  0.00    +0.001 C 
ATOM      4  C   UNL     1      53.634 156.465  30.152  0.00  0.00    +0.000 C 
ATOM      5  C   UNL     1      52.587 157.562  30.369  0.00  0.00    +0.001 C 
ATOM      6  C   UNL     1      51.267 157.183  29.755  0.00  0.00    +0.010 C 
ATOM      7  C   UNL     1      52.895 154.760  27.362  0.00  0.00    +0.002 C 
ATOM      8  C   UNL     1      53.512 155.763  26.463  0.00  0.00    +0.000 C 
ATOM      9  C   UNL     1      54.096 155.207  25.245  0.00  0.00    +0.001 C 
ATOM     10  C   UNL     1      54.255 153.687  25.304  0.00  0.00    +0.012 C 
ATOM     11  C   UNL     1      53.014 153.008  25.528  0.00  0.00    +0.065 C 
ATOM     12  C   UNL     1      52.214 153.613  26.737  0.00  0.00    +0.013 C 
ATOM     13  C   UNL     1      54.823 153.499  23.918  0.00  0.00    +0.001 C 
ATOM     14  C   UNL     1      53.869 154.312  23.055  0.00  0.00    +0.000 C 
ATOM     15  C   UNL     1      53.523 155.502  23.923  0.00  0.00    +0.000 C 
ATOM     16  C   UNL     1      52.667 156.949  26.189  0.00  0.00    +0.001 C 
ATOM     17  C   UNL     1      52.240 157.602  27.503  0.00  0.00    +0.010 C 
ENDROOT
BRANCH   1  18
ATOM     18  S   UNL     1      49.835 156.485  27.639  0.00  0.00    -0.170 S 
ATOM     19  H   UNL     1      49.108 155.599  28.371  0.00  0.00    +0.102 HD
ENDBRANCH   1  18
BRANCH  11  20
ATOM     20  C   UNL     1      53.014 151.607  25.664  0.00  0.00    -0.079 C 
ATOM     21  C   UNL     1      53.016 150.398  25.761  0.00  0.00    -0.013 C 
BRANCH  21  22
ATOM     22  C   UNL     1      53.002 148.897  25.859  0.00  0.00    -0.001 C 
ATOM     23  C   UNL     1      52.979 147.810  25.934  0.00  0.00    -0.000 C 
ENDBRANCH  21  22
ENDBRANCH  11  20
TORSDOF 3
