MODEL 1
REMARK VINA RESULT:   -10.766      0.000      0.000
REMARK INTER + INTRA:         -12.862
REMARK INTER:                 -13.598
REMARK INTRA:                   0.736
REMARK UNBOUND:                 0.736
REMARK  Name = =
REMARK  5 active torsions:
REMARK  status: ('A' for Active; 'I' for Inactive)
REMARK    1  A    between atoms: C_1  and  C_17
REMARK    2  A    between atoms: C_3  and  O_27
REMARK    3  A    between atoms: C_5  and  C_7
REMARK    4  A    between atoms: N_19  and  C_20
REMARK    5  A    between atoms: N_24  and  S_25
REMARK                            x       y       z     vdW  Elec       q    Type
REMARK                         _______ _______ _______ _____ _____    ______ ____
ROOT
ATOM      1  C   UNL     1      52.132 156.670  28.761  0.00  0.00    +0.056 C 
ATOM      2  C   UNL     1      51.828 155.596  29.571  0.00  0.00    +0.041 C 
ATOM      3  C   UNL     1      51.842 154.301  29.152  0.00  0.00    +0.134 C 
ATOM      4  C   UNL     1      52.190 154.084  27.815  0.00  0.00    +0.033 C 
ATOM      5  C   UNL     1      52.505 155.108  26.953  0.00  0.00    -0.015 C 
ATOM      6  C   UNL     1      52.469 156.399  27.452  0.00  0.00    +0.001 C 
ENDROOT
BRANCH   5   7
ATOM      7  C   UNL     1      52.869 154.802  25.540  0.00  0.00    +0.051 C 
ATOM      8  C   UNL     1      53.840 155.778  24.981  0.00  0.00    +0.056 C 
ATOM      9  C   UNL     1      55.059 155.202  24.341  0.00  0.00    +0.206 C 
ATOM     10  O   UNL     1      54.795 153.962  23.709  0.00  0.00    -0.476 OA
ATOM     11  C   UNL     1      54.151 152.993  24.452  0.00  0.00    +0.135 C 
ATOM     12  C   UNL     1      53.210 153.385  25.354  0.00  0.00    +0.016 C 
ATOM     13  C   UNL     1      52.565 152.421  26.099  0.00  0.00    -0.001 C 
ATOM     14  C   UNL     1      52.878 151.073  25.923  0.00  0.00    -0.000 C 
ATOM     15  C   UNL     1      53.831 150.687  25.007  0.00  0.00    +0.003 C 
ATOM     16  C   UNL     1      54.474 151.637  24.267  0.00  0.00    +0.037 C 
ENDBRANCH   5   7
BRANCH   1  17
ATOM     17  C   UNL     1      52.086 158.017  29.315  0.00  0.00    +0.248 C 
ATOM     18  O   UNL     1      53.085 158.784  29.221  0.00  0.00    -0.270 OA
ATOM     19  N   UNL     1      50.957 158.559  29.983  0.00  0.00    -0.276 N 
ATOM     20  H   UNL     1      50.158 157.990  30.077  0.00  0.00    +0.152 HD
BRANCH  19  21
ATOM     21  C   UNL     1      50.908 159.883  30.529  0.00  0.00    +0.207 C 
ATOM     22  N   UNL     1      52.149 160.313  31.133  0.00  0.00    -0.268 NA
ATOM     23  C   UNL     1      51.729 161.613  31.688  0.00  0.00    +0.089 C 
ATOM     24  C   UNL     1      50.400 161.221  32.307  0.00  0.00    +0.105 C 
ATOM     25  N   UNL     1      49.905 160.094  31.523  0.00  0.00    -0.175 NA
ATOM     26  H   UNL     1      52.890 160.419  30.440  0.00  0.00    +0.126 HD
BRANCH  25  27
ATOM     27  S   UNL     1      48.434 160.616  30.733  0.00  0.00    +0.086 S 
ATOM     28  O   UNL     1      47.239 159.899  31.354  0.00  0.00    -0.244 OA
ATOM     29  H   UNL     1      48.502 160.319  29.407  0.00  0.00    +0.156 HD
ENDBRANCH  25  27
ENDBRANCH  19  21
ENDBRANCH   1  17
BRANCH   3  30
ATOM     30  O   UNL     1      51.529 153.284  30.012  0.00  0.00    -0.506 OA
ATOM     31  H   UNL     1      52.185 152.934  30.582  0.00  0.00    +0.292 HD
ENDBRANCH   3  30
TORSDOF 5
ENDMDL
