REMARK  Name = =
REMARK  0 active torsions:
REMARK  status: ('A' for Active; 'I' for Inactive)
REMARK                            x       y       z     vdW  Elec       q    Type
REMARK                         _______ _______ _______ _____ _____    ______ ____
ROOT
ATOM      1  C   UNL     1      52.190 156.478  29.004  0.00  0.00    +0.021 C 
ATOM      2  C   UNL     1      51.204 155.608  29.427  0.00  0.00    +0.101 C 
ATOM      3  N   UNL     1      50.926 154.439  28.838  0.00  0.00    -0.225 NA
ATOM      4  C   UNL     1      51.633 154.037  27.748  0.00  0.00    +0.166 C 
ATOM      5  N   UNL     1      51.328 152.842  27.169  0.00  0.00    -0.205 NA
ATOM      6  C   UNL     1      52.058 152.498  26.099  0.00  0.00    +0.200 C 
ATOM      7  N   UNL     1      53.042 153.287  25.616  0.00  0.00    -0.222 NA
ATOM      8  C   UNL     1      53.344 154.454  26.177  0.00  0.00    +0.104 C 
ATOM      9  C   UNL     1      52.623 154.875  27.297  0.00  0.00    +0.055 C 
ATOM     10  C   UNL     1      52.915 156.083  27.900  0.00  0.00    +0.006 C 
ENDROOT
TORSDOF 0
