REMARK  Name = =
REMARK  0 active torsions:
REMARK  status: ('A' for Active; 'I' for Inactive)
REMARK                            x       y       z     vdW  Elec       q    Type
REMARK                         _______ _______ _______ _____ _____    ______ ____
ROOT
ATOM      1  N   UNL     1      51.741 155.809  28.381  0.00  0.00    -0.197 N 
ATOM      2  N   UNL     1      53.011 155.534  28.078  0.00  0.00    -0.055 NA
ATOM      3  N   UNL     1      53.114 154.203  27.942  0.00  0.00    -0.025 NA
ATOM      4  N   UNL     1      51.939 153.689  28.154  0.00  0.00    -0.108 NA
ATOM      5  C   UNL     1      51.046 154.658  28.434  0.00  0.00    +0.207 C 
ATOM      6  H   UNL     1      51.372 156.708  28.540  0.00  0.00    +0.178 HD
ENDROOT
TORSDOF 0
