REMARK  Name = =
REMARK  0 active torsions:
REMARK  status: ('A' for Active; 'I' for Inactive)
REMARK                            x       y       z     vdW  Elec       q    Type
REMARK                         _______ _______ _______ _____ _____    ______ ____
ROOT
ATOM      1  N   UNL     1      52.807 157.176  29.069  0.00  0.00    -0.221 NA
ATOM      2  C   UNL     1      51.953 156.138  29.120  0.00  0.00    +0.200 C 
ATOM      3  N   UNL     1      50.700 156.323  29.539  0.00  0.00    -0.204 NA
ATOM      4  C   UNL     1      50.199 157.509  29.931  0.00  0.00    +0.180 C 
ATOM      5  C   UNL     1      51.059 158.591  29.887  0.00  0.00    +0.105 C 
ATOM      6  C   UNL     1      52.351 158.377  29.449  0.00  0.00    +0.118 C 
ATOM      7  N   UNL     1      50.385 159.672  30.310  0.00  0.00    -0.292 N 
ATOM      8  C   UNL     1      49.118 159.312  30.625  0.00  0.00    +0.166 C 
ATOM      9  N   UNL     1      49.040 157.989  30.382  0.00  0.00    -0.208 NA
ATOM     10  H   UNL     1      50.753 160.582  30.380  0.00  0.00    +0.154 HD
ENDROOT
TORSDOF 0
