REMARK  Name = =
REMARK  1 active torsions:
REMARK  status: ('A' for Active; 'I' for Inactive)
REMARK    1  A    between atoms: C_1  and  N_19
REMARK                            x       y       z     vdW  Elec       q    Type
REMARK                         _______ _______ _______ _____ _____    ______ ____
ROOT
ATOM      1  C   UNL     1      52.628 156.161  27.802  0.00  0.00    +0.100 C 
ATOM      2  C   UNL     1      53.527 154.978  27.679  0.00  0.00    +0.020 C 
ATOM      3  C   UNL     1      53.868 154.831  26.224  0.00  0.00    +0.002 C 
ATOM      4  C   UNL     1      53.979 153.416  25.788  0.00  0.00    +0.000 C 
ATOM      5  C   UNL     1      52.715 152.621  25.950  0.00  0.00    +0.000 C 
ATOM      6  C   UNL     1      53.108 151.146  25.952  0.00  0.00    +0.001 C 
ATOM      7  C   UNL     1      54.278 150.999  25.035  0.00  0.00    +0.007 C 
ATOM      8  C   UNL     1      54.124 151.957  23.854  0.00  0.00    +0.000 C 
ATOM      9  C   UNL     1      54.546 153.327  24.399  0.00  0.00    +0.000 C 
ATOM     10  C   UNL     1      54.587 149.609  24.622  0.00  0.00    +0.064 C 
ATOM     11  C   UNL     1      53.601 148.602  25.026  0.00  0.00    +0.151 C 
ATOM     12  O   UNL     1      53.980 147.451  25.176  0.00  0.00    -0.296 OA
ATOM     13  C   UNL     1      52.186 148.916  25.257  0.00  0.00    +0.065 C 
ATOM     14  C   UNL     1      51.909 150.359  25.534  0.00  0.00    +0.008 C 
ATOM     15  C   UNL     1      52.014 153.029  27.203  0.00  0.00    +0.000 C 
ATOM     16  C   UNL     1      52.943 153.698  28.187  0.00  0.00    +0.002 C 
ATOM     17  C   UNL     1      52.878 155.649  25.451  0.00  0.00    +0.002 C 
ATOM     18  C   UNL     1      52.047 156.422  26.429  0.00  0.00    +0.022 C 
ENDROOT
BRANCH   1  19
ATOM     19  N   UNL     1      51.605 156.016  28.803  0.00  0.00    -0.173 N 
ATOM     20  N   UNL     1      50.333 155.823  28.556  0.00  0.00    -0.052 NA
ATOM     21  N   UNL     1      49.709 155.740  29.711  0.00  0.00    -0.025 NA
ATOM     22  N   UNL     1      50.575 155.877  30.683  0.00  0.00    -0.108 NA
ATOM     23  C   UNL     1      51.784 156.053  30.120  0.00  0.00    +0.210 C 
ENDBRANCH   1  19
TORSDOF 1
