REMARK  Name = =
REMARK  0 active torsions:
REMARK  status: ('A' for Active; 'I' for Inactive)
REMARK                            x       y       z     vdW  Elec       q    Type
REMARK                         _______ _______ _______ _____ _____    ______ ____
ROOT
ATOM      1  N   UNL     1      52.705 157.426  28.589  0.00  0.00    -0.210 NA
ATOM      2  C   UNL     1      51.935 156.327  28.613  0.00  0.00    +0.233 C 
ATOM      3  N   UNL     1      50.783 156.385  29.302  0.00  0.00    -0.193 NA
ATOM      4  C   UNL     1      50.422 157.511  29.945  0.00  0.00    +0.182 C 
ATOM      5  C   UNL     1      51.213 158.623  29.915  0.00  0.00    +0.105 C 
ATOM      6  C   UNL     1      52.399 158.563  29.204  0.00  0.00    +0.120 C 
ATOM      7  N   UNL     1      50.603 159.588  30.639  0.00  0.00    -0.292 N 
ATOM      8  C   UNL     1      49.443 159.116  31.130  0.00  0.00    +0.166 C 
ATOM      9  N   UNL     1      49.343 157.848  30.700  0.00  0.00    -0.208 NA
ATOM     10  N   UNL     1      52.376 155.170  27.912  0.00  0.00    -0.188 N 
ATOM     11  C   UNL     1      53.142 155.251  26.806  0.00  0.00    +0.079 C 
ATOM     12  C   UNL     1      53.567 154.126  26.131  0.00  0.00    +0.048 C 
ATOM     13  C   UNL     1      53.206 152.881  26.588  0.00  0.00    +0.120 C 
ATOM     14  N   UNL     1      52.442 152.834  27.693  0.00  0.00    -0.147 NA
ATOM     15  C   UNL     1      52.026 153.927  28.354  0.00  0.00    +0.338 C 
ATOM     16  O   UNL     1      51.304 153.864  29.397  0.00  0.00    -0.250 OA
ATOM     17  N   UNL     1      53.642 151.734  25.896  0.00  0.00    -0.344 N 
ATOM     18  H   UNL     1      50.954 160.496  30.784  0.00  0.00    +0.154 HD
ATOM     19  H   UNL     1      54.201 151.828  25.091  0.00  0.00    +0.144 HD
ATOM     20  H   UNL     1      53.388 150.839  26.218  0.00  0.00    +0.144 HD
ENDROOT
TORSDOF 0
