REMARK  Name = =
REMARK  1 active torsions:
REMARK  status: ('A' for Active; 'I' for Inactive)
REMARK    1  A    between atoms: N_1  and  C_14
REMARK                            x       y       z     vdW  Elec       q    Type
REMARK                         _______ _______ _______ _____ _____    ______ ____
ROOT
ATOM      1  N   UNL     1      51.274 158.744  29.947  0.00  0.00    -0.308 N 
ATOM      2  C   UNL     1      50.044 159.133  30.294  0.00  0.00    +0.063 A 
ATOM      3  C   UNL     1      50.099 160.343  30.952  0.00  0.00    +0.013 A 
ATOM      4  C   UNL     1      51.462 160.657  30.978  0.00  0.00    -0.006 A 
ATOM      5  C   UNL     1      52.185 159.655  30.349  0.00  0.00    +0.053 A 
ATOM      6  C   UNL     1      53.652 159.820  30.282  0.00  0.00    +0.113 C 
ATOM      7  N   UNL     1      53.922 161.167  29.889  0.00  0.00    -0.292 NA
ATOM      8  C   UNL     1      53.368 162.183  30.716  0.00  0.00    +0.074 C 
ATOM      9  C   UNL     1      52.184 161.807  31.533  0.00  0.00    +0.045 C 
ATOM     10  C   UNL     1      48.959 160.966  31.418  0.00  0.00    +0.001 C 
ATOM     11  C   UNL     1      47.725 160.397  31.238  0.00  0.00    +0.000 C 
ATOM     12  C   UNL     1      47.653 159.182  30.579  0.00  0.00    +0.001 C 
ATOM     13  C   UNL     1      48.812 158.553  30.108  0.00  0.00    +0.017 C 
ATOM     14  H   UNL     1      53.553 161.297  28.947  0.00  0.00    +0.124 HD
ENDROOT
BRANCH   1  15
ATOM     15  C   UNL     1      51.668 157.551  29.249  0.00  0.00    +0.083 C 
ATOM     16  C   UNL     1      51.330 156.303  29.699  0.00  0.00    +0.118 C 
ATOM     17  N   UNL     1      51.710 155.220  29.033  0.00  0.00    -0.223 NA
ATOM     18  C   UNL     1      52.425 155.273  27.915  0.00  0.00    +0.166 C 
ATOM     19  N   UNL     1      52.776 154.145  27.289  0.00  0.00    -0.205 NA
ATOM     20  C   UNL     1      53.500 154.197  26.160  0.00  0.00    +0.200 C 
ATOM     21  N   UNL     1      53.864 155.406  25.668  0.00  0.00    -0.222 NA
ATOM     22  C   UNL     1      53.521 156.553  26.281  0.00  0.00    +0.104 C 
ATOM     23  C   UNL     1      52.778 156.531  27.444  0.00  0.00    +0.056 C 
ATOM     24  C   UNL     1      52.408 157.667  28.098  0.00  0.00    +0.024 C 
ENDBRANCH   1  15
TORSDOF 1
