REMARK  Name = =
REMARK  2 active torsions:
REMARK  status: ('A' for Active; 'I' for Inactive)
REMARK    1  A    between atoms: C_1  and  C_19
REMARK    2  A    between atoms: C_1  and  N_29
REMARK                            x       y       z     vdW  Elec       q    Type
REMARK                         _______ _______ _______ _____ _____    ______ ____
ROOT
ATOM      1  C   UNL     1      51.276 156.305  28.470  0.00  0.00    +0.083 C 
ATOM      2  C   UNL     1      52.508 155.754  27.744  0.00  0.00    +0.019 C 
ATOM      3  C   UNL     1      52.058 154.335  27.500  0.00  0.00    +0.002 C 
ATOM      4  C   UNL     1      52.948 153.563  26.596  0.00  0.00    +0.000 C 
ATOM      5  C   UNL     1      54.042 154.419  26.008  0.00  0.00    +0.000 C 
ATOM      6  C   UNL     1      54.867 153.620  25.066  0.00  0.00    +0.001 C 
ATOM      7  C   UNL     1      55.575 152.534  25.792  0.00  0.00    +0.007 C 
ATOM      8  C   UNL     1      55.003 152.223  27.144  0.00  0.00    +0.000 C 
ATOM      9  C   UNL     1      53.506 152.312  27.190  0.00  0.00    +0.000 C 
ATOM     10  C   UNL     1      55.821 151.302  24.963  0.00  0.00    +0.064 C 
ATOM     11  C   UNL     1      54.592 150.829  24.281  0.00  0.00    +0.151 C 
ATOM     12  O   UNL     1      54.389 149.660  24.085  0.00  0.00    -0.296 OA
ATOM     13  C   UNL     1      53.605 151.827  23.838  0.00  0.00    +0.065 C 
ATOM     14  C   UNL     1      54.195 153.217  23.805  0.00  0.00    +0.008 C 
ATOM     15  C   UNL     1      53.388 155.624  25.390  0.00  0.00    +0.000 C 
ATOM     16  C   UNL     1      52.847 156.497  26.506  0.00  0.00    +0.002 C 
ATOM     17  C   UNL     1      50.658 154.525  27.015  0.00  0.00    +0.002 C 
ATOM     18  C   UNL     1      50.199 155.903  27.503  0.00  0.00    +0.020 C 
ENDROOT
BRANCH   1  19
ATOM     19  C   UNL     1      51.467 157.761  28.658  0.00  0.00    +0.019 C 
ATOM     20  C   UNL     1      51.154 158.313  29.994  0.00  0.00    +0.002 C 
ATOM     21  C   UNL     1      51.806 159.707  30.054  0.00  0.00    +0.000 C 
ATOM     22  C   UNL     1      53.281 159.630  30.245  0.00  0.00    +0.000 C 
ATOM     23  C   UNL     1      53.737 158.323  29.620  0.00  0.00    +0.000 C 
ATOM     24  C   UNL     1      52.927 158.077  28.365  0.00  0.00    +0.002 C 
ATOM     25  C   UNL     1      51.105 160.582  31.049  0.00  0.00    +0.000 C 
ATOM     26  C   UNL     1      49.756 161.010  30.481  0.00  0.00    +0.000 C 
ATOM     27  C   UNL     1      49.263 159.855  29.637  0.00  0.00    +0.000 C 
ATOM     28  C   UNL     1      49.722 158.551  30.306  0.00  0.00    +0.000 C 
ENDBRANCH   1  19
BRANCH   1  29
ATOM     29  N   UNL     1      51.140 155.662  29.746  0.00  0.00    -0.175 N 
ATOM     30  N   UNL     1      50.148 155.777  30.620  0.00  0.00    -0.052 NA
ATOM     31  N   UNL     1      50.406 155.022  31.661  0.00  0.00    -0.025 NA
ATOM     32  N   UNL     1      51.566 154.400  31.494  0.00  0.00    -0.108 NA
ATOM     33  C   UNL     1      52.013 154.808  30.295  0.00  0.00    +0.210 C 
ENDBRANCH   1  29
TORSDOF 2
