REMARK  Name = =
REMARK  3 active torsions:
REMARK  status: ('A' for Active; 'I' for Inactive)
REMARK    1  A    between atoms: N_1  and  C_14
REMARK    2  A    between atoms: C_15  and  N_24
REMARK    3  A    between atoms: N_24  and  O_25
REMARK                            x       y       z     vdW  Elec       q    Type
REMARK                         _______ _______ _______ _____ _____    ______ ____
ROOT
ATOM      1  N   UNL     1      51.406 158.464  29.797  0.00  0.00    -0.306 N 
ATOM      2  C   UNL     1      50.127 158.667  30.136  0.00  0.00    +0.063 A 
ATOM      3  C   UNL     1      50.078 159.810  30.901  0.00  0.00    +0.013 A 
ATOM      4  C   UNL     1      51.350 160.292  31.017  0.00  0.00    -0.006 A 
ATOM      5  C   UNL     1      52.171 159.416  30.305  0.00  0.00    +0.053 A 
ATOM      6  C   UNL     1      53.617 159.766  30.305  0.00  0.00    +0.113 C 
ATOM      7  N   UNL     1      53.737 161.136  29.917  0.00  0.00    -0.292 NA
ATOM      8  C   UNL     1      52.962 162.058  30.678  0.00  0.00    +0.074 C 
ATOM      9  C   UNL     1      52.028 161.434  31.665  0.00  0.00    +0.045 C 
ATOM     10  C   UNL     1      48.902 160.301  31.414  0.00  0.00    +0.001 C 
ATOM     11  C   UNL     1      47.745 159.603  31.137  0.00  0.00    +0.000 C 
ATOM     12  C   UNL     1      47.793 158.456  30.370  0.00  0.00    +0.001 C 
ATOM     13  C   UNL     1      48.968 157.971  29.861  0.00  0.00    +0.017 C 
ATOM     14  H   UNL     1      53.449 161.213  28.942  0.00  0.00    +0.124 HD
ENDROOT
BRANCH   1  15
ATOM     15  C   UNL     1      51.859 157.380  29.006  0.00  0.00    +0.100 C 
ATOM     16  C   UNL     1      51.717 156.074  29.394  0.00  0.00    +0.177 C 
ATOM     17  N   UNL     1      52.165 155.088  28.607  0.00  0.00    -0.206 NA
ATOM     18  C   UNL     1      52.758 155.342  27.428  0.00  0.00    +0.167 C 
ATOM     19  N   UNL     1      53.217 154.368  26.617  0.00  0.00    -0.205 NA
ATOM     20  C   UNL     1      53.808 154.596  25.445  0.00  0.00    +0.200 C 
ATOM     21  N   UNL     1      53.971 155.845  25.019  0.00  0.00    -0.222 NA
ATOM     22  C   UNL     1      53.537 156.866  25.776  0.00  0.00    +0.104 C 
ATOM     23  C   UNL     1      52.924 156.646  26.992  0.00  0.00    +0.057 C 
ATOM     24  C   UNL     1      52.462 157.659  27.805  0.00  0.00    +0.025 C 
BRANCH  16  25
ATOM     25  N   UNL     1      51.094 155.750  30.639  0.00  0.00    -0.249 N 
ATOM     26  H   UNL     1      50.745 156.470  31.213  0.00  0.00    +0.196 HD
BRANCH  25  27
ATOM     27  O   UNL     1      50.982 154.482  31.029  0.00  0.00    -0.288 OA
ATOM     28  H   UNL     1      51.372 153.901  30.357  0.00  0.00    +0.244 HD
ENDBRANCH  25  27
ENDBRANCH  16  25
ENDBRANCH   1  15
TORSDOF 3
