REMARK  Name = =
REMARK  2 active torsions:
REMARK  status: ('A' for Active; 'I' for Inactive)
REMARK    1  A    between atoms: C_11  and  C_18
REMARK    2  A    between atoms: N_19  and  N_24
REMARK                            x       y       z     vdW  Elec       q    Type
REMARK                         _______ _______ _______ _____ _____    ______ ____
ROOT
ATOM      1  N   UNL     1      50.079 162.639  30.518  0.00  0.00    -0.210 NA
ATOM      2  C   UNL     1      50.251 161.405  30.058  0.00  0.00    +0.232 C 
ATOM      3  N   UNL     1      51.429 160.798  30.317  0.00  0.00    -0.193 NA
ATOM      4  C   UNL     1      52.412 161.389  31.010  0.00  0.00    +0.182 C 
ATOM      5  C   UNL     1      52.229 162.669  31.484  0.00  0.00    +0.105 C 
ATOM      6  C   UNL     1      51.029 163.284  31.218  0.00  0.00    +0.120 C 
ATOM      7  N   UNL     1      53.363 163.037  32.147  0.00  0.00    -0.292 N 
ATOM      8  C   UNL     1      54.238 162.016  32.092  0.00  0.00    +0.166 C 
ATOM      9  N   UNL     1      53.659 161.022  31.404  0.00  0.00    -0.208 NA
ATOM     10  N   UNL     1      49.265 160.672  29.302  0.00  0.00    -0.192 N 
ATOM     11  C   UNL     1      48.535 159.721  29.908  0.00  0.00    +0.058 C 
ATOM     12  C   UNL     1      47.605 159.033  29.165  0.00  0.00    +0.044 C 
ATOM     13  C   UNL     1      47.396 159.287  27.819  0.00  0.00    +0.120 C 
ATOM     14  N   UNL     1      48.151 160.248  27.262  0.00  0.00    -0.147 NA
ATOM     15  C   UNL     1      49.052 160.911  27.994  0.00  0.00    +0.338 C 
ATOM     16  O   UNL     1      49.761 161.811  27.472  0.00  0.00    -0.250 OA
ATOM     17  N   UNL     1      46.424 158.563  27.061  0.00  0.00    -0.344 N 
ATOM     18  H   UNL     1      53.515 163.903  32.590  0.00  0.00    +0.154 HD
ATOM     19  H   UNL     1      45.884 157.863  27.494  0.00  0.00    +0.144 HD
ATOM     20  H   UNL     1      46.295 158.764  26.106  0.00  0.00    +0.144 HD
ENDROOT
BRANCH  11  21
ATOM     21  C   UNL     1      48.669 159.367  31.345  0.00  0.00    +0.112 C 
ATOM     22  N   UNL     1      50.034 158.992  31.580  0.00  0.00    -0.198 NA
ATOM     23  C   UNL     1      50.468 159.023  32.936  0.00  0.00    +0.160 C 
ATOM     24  N   UNL     1      50.066 160.205  33.657  0.00  0.00    -0.283 NA
ATOM     25  C   UNL     1      48.623 160.300  33.594  0.00  0.00    +0.071 C 
ATOM     26  C   UNL     1      48.287 160.604  32.133  0.00  0.00    +0.040 C 
ATOM     27  H   UNL     1      50.486 161.030  33.230  0.00  0.00    +0.125 HD
BRANCH  22  28
ATOM     28  N   UNL     1      50.274 157.772  30.991  0.00  0.00    -0.218 NA
ATOM     29  C   UNL     1      49.080 157.074  30.640  0.00  0.00    +0.089 C 
ATOM     30  C   UNL     1      49.153 156.098  29.541  0.00  0.00    +0.023 C 
ATOM     31  C   UNL     1      50.031 156.450  28.390  0.00  0.00    +0.025 C 
ATOM     32  C   UNL     1      50.761 157.766  28.587  0.00  0.00    +0.022 C 
ATOM     33  C   UNL     1      51.290 157.779  29.980  0.00  0.00    +0.077 C 
ATOM     34  C   UNL     1      52.223 156.642  30.210  0.00  0.00    +0.043 C 
ATOM     35  C   UNL     1      52.144 155.556  29.208  0.00  0.00    -0.025 C 
ATOM     36  C   UNL     1      51.110 155.416  28.308  0.00  0.00    -0.026 C 
ATOM     37  C   UNL     1      51.114 154.384  27.416  0.00  0.00    -0.005 C 
ATOM     38  C   UNL     1      52.129 153.451  27.372  0.00  0.00    -0.000 C 
ATOM     39  C   UNL     1      53.166 153.590  28.274  0.00  0.00    -0.000 C 
ATOM     40  C   UNL     1      53.165 154.632  29.176  0.00  0.00    -0.005 C 
ENDBRANCH  22  28
ENDBRANCH  11  21
TORSDOF 2
