REMARK  Name = =
REMARK  3 active torsions:
REMARK  status: ('A' for Active; 'I' for Inactive)
REMARK    1  A    between atoms: C_1  and  C_19
REMARK    2  A    between atoms: C_1  and  N_37
REMARK    3  A    between atoms: C_19  and  C_31
REMARK                            x       y       z     vdW  Elec       q    Type
REMARK                         _______ _______ _______ _____ _____    ______ ____
ROOT
ATOM      1  C   UNL     1      52.451 153.805  27.046  0.00  0.00    +0.086 C 
ATOM      2  C   UNL     1      52.500 154.890  28.108  0.00  0.00    +0.019 C 
ATOM      3  C   UNL     1      52.074 156.119  27.413  0.00  0.00    +0.002 C 
ATOM      4  C   UNL     1      51.692 157.272  28.266  0.00  0.00    +0.000 C 
ATOM      5  C   UNL     1      50.542 156.784  29.160  0.00  0.00    +0.000 C 
ATOM      6  C   UNL     1      50.058 157.977  29.907  0.00  0.00    +0.001 C 
ATOM      7  C   UNL     1      51.123 158.496  30.813  0.00  0.00    +0.007 C 
ATOM      8  C   UNL     1      52.454 158.698  30.188  0.00  0.00    +0.000 C 
ATOM      9  C   UNL     1      52.821 157.775  29.100  0.00  0.00    +0.000 C 
ATOM     10  C   UNL     1      50.734 159.733  31.564  0.00  0.00    +0.064 C 
ATOM     11  C   UNL     1      49.566 160.404  30.940  0.00  0.00    +0.151 C 
ATOM     12  O   UNL     1      48.731 160.963  31.629  0.00  0.00    -0.296 OA
ATOM     13  C   UNL     1      49.445 160.374  29.471  0.00  0.00    +0.065 C 
ATOM     14  C   UNL     1      49.528 158.984  28.934  0.00  0.00    +0.008 C 
ATOM     15  C   UNL     1      51.116 155.733  30.045  0.00  0.00    +0.000 C 
ATOM     16  C   UNL     1      51.636 154.547  29.303  0.00  0.00    +0.002 C 
ATOM     17  C   UNL     1      50.943 155.691  26.565  0.00  0.00    +0.002 C 
ATOM     18  C   UNL     1      51.208 154.253  26.312  0.00  0.00    +0.021 C 
ENDROOT
BRANCH   1  19
ATOM     19  C   UNL     1      53.667 153.694  26.232  0.00  0.00    +0.040 C 
ATOM     20  C   UNL     1      54.159 154.874  25.496  0.00  0.00    +0.005 C 
ATOM     21  C   UNL     1      55.282 154.696  24.584  0.00  0.00    +0.000 C 
ATOM     22  C   UNL     1      54.703 153.920  23.372  0.00  0.00    +0.000 C 
ATOM     23  C   UNL     1      54.472 152.558  24.085  0.00  0.00    +0.000 C 
ATOM     24  C   UNL     1      53.351 152.736  25.018  0.00  0.00    +0.006 C 
ATOM     25  C   UNL     1      56.021 155.896  24.162  0.00  0.00    +0.000 C 
ATOM     26  C   UNL     1      54.968 156.880  23.626  0.00  0.00    +0.000 C 
ATOM     27  C   UNL     1      54.122 157.211  24.810  0.00  0.00    +0.000 C 
ATOM     28  C   UNL     1      53.276 156.018  25.290  0.00  0.00    +0.000 C 
BRANCH  19  31
ATOM     29  F   UNL     1      53.891 153.714  29.068  0.00  0.00    -0.204 F 
ATOM     30  C   UNL     1      54.874 153.067  28.342  0.00  0.00    +0.138 C 
ATOM     31  C   UNL     1      54.843 153.126  26.943  0.00  0.00    +0.034 C 
ATOM     32  C   UNL     1      55.915 152.513  26.342  0.00  0.00    +0.138 C 
ATOM     33  C   UNL     1      56.942 151.888  27.058  0.00  0.00    +0.029 C 
ATOM     34  C   UNL     1      56.917 151.860  28.424  0.00  0.00    +0.005 C 
ATOM     35  C   UNL     1      55.867 152.459  29.070  0.00  0.00    +0.029 C 
ATOM     36  F   UNL     1      56.022 152.433  25.021  0.00  0.00    -0.204 F 
ENDBRANCH  19  31
ENDBRANCH   1  19
BRANCH   1  37
ATOM     37  N   UNL     1      52.085 152.522  27.616  0.00  0.00    -0.175 N 
ATOM     38  N   UNL     1      51.687 152.147  28.794  0.00  0.00    -0.052 NA
ATOM     39  N   UNL     1      51.428 150.872  28.858  0.00  0.00    -0.025 NA
ATOM     40  N   UNL     1      51.666 150.370  27.659  0.00  0.00    -0.108 NA
ATOM     41  C   UNL     1      52.075 151.377  26.867  0.00  0.00    +0.210 C 
ENDBRANCH   1  37
TORSDOF 3
