MODEL 1
REMARK VINA RESULT:    -6.711      0.000      0.000
REMARK INTER + INTRA:          -8.436
REMARK INTER:                  -8.673
REMARK INTRA:                   0.237
REMARK UNBOUND:                 0.237
REMARK  Name = =
REMARK  6 active torsions:
REMARK  status: ('A' for Active; 'I' for Inactive)
REMARK    1  A    between atoms: C_1  and  N_14
REMARK    2  A    between atoms: C_1  and  C_28
REMARK    3  A    between atoms: C_16  and  C_23
REMARK    4  A    between atoms: C_18  and  C_20
REMARK    5  A    between atoms: C_20  and  O_22
REMARK    6  A    between atoms: C_23  and  O_25
REMARK                            x       y       z     vdW  Elec       q    Type
REMARK                         _______ _______ _______ _____ _____    ______ ____
ROOT
ATOM      1  C   UNL     1      60.939 163.158  38.749  0.00  0.00    +0.112 C 
ATOM      2  C   UNL     1      62.327 162.680  38.716  0.00  0.00    -0.001 C 
ATOM      3  C   UNL     1      62.386 161.340  39.118  0.00  0.00    -0.002 C 
ATOM      4  C   UNL     1      61.027 160.906  39.445  0.00  0.00    -0.002 C 
ATOM      5  C   UNL     1      60.162 161.962  39.248  0.00  0.00    -0.001 C 
ATOM      6  C   UNL     1      58.823 161.784  39.512  0.00  0.00    -0.002 C 
ATOM      7  C   UNL     1      58.379 160.569  39.964  0.00  0.00    -0.000 C 
ATOM      8  C   UNL     1      59.236 159.523  40.160  0.00  0.00    -0.000 C 
ATOM      9  C   UNL     1      60.577 159.681  39.902  0.00  0.00    -0.000 C 
ATOM     10  C   UNL     1      63.590 160.653  39.163  0.00  0.00    -0.000 C 
ATOM     11  C   UNL     1      64.761 161.289  38.809  0.00  0.00    -0.000 C 
ATOM     12  C   UNL     1      64.713 162.609  38.413  0.00  0.00    -0.000 C 
ATOM     13  C   UNL     1      63.504 163.307  38.363  0.00  0.00    -0.002 C 
ENDROOT
BRANCH   1  14
ATOM     14  N   UNL     1      60.411 163.587  37.492  0.00  0.00    -0.297 N 
ATOM     15  C   UNL     1      59.689 162.696  36.660  0.00  0.00    +0.125 C 
ATOM     16  C   UNL     1      59.150 162.997  35.495  0.00  0.00    +0.073 C 
ATOM     17  C   UNL     1      59.284 164.366  34.967  0.00  0.00    +0.012 C 
ATOM     18  C   UNL     1      60.035 165.275  35.846  0.00  0.00    +0.090 C 
ATOM     19  C   UNL     1      60.561 164.917  37.019  0.00  0.00    +0.068 C 
BRANCH  18  20
ATOM     20  C   UNL     1      60.222 166.653  35.413  0.00  0.00    +0.339 C 
ATOM     21  O   UNL     1      59.795 167.608  36.098  0.00  0.00    -0.245 OA
BRANCH  20  22
ATOM     22  O   UNL     1      60.880 166.912  34.231  0.00  0.00    -0.477 OA
ATOM     23  H   UNL     1      61.306 166.217  33.769  0.00  0.00    +0.295 HD
ENDBRANCH  20  22
ENDBRANCH  18  20
BRANCH  16  24
ATOM     24  C   UNL     1      58.416 161.960  34.724  0.00  0.00    +0.336 C 
ATOM     25  O   UNL     1      57.784 161.104  35.378  0.00  0.00    -0.245 OA
BRANCH  24  26
ATOM     26  O   UNL     1      58.427 161.938  33.364  0.00  0.00    -0.477 OA
ATOM     27  H   UNL     1      59.028 161.382  32.909  0.00  0.00    +0.295 HD
ENDBRANCH  24  26
ENDBRANCH  16  24
ENDBRANCH   1  14
BRANCH   1  30
ATOM     28  C   UNL     1      58.776 165.045  40.723  0.00  0.00    +0.146 C 
ATOM     29  N   UNL     1      59.396 164.659  39.705  0.00  0.00    -0.204 NA
ATOM     30  C   UNL     1      60.715 164.272  39.757  0.00  0.00    +0.109 C 
ATOM     31  C   UNL     1      61.099 163.797  41.161  0.00  0.00    +0.079 C 
ATOM     32  S   UNL     1      59.974 164.946  42.071  0.00  0.00    -0.120 S 
ENDBRANCH   1  30
TORSDOF 6
ENDMDL
