REMARK  Name = =
REMARK  2 active torsions:
REMARK  status: ('A' for Active; 'I' for Inactive)
REMARK    1  A    between atoms: C_1  and  S_19
REMARK    2  A    between atoms: S_19  and  N_20
REMARK                            x       y       z     vdW  Elec       q    Type
REMARK                         _______ _______ _______ _____ _____    ______ ____
ROOT
ATOM      1  C   UNL     1      52.055 158.695  30.552  0.00  0.00    +0.091 C 
ATOM      2  C   UNL     1      52.256 157.361  29.868  0.00  0.00    +0.017 C 
ATOM      3  C   UNL     1      51.247 156.335  30.311  0.00  0.00    +0.002 C 
ATOM      4  C   UNL     1      49.829 156.764  30.121  0.00  0.00    +0.004 C 
ATOM      5  C   UNL     1      49.658 158.227  29.817  0.00  0.00    +0.019 C 
ATOM      6  C   UNL     1      48.222 158.575  30.149  0.00  0.00    +0.009 C 
ATOM      7  C   UNL     1      48.012 160.094  30.125  0.00  0.00    +0.026 C 
ATOM      8  C   UNL     1      48.878 160.616  31.235  0.00  0.00    -0.024 C 
ATOM      9  C   UNL     1      48.398 161.415  32.174  0.00  0.00    +0.033 C 
ATOM     10  C   UNL     1      49.350 161.855  33.204  0.00  0.00    +0.173 C 
ATOM     11  O   UNL     1      49.070 162.775  34.011  0.00  0.00    -0.291 OA
ATOM     12  C   UNL     1      50.695 161.222  33.331  0.00  0.00    +0.074 C 
ATOM     13  C   UNL     1      51.241 161.039  31.936  0.00  0.00    +0.034 C 
ATOM     14  C   UNL     1      50.270 160.185  31.204  0.00  0.00    -0.033 C 
ATOM     15  C   UNL     1      50.629 159.078  30.546  0.00  0.00    -0.037 C 
ATOM     16  C   UNL     1      49.277 155.905  29.014  0.00  0.00    +0.000 C 
ATOM     17  C   UNL     1      50.017 154.588  29.274  0.00  0.00    +0.000 C 
ATOM     18  C   UNL     1      51.441 155.103  29.449  0.00  0.00    +0.000 C 
ENDROOT
BRANCH   1  19
ATOM     19  S   UNL     1      52.933 159.948  29.540  0.00  0.00    +0.034 S 
BRANCH  19  20
ATOM     20  N   UNL     1      53.159 161.342  30.588  0.00  0.00    +0.006 NA
ATOM     21  O   UNL     1      54.265 161.724  30.811  0.00  0.00    -0.136 OA
ENDBRANCH  19  20
ENDBRANCH   1  19
TORSDOF 2
