MODEL 1
REMARK VINA RESULT:    -8.755      0.000      0.000
REMARK INTER + INTRA:         -20.015
REMARK INTER:                 -15.665
REMARK INTRA:                  -4.350
REMARK UNBOUND:                -4.350
REMARK  Name = =
REMARK  16 active torsions:
REMARK  status: ('A' for Active; 'I' for Inactive)
REMARK    1  A    between atoms: N_1  and  N_21
REMARK    2  A    between atoms: C_9  and  C_29
REMARK    3  A    between atoms: C_19  and  C_36
REMARK    4  A    between atoms: C_20  and  O_38
REMARK    5  A    between atoms: O_38  and  P_39
REMARK    6  A    between atoms: P_39  and  O_41
REMARK    7  A    between atoms: P_39  and  O_42
REMARK    8  A    between atoms: O_42  and  P_43
REMARK    9  A    between atoms: P_43  and  O_45
REMARK   10  A    between atoms: P_43  and  O_46
REMARK   11  A    between atoms: O_46  and  P_47
REMARK   12  A    between atoms: P_47  and  O_49
REMARK   13  A    between atoms: P_47  and  O_50
REMARK   14  A    between atoms: O_50  and  P_51
REMARK   15  A    between atoms: P_51  and  O_53
REMARK   16  A    between atoms: P_51  and  O_54
REMARK                            x       y       z     vdW  Elec       q    Type
REMARK                         _______ _______ _______ _____ _____    ______ ____
ROOT
ATOM      1  N   UNL     1       1.978  -3.720  29.784  0.00  0.00    -0.193 NA
ATOM      2  C   UNL     1       2.583  -4.822  29.119  0.00  0.00    +0.103 C 
ATOM      3  C   UNL     1       3.733  -4.739  28.287  0.00  0.00    +0.052 C 
ATOM      4  C   UNL     1       3.415  -5.337  26.934  0.00  0.00    +0.014 C 
ATOM      5  C   UNL     1       2.354  -6.168  26.685  0.00  0.00    +0.002 C 
ATOM      6  C   UNL     1       1.386  -6.467  27.767  0.00  0.00    +0.034 A 
ATOM      7  C   UNL     1       1.598  -5.883  28.973  0.00  0.00    -0.007 A 
ATOM      8  C   UNL     1       0.816  -6.149  30.129  0.00  0.00    -0.021 A 
ATOM      9  C   UNL     1      -0.195  -7.024  29.999  0.00  0.00    +0.029 A 
ATOM     10  C   UNL     1      -0.424  -7.637  28.743  0.00  0.00    +0.176 A 
ATOM     11  C   UNL     1       0.354  -7.369  27.631  0.00  0.00    +0.176 A 
ATOM     12  O   UNL     1      -0.124  -8.119  26.588  0.00  0.00    -0.435 OA
ATOM     13  C   UNL     1      -1.453  -8.471  26.896  0.00  0.00    +0.429 C 
ATOM     14  O   UNL     1      -1.365  -8.566  28.309  0.00  0.00    -0.435 OA
ATOM     15  C   UNL     1       1.356  -5.521  31.336  0.00  0.00    +0.045 C 
ATOM     16  C   UNL     1       1.605  -4.041  31.125  0.00  0.00    +0.098 C 
ATOM     17  C   UNL     1       2.133  -6.725  25.455  0.00  0.00    -0.000 C 
ATOM     18  C   UNL     1       3.027  -6.436  24.407  0.00  0.00    +0.003 C 
ATOM     19  C   UNL     1       4.100  -5.604  24.634  0.00  0.00    +0.034 C 
ATOM     20  C   UNL     1       4.311  -5.050  25.867  0.00  0.00    +0.145 C 
ENDROOT
BRANCH   1  21
ATOM     21  N   UNL     1       1.121  -3.060  29.002  0.00  0.00    -0.168 N 
ATOM     22  C   UNL     1      -0.279  -3.218  29.002  0.00  0.00    +0.245 C 
ATOM     23  O   UNL     1      -0.849  -3.518  30.059  0.00  0.00    -0.273 OA
ATOM     24  C   UNL     1      -1.099  -3.031  27.755  0.00  0.00    +0.088 C 
ATOM     25  C   UNL     1      -0.639  -1.772  27.096  0.00  0.00    +0.019 C 
ATOM     26  C   UNL     1       0.841  -1.852  26.784  0.00  0.00    +0.088 C 
ATOM     27  C   UNL     1       1.622  -2.084  28.059  0.00  0.00    +0.245 C 
ATOM     28  O   UNL     1       2.661  -1.424  28.238  0.00  0.00    -0.273 OA
ENDBRANCH   1  21
BRANCH   9  29
ATOM     29  C   UNL     1      -1.189  -7.231  31.082  0.00  0.00    -0.012 C 
ATOM     30  C   UNL     1      -2.150  -6.407  31.369  0.00  0.00    +0.038 C 
ATOM     31  C   UNL     1      -3.072  -6.671  32.452  0.00  0.00    +0.195 C 
ATOM     32  O   UNL     1      -4.008  -5.878  32.744  0.00  0.00    -0.287 OA
ATOM     33  C   UNL     1      -2.935  -7.871  33.237  0.00  0.00    +0.038 C 
ATOM     34  C   UNL     1      -1.971  -8.701  32.934  0.00  0.00    -0.018 C 
ATOM     35  C   UNL     1      -1.012  -8.513  31.848  0.00  0.00    +0.053 C 
ENDBRANCH   9  29
BRANCH  19  36
ATOM     36  C   UNL     1       4.979  -5.386  23.464  0.00  0.00    +0.003 C 
ATOM     37  C   UNL     1       4.469  -5.566  22.271  0.00  0.00    +0.000 C 
ENDBRANCH  19  36
BRANCH  20  38
ATOM     38  O   UNL     1       5.334  -4.231  26.146  0.00  0.00    -0.403 OA
BRANCH  38  39
ATOM     39  P   UNL     1       5.814  -2.682  25.915  0.00  0.00    +0.539 P 
ATOM     40  O   UNL     1       6.443  -2.171  27.246  0.00  0.00    -0.215 OA
BRANCH  39  41
ATOM     41  O   UNL     1       7.066  -2.582  24.772  0.00  0.00    -0.293 OA
ATOM     42  H   UNL     1       7.763  -1.995  25.106  0.00  0.00    +0.223 HD
ENDBRANCH  39  41
BRANCH  39  43
ATOM     43  O   UNL     1       4.576  -1.575  25.601  0.00  0.00    -0.176 OA
BRANCH  43  44
ATOM     44  P   UNL     1       4.669  -0.989  24.016  0.00  0.00    +0.493 P 
ATOM     45  O   UNL     1       4.843  -2.146  23.062  0.00  0.00    -0.226 OA
BRANCH  44  46
ATOM     46  O   UNL     1       5.987   0.067  23.940  0.00  0.00    -0.302 OA
ATOM     47  H   UNL     1       5.667   0.981  23.899  0.00  0.00    +0.222 HD
ENDBRANCH  44  46
BRANCH  44  48
ATOM     48  O   UNL     1       3.238  -0.182  23.615  0.00  0.00    -0.185 OA
BRANCH  48  49
ATOM     49  P   UNL     1       3.020  -0.005  21.968  0.00  0.00    +0.492 P 
ATOM     50  O   UNL     1       2.197   1.235  21.697  0.00  0.00    -0.226 OA
BRANCH  49  51
ATOM     51  O   UNL     1       4.531   0.069  21.210  0.00  0.00    -0.302 OA
ATOM     52  H   UNL     1       5.192  -0.378  21.762  0.00  0.00    +0.222 HD
ENDBRANCH  49  51
BRANCH  49  53
ATOM     53  O   UNL     1       2.154  -1.309  21.311  0.00  0.00    -0.186 OA
BRANCH  53  54
ATOM     54  P   UNL     1       1.069  -1.904  22.464  0.00  0.00    +0.481 P 
ATOM     55  O   UNL     1      -0.109  -2.542  21.784  0.00  0.00    -0.227 OA
BRANCH  54  56
ATOM     56  O   UNL     1       0.514  -0.599  23.386  0.00  0.00    -0.302 OA
ATOM     57  H   UNL     1       0.127   0.070  22.800  0.00  0.00    +0.222 HD
ENDBRANCH  54  56
BRANCH  54  58
ATOM     58  O   UNL     1       1.874  -2.978  23.484  0.00  0.00    -0.302 OA
ATOM     59  H   UNL     1       2.632  -3.362  23.016  0.00  0.00    +0.222 HD
ENDBRANCH  54  58
ENDBRANCH  53  54
ENDBRANCH  49  53
ENDBRANCH  48  49
ENDBRANCH  44  48
ENDBRANCH  43  44
ENDBRANCH  39  43
ENDBRANCH  38  39
ENDBRANCH  20  38
TORSDOF 16
ENDMDL
