REMARK  Name = =
REMARK  7 active torsions:
REMARK  status: ('A' for Active; 'I' for Inactive)
REMARK    1  A    between atoms: C_1  and  C_31
REMARK    2  A    between atoms: C_4  and  C_21
REMARK    3  A    between atoms: C_7  and  O_48
REMARK    4  A    between atoms: C_15  and  O_47
REMARK    5  A    between atoms: C_29  and  S_35
REMARK    6  A    between atoms: C_38  and  C_44
REMARK    7  A    between atoms: C_44  and  O_46
REMARK                            x       y       z     vdW  Elec       q    Type
REMARK                         _______ _______ _______ _____ _____    ______ ____
ROOT
ATOM      1  C   UNL     1       2.551  -6.226  27.617  0.00  0.00    +0.032 C 
ATOM      2  C   UNL     1       2.673  -7.655  27.165  0.00  0.00    +0.006 C 
ATOM      3  C   UNL     1       4.131  -8.012  27.217  0.00  0.00    +0.014 C 
ATOM      4  C   UNL     1       5.003  -7.066  26.445  0.00  0.00    +0.099 C 
ATOM      5  C   UNL     1       4.305  -5.802  26.038  0.00  0.00    -0.015 C 
ATOM      6  C   UNL     1       3.120  -5.371  26.585  0.00  0.00    +0.008 C 
ATOM      7  C   UNL     1       2.577  -4.176  26.125  0.00  0.00    +0.132 C 
ATOM      8  C   UNL     1       3.189  -3.406  25.136  0.00  0.00    +0.075 C 
ATOM      9  C   UNL     1       4.376  -3.851  24.599  0.00  0.00    +0.045 C 
ATOM     10  C   UNL     1       4.920  -5.029  25.046  0.00  0.00    -0.001 C 
ATOM     11  C   UNL     1       5.040  -3.068  23.559  0.00  0.00    +0.196 C 
ATOM     12  O   UNL     1       6.121  -3.490  23.081  0.00  0.00    -0.287 OA
ATOM     13  C   UNL     1       4.459  -1.824  23.091  0.00  0.00    +0.045 C 
ATOM     14  C   UNL     1       3.279  -1.376  23.621  0.00  0.00    +0.076 C 
ATOM     15  C   UNL     1       2.679  -0.194  23.209  0.00  0.00    +0.137 C 
ATOM     16  C   UNL     1       3.324   0.527  22.229  0.00  0.00    +0.037 C 
ATOM     17  C   UNL     1       4.509   0.116  21.667  0.00  0.00    +0.003 C 
ATOM     18  C   UNL     1       5.081  -1.062  22.097  0.00  0.00    +0.003 C 
ATOM     19  C   UNL     1       2.599  -2.152  24.665  0.00  0.00    +0.202 C 
ATOM     20  O   UNL     1       1.511  -1.704  25.131  0.00  0.00    -0.286 OA
ENDROOT
BRANCH   4  21
ATOM     21  C   UNL     1       5.367  -7.803  25.184  0.00  0.00    +0.229 C 
ATOM     22  O   UNL     1       4.742  -7.542  24.144  0.00  0.00    -0.275 OA
ATOM     23  N   UNL     1       6.392  -8.772  25.159  0.00  0.00    -0.276 N 
ATOM     24  C   UNL     1       7.136  -9.072  26.348  0.00  0.00    +0.110 C 
ATOM     25  C   UNL     1       8.641  -9.099  26.124  0.00  0.00    +0.090 C 
ATOM     26  N   UNL     1       8.983  -9.200  24.739  0.00  0.00    -0.295 NA
ATOM     27  C   UNL     1       8.076 -10.080  24.032  0.00  0.00    +0.090 C 
ATOM     28  C   UNL     1       6.692  -9.465  23.937  0.00  0.00    +0.110 C 
ATOM     29  H   UNL     1       9.931  -9.566  24.658  0.00  0.00    +0.123 HD
ENDBRANCH   4  21
BRANCH   1  32
ATOM     30  C   UNL     1      -0.337  -7.437  29.323  0.00  0.00    +0.038 C 
ATOM     31  C   UNL     1       0.995  -6.829  29.421  0.00  0.00    +0.017 C 
ATOM     32  C   UNL     1       1.246  -5.891  28.227  0.00  0.00    +0.063 C 
ATOM     33  C   UNL     1       0.085  -6.192  27.352  0.00  0.00    +0.151 C 
ATOM     34  O   UNL     1      -0.067  -6.103  26.160  0.00  0.00    -0.296 OA
ATOM     35  C   UNL     1      -1.047  -6.693  28.227  0.00  0.00    +0.074 C 
BRANCH  30  36
ATOM     36  S   UNL     1      -1.280  -7.398  30.785  0.00  0.00    -0.207 S 
ATOM     37  C   UNL     1      -2.326  -8.872  31.063  0.00  0.00    +0.066 C 
ATOM     38  C   UNL     1      -2.852  -8.854  32.429  0.00  0.00    +0.005 C 
ATOM     39  C   UNL     1      -3.369  -7.754  32.948  0.00  0.00    +0.127 C 
ATOM     40  N   UNL     1      -3.401  -6.596  32.152  0.00  0.00    -0.247 N 
ATOM     41  C   UNL     1      -2.276  -6.137  31.346  0.00  0.00    +0.119 C 
ATOM     42  C   UNL     1      -3.280  -5.541  30.439  0.00  0.00    +0.115 C 
ATOM     43  C   UNL     1      -4.147  -5.456  31.677  0.00  0.00    +0.233 C 
ATOM     44  O   UNL     1      -5.078  -4.760  32.132  0.00  0.00    -0.274 OA
ATOM     45  H   UNL     1      -0.114  -7.232  31.465  0.00  0.00    +0.086 HD
BRANCH  39  46
ATOM     46  C   UNL     1      -3.905  -7.760  34.324  0.00  0.00    +0.352 C 
ATOM     47  O   UNL     1      -4.686  -6.890  34.719  0.00  0.00    -0.244 OA
BRANCH  46  48
ATOM     48  O   UNL     1      -3.521  -8.761  35.184  0.00  0.00    -0.476 OA
ATOM     49  H   UNL     1      -2.928  -9.426  34.894  0.00  0.00    +0.295 HD
ENDBRANCH  46  48
ENDBRANCH  39  46
ENDBRANCH  30  36
ENDBRANCH   1  32
BRANCH  15  50
ATOM     50  O   UNL     1       1.476   0.230  23.773  0.00  0.00    -0.505 OA
ATOM     51  H   UNL     1       1.063  -0.285  24.438  0.00  0.00    +0.292 HD
ENDBRANCH  15  50
BRANCH   7  52
ATOM     52  O   UNL     1       1.421  -3.764  26.666  0.00  0.00    -0.506 OA
ATOM     53  H   UNL     1       1.006  -4.277  27.331  0.00  0.00    +0.292 HD
ENDBRANCH   7  52
TORSDOF 7
