REMARK  Name = =
REMARK  8 active torsions:
REMARK  status: ('A' for Active; 'I' for Inactive)
REMARK    1  A    between atoms: C_2  and  C_25
REMARK    2  A    between atoms: C_6  and  C_7
REMARK    3  A    between atoms: C_14  and  N_18
REMARK    4  A    between atoms: N_18  and  C_19
REMARK    5  A    between atoms: N_18  and  N_21
REMARK    6  A    between atoms: C_33  and  O_35
REMARK    7  A    between atoms: O_35  and  C_36
REMARK    8  A    between atoms: N_38  and  O_39
REMARK                            x       y       z     vdW  Elec       q    Type
REMARK                         _______ _______ _______ _____ _____    ______ ____
ROOT
ATOM      1  O   UNL     1       6.411 -10.610  23.555  0.00  0.00    -0.347 OA
ATOM      2  C   UNL     1       6.449  -9.590  22.654  0.00  0.00    +0.161 C 
ATOM      3  C   UNL     1       5.900  -9.859  21.297  0.00  0.00    +0.062 C 
ATOM      4  C   UNL     1       4.703 -10.705  21.315  0.00  0.00    -0.025 C 
ATOM      5  C   UNL     1       4.452 -11.405  22.410  0.00  0.00    -0.001 C 
ATOM      6  C   UNL     1       5.297 -11.388  23.608  0.00  0.00    +0.151 C 
ENDROOT
BRANCH   6   7
ATOM      7  C   UNL     1       5.719 -12.846  23.889  0.00  0.00    +0.174 C 
ATOM      8  C   UNL     1       6.444 -13.407  22.711  0.00  0.00    +0.222 C 
ATOM      9  O   UNL     1       6.004 -14.634  22.245  0.00  0.00    -0.448 OA
ATOM     10  C   UNL     1       5.388 -15.677  22.836  0.00  0.00    +0.317 C 
ATOM     11  O   UNL     1       4.215 -16.016  22.501  0.00  0.00    -0.250 OA
ATOM     12  C   UNL     1       6.021 -16.485  23.896  0.00  0.00    +0.115 C 
ATOM     13  C   UNL     1       6.255 -15.838  25.191  0.00  0.00    +0.075 C 
ATOM     14  C   UNL     1       7.562 -15.190  25.484  0.00  0.00    +0.249 C 
ATOM     15  O   UNL     1       7.596 -13.799  25.287  0.00  0.00    -0.434 OA
ATOM     16  C   UNL     1       6.593 -12.908  25.076  0.00  0.00    +0.324 C 
ATOM     17  O   UNL     1       6.346 -12.012  25.964  0.00  0.00    -0.250 OA
BRANCH  14  18
ATOM     18  N   UNL     1       8.736 -15.853  25.014  0.00  0.00    -0.137 NA
BRANCH  18  19
ATOM     19  N   UNL     1       9.225 -17.002  25.653  0.00  0.00    -0.226 N 
ATOM     20  C   UNL     1       9.401 -17.009  27.069  0.00  0.00    +0.311 C 
ATOM     21  O   UNL     1       9.107 -15.970  27.717  0.00  0.00    -0.252 OA
ATOM     22  N   UNL     1       9.900 -18.182  27.700  0.00  0.00    -0.312 N 
ATOM     23  H   UNL     1       9.447 -17.803  25.125  0.00  0.00    +0.171 HD
ATOM     24  H   UNL     1      10.119 -18.976  27.161  0.00  0.00    +0.147 HD
ATOM     25  H   UNL     1      10.026 -18.200  28.676  0.00  0.00    +0.147 HD
ENDBRANCH  18  19
BRANCH  18  26
ATOM     26  C   UNL     1       9.442 -15.380  23.889  0.00  0.00    +0.279 C 
ATOM     27  O   UNL     1      10.485 -16.059  23.533  0.00  0.00    -0.199 OA
ENDBRANCH  18  26
ENDBRANCH  14  18
ENDBRANCH   6   7
BRANCH   2  28
ATOM     28  C   UNL     1       5.937  -8.287  23.193  0.00  0.00    +0.105 C 
ATOM     29  N   UNL     1       5.391  -7.394  22.376  0.00  0.00    -0.244 NA
ATOM     30  C   UNL     1       4.924  -6.191  22.828  0.00  0.00    +0.102 C 
ATOM     31  C   UNL     1       5.017  -5.886  24.168  0.00  0.00    +0.099 C 
ATOM     32  N   UNL     1       5.575  -6.798  25.007  0.00  0.00    -0.241 NA
ATOM     33  C   UNL     1       6.033  -7.993  24.533  0.00  0.00    +0.116 C 
ATOM     34  C   UNL     1       4.540  -4.663  24.597  0.00  0.00    +0.024 C 
ATOM     35  C   UNL     1       3.977  -3.748  23.723  0.00  0.00    +0.039 C 
ATOM     36  C   UNL     1       3.884  -4.051  22.388  0.00  0.00    +0.152 C 
ATOM     37  C   UNL     1       4.358  -5.269  21.956  0.00  0.00    +0.058 C 
BRANCH  36  38
ATOM     38  O   UNL     1       3.328  -3.173  21.453  0.00  0.00    -0.409 OA
BRANCH  38  39
ATOM     39  C   UNL     1       1.971  -3.233  21.117  0.00  0.00    +0.429 C 
ATOM     40  O   UNL     1       1.293  -4.135  21.661  0.00  0.00    -0.224 OA
ATOM     41  N   UNL     1       1.377  -2.332  20.211  0.00  0.00    -0.162 N 
ATOM     42  H   UNL     1       1.938  -1.636  19.799  0.00  0.00    +0.186 HD
BRANCH  41  43
ATOM     43  O   UNL     1       0.049  -2.389  19.883  0.00  0.00    -0.293 OA
ATOM     44  H   UNL     1      -0.372  -3.120  20.363  0.00  0.00    +0.241 HD
ENDBRANCH  41  43
ENDBRANCH  38  39
ENDBRANCH  36  38
ENDBRANCH   2  28
TORSDOF 8
