REMARK  Name = =
REMARK  2 active torsions:
REMARK  status: ('A' for Active; 'I' for Inactive)
REMARK    1  A    between atoms: C_2  and  C_3
REMARK    2  A    between atoms: C_2  and  C_9
REMARK                            x       y       z     vdW  Elec       q    Type
REMARK                         _______ _______ _______ _____ _____    ______ ____
ROOT
ATOM      1  C   UNL     1      62.931 161.150  38.813  0.00  0.00    +0.003 C 
ATOM      2  C   UNL     1      61.639 161.426  38.608  0.00  0.00    +0.036 C 
ENDROOT
BRANCH   2   3
ATOM      3  C   UNL     1      61.306 162.680  37.963  0.00  0.00    +0.166 C 
ATOM      4  N   UNL     1      60.114 163.022  37.467  0.00  0.00    -0.205 NA
ATOM      5  C   UNL     1      59.866 164.206  36.876  0.00  0.00    +0.202 C 
ATOM      6  N   UNL     1      60.851 165.117  36.763  0.00  0.00    -0.202 NA
ATOM      7  C   UNL     1      62.065 164.810  37.251  0.00  0.00    +0.202 C 
ATOM      8  N   UNL     1      62.280 163.627  37.832  0.00  0.00    -0.205 NA
ENDBRANCH   2   3
BRANCH   2   9
ATOM      9  C   UNL     1      60.631 160.456  39.063  0.00  0.00    +0.003 C 
ATOM     10  C   UNL     1      60.555 160.037  40.373  0.00  0.00    +0.000 C 
ATOM     11  C   UNL     1      59.617 159.098  40.819  0.00  0.00    +0.000 C 
ATOM     12  C   UNL     1      58.721 158.555  39.935  0.00  0.00    +0.000 C 
ATOM     13  C   UNL     1      58.765 158.948  38.618  0.00  0.00    +0.000 C 
ATOM     14  C   UNL     1      59.713 159.888  38.197  0.00  0.00    +0.000 C 
ENDBRANCH   2   9
TORSDOF 2
