REMARK  Name = =
REMARK  3 active torsions:
REMARK  status: ('A' for Active; 'I' for Inactive)
REMARK    1  A    between atoms: C_1  and  C_15
REMARK    2  A    between atoms: C_2  and  C_3
REMARK    3  A    between atoms: C_2  and  C_9
REMARK                            x       y       z     vdW  Elec       q    Type
REMARK                         _______ _______ _______ _____ _____    ______ ____
ROOT
ATOM      1  C   UNL     1      62.378 162.111  38.518  0.00  0.00    +0.023 C 
ATOM      2  C   UNL     1      61.101 162.140  38.283  0.00  0.00    +0.037 C 
ENDROOT
BRANCH   2   3
ATOM      3  C   UNL     1      60.665 162.994  37.150  0.00  0.00    +0.166 C 
ATOM      4  N   UNL     1      61.412 164.081  36.816  0.00  0.00    -0.205 NA
ATOM      5  C   UNL     1      61.068 164.858  35.791  0.00  0.00    +0.202 C 
ATOM      6  N   UNL     1      59.974 164.603  35.050  0.00  0.00    -0.202 NA
ATOM      7  C   UNL     1      59.219 163.537  35.358  0.00  0.00    +0.202 C 
ATOM      8  N   UNL     1      59.595 162.774  36.398  0.00  0.00    -0.205 NA
ENDBRANCH   2   3
BRANCH   2   9
ATOM      9  C   UNL     1      60.127 161.312  38.945  0.00  0.00    +0.003 C 
ATOM     10  C   UNL     1      59.318 161.866  39.938  0.00  0.00    +0.000 C 
ATOM     11  C   UNL     1      58.297 161.141  40.549  0.00  0.00    +0.000 C 
ATOM     12  C   UNL     1      58.058 159.838  40.186  0.00  0.00    +0.000 C 
ATOM     13  C   UNL     1      58.829 159.250  39.213  0.00  0.00    +0.000 C 
ATOM     14  C   UNL     1      59.845 160.016  38.622  0.00  0.00    +0.000 C 
ENDBRANCH   2   9
BRANCH   1  15
ATOM     15  C   UNL     1      63.172 161.441  39.492  0.00  0.00    +0.089 C 
ATOM     16  N   UNL     1      64.404 161.881  39.695  0.00  0.00    -0.297 NA
ATOM     17  H   UNL     1      64.980 161.441  40.361  0.00  0.00    +0.187 HD
ENDBRANCH   1  15
TORSDOF 3
