REMARK  Name = =
REMARK  4 active torsions:
REMARK  status: ('A' for Active; 'I' for Inactive)
REMARK    1  A    between atoms: C_1  and  C_15
REMARK    2  A    between atoms: C_1  and  N_17
REMARK    3  A    between atoms: C_2  and  C_3
REMARK    4  A    between atoms: C_2  and  C_9
REMARK                            x       y       z     vdW  Elec       q    Type
REMARK                         _______ _______ _______ _____ _____    ______ ____
ROOT
ATOM      1  C   UNL     1      62.341 162.580  38.878  0.00  0.00    +0.070 C 
ATOM      2  C   UNL     1      61.107 162.773  38.525  0.00  0.00    +0.051 C 
ENDROOT
BRANCH   2   3
ATOM      3  C   UNL     1      60.708 163.955  37.790  0.00  0.00    +0.167 C 
ATOM      4  N   UNL     1      60.672 164.032  36.455  0.00  0.00    -0.205 NA
ATOM      5  C   UNL     1      60.309 165.122  35.759  0.00  0.00    +0.202 C 
ATOM      6  N   UNL     1      59.948 166.242  36.455  0.00  0.00    -0.202 NA
ATOM      7  C   UNL     1      59.968 166.215  37.803  0.00  0.00    +0.202 C 
ATOM      8  N   UNL     1      60.339 165.096  38.442  0.00  0.00    -0.205 NA
ENDBRANCH   2   3
BRANCH   2   9
ATOM      9  C   UNL     1      60.036 161.791  38.791  0.00  0.00    +0.004 C 
ATOM     10  C   UNL     1      59.699 160.825  37.849  0.00  0.00    +0.000 C 
ATOM     11  C   UNL     1      58.723 159.886  38.093  0.00  0.00    +0.000 C 
ATOM     12  C   UNL     1      58.052 159.891  39.293  0.00  0.00    +0.000 C 
ATOM     13  C   UNL     1      58.363 160.836  40.247  0.00  0.00    +0.000 C 
ATOM     14  C   UNL     1      59.346 161.755  39.964  0.00  0.00    +0.000 C 
ENDBRANCH   2   9
BRANCH   1  15
ATOM     15  C   UNL     1      63.362 163.574  38.528  0.00  0.00    +0.103 C 
ATOM     16  N   UNL     1      64.331 163.699  39.295  0.00  0.00    -0.296 NA
ATOM     17  H   UNL     1      65.037 164.356  39.094  0.00  0.00    +0.187 HD
ENDBRANCH   1  15
BRANCH   1  18
ATOM     18  N   UNL     1      62.768 161.452  39.627  0.00  0.00    -0.303 N 
ATOM     19  C   UNL     1      62.871 160.843  41.020  0.00  0.00    +0.112 C 
ATOM     20  C   UNL     1      63.348 160.145  39.827  0.00  0.00    +0.112 C 
ENDBRANCH   1  18
TORSDOF 4
