REMARK  Name = =
REMARK  4 active torsions:
REMARK  status: ('A' for Active; 'I' for Inactive)
REMARK    1  A    between atoms: C_1  and  C_16
REMARK    2  A    between atoms: C_1  and  N_18
REMARK    3  A    between atoms: C_2  and  C_3
REMARK    4  A    between atoms: C_2  and  C_9
REMARK                            x       y       z     vdW  Elec       q    Type
REMARK                         _______ _______ _______ _____ _____    ______ ____
ROOT
ATOM      1  C   UNL     1      62.105 162.803  38.795  0.00  0.00    +0.064 C 
ATOM      2  C   UNL     1      62.524 163.938  38.312  0.00  0.00    +0.048 C 
ENDROOT
BRANCH   2   3
ATOM      3  C   UNL     1      63.827 164.539  38.723  0.00  0.00    +0.152 C 
ATOM      4  N   UNL     1      63.912 165.354  39.768  0.00  0.00    -0.228 NA
ATOM      5  C   UNL     1      65.097 165.900  40.135  0.00  0.00    +0.253 C 
ATOM      6  N   UNL     1      66.202 165.612  39.431  0.00  0.00    -0.225 NA
ATOM      7  C   UNL     1      66.153 164.794  38.370  0.00  0.00    +0.184 C 
ATOM      8  N   UNL     1      64.960 164.271  38.035  0.00  0.00    -0.173 NA
ENDBRANCH   2   3
BRANCH   2   9
ATOM      9  C   UNL     1      61.785 164.830  37.415  0.00  0.00    +0.004 C 
ATOM     10  C   UNL     1      61.920 164.829  36.053  0.00  0.00    +0.000 C 
ATOM     11  C   UNL     1      61.301 165.706  35.190  0.00  0.00    +0.000 C 
ATOM     12  C   UNL     1      60.473 166.670  35.752  0.00  0.00    +0.000 C 
ATOM     13  C   UNL     1      60.295 166.724  37.117  0.00  0.00    +0.000 C 
ATOM     14  C   UNL     1      60.945 165.813  37.939  0.00  0.00    +0.000 C 
ENDBRANCH   2   9
BRANCH   1  16
ATOM     15  C   UNL     1      59.809 162.523  37.539  0.00  0.00    +0.053 C 
ATOM     16  C   UNL     1      60.864 162.118  38.466  0.00  0.00    +0.063 C 
ATOM     17  N   UNL     1      60.693 160.957  39.060  0.00  0.00    -0.302 NA
ATOM     18  H   UNL     1      59.878 160.432  38.889  0.00  0.00    +0.186 HD
ENDBRANCH   1  16
BRANCH   1  19
ATOM     19  N   UNL     1      62.976 162.141  39.756  0.00  0.00    -0.303 N 
ATOM     20  C   UNL     1      63.607 161.693  40.944  0.00  0.00    +0.112 C 
ATOM     21  C   UNL     1      64.125 161.127  39.657  0.00  0.00    +0.112 C 
ENDBRANCH   1  19
TORSDOF 4
