REMARK  Name = =
REMARK  10 active torsions:
REMARK  status: ('A' for Active; 'I' for Inactive)
REMARK    1  A    between atoms: C_1  and  C_16
REMARK    2  A    between atoms: C_6  and  N_7
REMARK    3  A    between atoms: N_7  and  C_8
REMARK    4  A    between atoms: C_8  and  N_9
REMARK    5  A    between atoms: C_8  and  N_12
REMARK    6  A    between atoms: N_9  and  C_10
REMARK    7  A    between atoms: N_12  and  C_13
REMARK    8  A    between atoms: C_15  and  C_24
REMARK    9  A    between atoms: C_15  and  N_26
REMARK   10  A    between atoms: C_16  and  C_17
REMARK                            x       y       z     vdW  Elec       q    Type
REMARK                         _______ _______ _______ _____ _____    ______ ____
ROOT
ATOM      1  C   UNL     1      61.915 163.650  38.180  0.00  0.00    +0.019 C 
ATOM      2  C   UNL     1      61.926 162.253  38.237  0.00  0.00    +0.001 C 
ATOM      3  C   UNL     1      60.828 161.566  37.783  0.00  0.00    +0.000 C 
ATOM      4  C   UNL     1      59.699 162.172  37.266  0.00  0.00    +0.001 C 
ATOM      5  C   UNL     1      59.695 163.539  37.210  0.00  0.00    +0.016 C 
ATOM      6  C   UNL     1      60.787 164.258  37.664  0.00  0.00    +0.068 C 
ENDROOT
BRANCH   1   8
ATOM      7  C   UNL     1      63.420 164.425  39.909  0.00  0.00    +0.064 C 
ATOM      8  C   UNL     1      63.076 164.377  38.659  0.00  0.00    +0.052 C 
BRANCH   8   9
ATOM      9  C   UNL     1      63.857 165.073  37.636  0.00  0.00    +0.167 C 
ATOM     10  N   UNL     1      64.842 164.393  36.967  0.00  0.00    -0.205 NA
ATOM     11  C   UNL     1      65.532 165.064  36.054  0.00  0.00    +0.202 C 
ATOM     12  N   UNL     1      65.352 166.348  35.729  0.00  0.00    -0.202 NA
ATOM     13  C   UNL     1      64.370 167.003  36.405  0.00  0.00    +0.202 C 
ATOM     14  N   UNL     1      63.654 166.353  37.336  0.00  0.00    -0.205 NA
ENDBRANCH   8   9
BRANCH   7  16
ATOM     15  C   UNL     1      64.560 165.433  41.933  0.00  0.00    +0.053 C 
ATOM     16  C   UNL     1      64.582 165.178  40.437  0.00  0.00    +0.063 C 
ATOM     17  N   UNL     1      65.499 165.614  39.815  0.00  0.00    -0.302 NA
ATOM     18  H   UNL     1      65.548 165.469  38.842  0.00  0.00    +0.186 HD
ENDBRANCH   7  16
BRANCH   7  19
ATOM     19  N   UNL     1      62.717 163.646  40.899  0.00  0.00    -0.303 N 
ATOM     20  C   UNL     1      62.628 162.322  41.541  0.00  0.00    +0.112 C 
ATOM     21  C   UNL     1      61.743 163.390  41.964  0.00  0.00    +0.112 C 
ENDBRANCH   7  19
ENDBRANCH   1   8
BRANCH   6  22
ATOM     22  N   UNL     1      60.581 165.641  37.767  0.00  0.00    -0.208 NA
BRANCH  22  23
ATOM     23  C   UNL     1      59.796 166.000  38.726  0.00  0.00    +0.214 C 
BRANCH  23  24
ATOM     24  N   UNL     1      59.343 164.929  39.336  0.00  0.00    -0.240 NA
ATOM     25  H   UNL     1      60.149 164.340  39.128  0.00  0.00    +0.128 HD
BRANCH  24  26
ATOM     26  C   UNL     1      58.851 164.150  40.327  0.00  0.00    +0.258 C 
ATOM     27  O   UNL     1      58.770 164.837  41.411  0.00  0.00    -0.201 OA
ENDBRANCH  24  26
ENDBRANCH  23  24
BRANCH  23  28
ATOM     28  N   UNL     1      59.578 167.389  38.471  0.00  0.00    -0.240 NA
ATOM     29  H   UNL     1      58.889 167.430  37.720  0.00  0.00    +0.128 HD
BRANCH  28  30
ATOM     30  C   UNL     1      59.147 168.270  39.423  0.00  0.00    +0.258 C 
ATOM     31  O   UNL     1      59.040 167.575  40.520  0.00  0.00    -0.201 OA
ENDBRANCH  28  30
ENDBRANCH  23  28
ENDBRANCH  22  23
ENDBRANCH   6  22
TORSDOF 10
