REMARK  Name = =
REMARK  12 active torsions:
REMARK  status: ('A' for Active; 'I' for Inactive)
REMARK    1  A    between atoms: C_1  and  C_23
REMARK    2  A    between atoms: C_1  and  N_31
REMARK    3  A    between atoms: C_2  and  C_3
REMARK    4  A    between atoms: C_2  and  C_9
REMARK    5  A    between atoms: C_14  and  N_15
REMARK    6  A    between atoms: N_15  and  C_16
REMARK    7  A    between atoms: C_16  and  N_17
REMARK    8  A    between atoms: C_16  and  N_20
REMARK    9  A    between atoms: N_17  and  C_18
REMARK   10  A    between atoms: N_20  and  C_21
REMARK   11  A    between atoms: C_23  and  C_25
REMARK   12  A    between atoms: C_25  and  C_26
REMARK                            x       y       z     vdW  Elec       q    Type
REMARK                         _______ _______ _______ _____ _____    ______ ____
ROOT
ATOM      1  C   UNL     1      61.040 163.239  38.923  0.00  0.00    +0.064 C 
ATOM      2  C   UNL     1      60.590 164.149  38.299  0.00  0.00    +0.052 C 
ENDROOT
BRANCH   2   3
ATOM      3  C   UNL     1      59.968 163.786  36.991  0.00  0.00    +0.167 C 
ATOM      4  N   UNL     1      59.568 162.557  36.755  0.00  0.00    -0.205 NA
ATOM      5  C   UNL     1      58.871 162.165  35.685  0.00  0.00    +0.202 C 
ATOM      6  N   UNL     1      58.558 163.142  34.771  0.00  0.00    -0.202 NA
ATOM      7  C   UNL     1      58.984 164.387  35.040  0.00  0.00    +0.202 C 
ATOM      8  N   UNL     1      59.668 164.730  36.098  0.00  0.00    -0.205 NA
ENDBRANCH   2   3
BRANCH   2   9
ATOM      9  C   UNL     1      60.545 165.610  38.538  0.00  0.00    +0.019 C 
ATOM     10  C   UNL     1      59.382 166.112  39.122  0.00  0.00    +0.001 C 
ATOM     11  C   UNL     1      59.211 167.464  39.331  0.00  0.00    +0.000 C 
ATOM     12  C   UNL     1      60.210 168.323  38.953  0.00  0.00    +0.001 C 
ATOM     13  C   UNL     1      61.379 167.886  38.371  0.00  0.00    +0.016 C 
ATOM     14  C   UNL     1      61.491 166.489  38.183  0.00  0.00    +0.068 C 
BRANCH  14  15
ATOM     15  N   UNL     1      62.624 166.030  37.524  0.00  0.00    -0.208 NA
BRANCH  15  16
ATOM     16  C   UNL     1      62.639 166.447  36.235  0.00  0.00    +0.214 C 
BRANCH  16  17
ATOM     17  N   UNL     1      61.606 167.167  36.018  0.00  0.00    -0.240 NA
ATOM     18  H   UNL     1      61.781 167.700  36.870  0.00  0.00    +0.128 HD
BRANCH  17  19
ATOM     19  C   UNL     1      60.546 167.936  35.733  0.00  0.00    +0.258 C 
ATOM     20  O   UNL     1      60.546 168.366  34.557  0.00  0.00    -0.201 OA
ENDBRANCH  17  19
ENDBRANCH  16  17
BRANCH  16  21
ATOM     21  N   UNL     1      63.902 165.934  35.832  0.00  0.00    -0.240 NA
ATOM     22  H   UNL     1      64.095 165.152  36.457  0.00  0.00    +0.128 HD
BRANCH  21  23
ATOM     23  C   UNL     1      64.178 165.470  34.551  0.00  0.00    +0.258 C 
ATOM     24  O   UNL     1      63.059 165.527  33.927  0.00  0.00    -0.201 OA
ENDBRANCH  21  23
ENDBRANCH  16  21
ENDBRANCH  15  16
ENDBRANCH  14  15
ENDBRANCH   2   9
BRANCH   1  25
ATOM     25  C   UNL     1      61.499 161.963  39.455  0.00  0.00    +0.065 C 
ATOM     26  N   UNL     1      62.340 161.243  38.676  0.00  0.00    -0.301 NA
ATOM     27  H   UNL     1      62.728 161.647  37.867  0.00  0.00    +0.186 HD
BRANCH  25  28
ATOM     28  C   UNL     1      61.024 161.230  40.591  0.00  0.00    +0.073 C 
BRANCH  28  29
ATOM     29  C   UNL     1      59.695 160.526  40.138  0.00  0.00    +0.109 C 
ATOM     30  S   UNL     1      58.538 160.721  41.512  0.00  0.00    -0.123 S 
ATOM     31  C   UNL     1      58.118 158.932  41.656  0.00  0.00    +0.076 C 
ATOM     32  C   UNL     1      59.414 158.370  41.096  0.00  0.00    +0.081 C 
ATOM     33  N   UNL     1      59.829 159.135  39.991  0.00  0.00    -0.289 NA
ATOM     34  H   UNL     1      60.813 158.930  39.818  0.00  0.00    +0.124 HD
ENDBRANCH  28  29
ENDBRANCH  25  28
ENDBRANCH   1  25
BRANCH   1  35
ATOM     35  N   UNL     1      61.528 164.149  40.216  0.00  0.00    -0.303 N 
ATOM     36  C   UNL     1      62.978 164.245  40.619  0.00  0.00    +0.112 C 
ATOM     37  C   UNL     1      61.884 164.943  41.328  0.00  0.00    +0.112 C 
ENDBRANCH   1  35
TORSDOF 12
