MODEL 1
REMARK VINA RESULT:    -8.456      0.000      0.000
REMARK INTER + INTRA:         -16.501
REMARK INTER:                 -14.388
REMARK INTRA:                  -2.113
REMARK UNBOUND:                -2.113
REMARK  Name = =
REMARK  12 active torsions:
REMARK  status: ('A' for Active; 'I' for Inactive)
REMARK    1  A    between atoms: N_1  and  C_15
REMARK    2  A    between atoms: N_4  and  C_7
REMARK    3  A    between atoms: C_6  and  C_33
REMARK    4  A    between atoms: C_14  and  O_20
REMARK    5  A    between atoms: C_18  and  O_23
REMARK    6  A    between atoms: O_20  and  N_21
REMARK    7  A    between atoms: O_23  and  C_24
REMARK    8  A    between atoms: C_24  and  C_26
REMARK    9  A    between atoms: C_26  and  C_28
REMARK   10  A    between atoms: C_28  and  O_30
REMARK   11  A    between atoms: O_30  and  C_31
REMARK   12  A    between atoms: C_33  and  C_35
REMARK                            x       y       z     vdW  Elec       q    Type
REMARK                         _______ _______ _______ _____ _____    ______ ____
ROOT
ATOM      1  N   UNL     1       0.499  -7.207  29.459  0.00  0.00    -0.286 N 
ATOM      2  C   UNL     1       0.412  -8.376  28.730  0.00  0.00    +0.114 C 
ATOM      3  C   UNL     1       1.351  -8.578  27.570  0.00  0.00    +0.112 C 
ATOM      4  N   UNL     1       2.516  -7.736  27.654  0.00  0.00    -0.304 N 
ATOM      5  C   UNL     1       2.391  -6.378  28.238  0.00  0.00    +0.113 C 
ATOM      6  C   UNL     1       1.773  -6.607  29.564  0.00  0.00    +0.128 C 
ENDROOT
BRANCH   4   7
ATOM      7  C   UNL     1       3.770  -8.181  27.190  0.00  0.00    +0.048 C 
ATOM      8  C   UNL     1       4.257  -9.393  27.682  0.00  0.00    +0.017 C 
ATOM      9  C   UNL     1       5.491  -9.862  27.281  0.00  0.00    +0.031 C 
ATOM     10  C   UNL     1       6.298  -9.197  26.401  0.00  0.00    +0.140 C 
ATOM     11  C   UNL     1       5.823  -8.002  25.912  0.00  0.00    +0.031 C 
ATOM     12  C   UNL     1       4.576  -7.514  26.309  0.00  0.00    +0.017 C 
ATOM     13  F   UNL     1       7.497  -9.713  26.051  0.00  0.00    -0.204 F 
ENDBRANCH   4   7
BRANCH   1  15
ATOM     14  C   UNL     1      -1.612  -6.599  30.407  0.00  0.00    +0.204 C 
ATOM     15  C   UNL     1      -0.620  -6.368  29.459  0.00  0.00    +0.169 C 
ATOM     16  N   UNL     1      -0.783  -5.331  28.590  0.00  0.00    -0.223 NA
ATOM     17  C   UNL     1      -1.839  -4.530  28.606  0.00  0.00    +0.138 C 
ATOM     18  C   UNL     1      -2.828  -4.723  29.519  0.00  0.00    +0.171 C 
ATOM     19  C   UNL     1      -2.711  -5.771  30.430  0.00  0.00    +0.082 C 
BRANCH  14  20
ATOM     20  O   UNL     1      -1.509  -7.643  31.322  0.00  0.00    -0.355 OA
BRANCH  20  21
ATOM     21  N   UNL     1      -2.410  -8.664  31.242  0.00  0.00    +0.159 NA
ATOM     22  O   UNL     1      -2.767  -9.138  30.130  0.00  0.00    -0.057 OA
ENDBRANCH  20  21
ENDBRANCH  14  20
BRANCH  18  23
ATOM     23  O   UNL     1      -3.963  -3.946  29.620  0.00  0.00    -0.417 OA
BRANCH  23  24
ATOM     24  C   UNL     1      -4.125  -3.012  30.634  0.00  0.00    +0.392 C 
ATOM     25  O   UNL     1      -3.205  -2.164  30.773  0.00  0.00    -0.241 OA
BRANCH  24  26
ATOM     26  C   UNL     1      -5.292  -3.010  31.498  0.00  0.00    +0.346 C 
ATOM     27  O   UNL     1      -6.408  -2.670  31.043  0.00  0.00    -0.273 OA
BRANCH  26  28
ATOM     28  C   UNL     1      -5.196  -3.392  32.893  0.00  0.00    +0.392 C 
ATOM     29  O   UNL     1      -6.074  -3.004  33.689  0.00  0.00    -0.241 OA
BRANCH  28  30
ATOM     30  O   UNL     1      -4.139  -4.175  33.322  0.00  0.00    -0.416 OA
BRANCH  30  31
ATOM     31  C   UNL     1      -4.297  -5.505  33.613  0.00  0.00    +0.183 C 
ATOM     32  C   UNL     1      -3.267  -6.264  34.014  0.00  0.00    +0.044 C 
ENDBRANCH  30  31
ENDBRANCH  28  30
ENDBRANCH  26  28
ENDBRANCH  24  26
ENDBRANCH  23  24
ENDBRANCH  18  23
ENDBRANCH   1  15
BRANCH   6  33
ATOM     33  C   UNL     1       1.880  -5.590  30.594  0.00  0.00    +0.194 C 
ATOM     34  O   UNL     1       1.982  -4.392  30.108  0.00  0.00    -0.216 OA
BRANCH  33  35
ATOM     35  C   UNL     1       1.898  -5.655  32.026  0.00  0.00    +0.009 C 
ATOM     36  C   UNL     1       1.179  -6.646  32.720  0.00  0.00    -0.002 C 
ATOM     37  C   UNL     1       1.135  -6.725  34.085  0.00  0.00    -0.000 C 
ATOM     38  C   UNL     1       1.808  -5.824  34.867  0.00  0.00    -0.000 C 
ATOM     39  C   UNL     1       2.519  -4.843  34.244  0.00  0.00    -0.000 C 
ATOM     40  C   UNL     1       2.557  -4.767  32.846  0.00  0.00    -0.002 C 
ENDBRANCH  33  35
ENDBRANCH   6  33
TORSDOF 12
ENDMDL
