MODEL 1
REMARK VINA RESULT:    -8.855      0.000      0.000
REMARK INTER + INTRA:         -13.983
REMARK INTER:                 -12.738
REMARK INTRA:                  -1.246
REMARK UNBOUND:                -1.246
REMARK  Name = =
REMARK  8 active torsions:
REMARK  status: ('A' for Active; 'I' for Inactive)
REMARK    1  A    between atoms: C_1  and  N_13
REMARK    2  A    between atoms: C_3  and  C_7
REMARK    3  A    between atoms: C_4  and  C_26
REMARK    4  A    between atoms: N_13  and  N_18
REMARK    5  A    between atoms: C_16  and  C_19
REMARK    6  A    between atoms: C_21  and  O_25
REMARK    7  A    between atoms: C_26  and  O_28
REMARK    8  A    between atoms: O_28  and  C_29
REMARK                            x       y       z     vdW  Elec       q    Type
REMARK                         _______ _______ _______ _____ _____    ______ ____
ROOT
ATOM      1  C   UNL     1      53.161 160.819  42.149  0.00  0.00    +0.073 C 
ATOM      2  C   UNL     1      53.399 162.136  41.939  0.00  0.00    +0.014 C 
ATOM      3  C   UNL     1      54.678 162.614  41.705  0.00  0.00    +0.007 C 
ATOM      4  C   UNL     1      55.725 161.730  41.684  0.00  0.00    +0.074 C 
ATOM      5  C   UNL     1      55.494 160.355  41.898  0.00  0.00    +0.008 C 
ATOM      6  C   UNL     1      54.230 159.920  42.125  0.00  0.00    +0.017 C 
ENDROOT
BRANCH   3   7
ATOM      7  C   UNL     1      54.922 164.058  41.465  0.00  0.00    +0.141 C 
ATOM      8  N   UNL     1      54.182 164.606  40.362  0.00  0.00    -0.265 N 
ATOM      9  C   UNL     1      54.015 166.009  40.683  0.00  0.00    +0.402 C 
ATOM     10  O   UNL     1      53.550 166.909  39.941  0.00  0.00    -0.226 OA
ATOM     11  O   UNL     1      54.476 166.193  42.004  0.00  0.00    -0.432 OA
ATOM     12  C   UNL     1      54.337 164.894  42.618  0.00  0.00    +0.234 C 
ATOM     13  H   UNL     1      53.859 164.131  39.562  0.00  0.00    +0.153 HD
ENDBRANCH   3   7
BRANCH   1  14
ATOM     14  N   UNL     1      51.847 160.322  42.437  0.00  0.00    -0.179 N 
ATOM     15  C   UNL     1      51.728 158.981  42.775  0.00  0.00    +0.324 C 
ATOM     16  O   UNL     1      50.731 158.295  43.034  0.00  0.00    -0.263 OA
BRANCH  14  19
ATOM     17  C   UNL     1      49.597 161.030  41.605  0.00  0.00    +0.262 C 
ATOM     18  O   UNL     1      49.372 159.973  40.962  0.00  0.00    -0.269 OA
ATOM     19  N   UNL     1      50.793 161.204  42.328  0.00  0.00    -0.223 N 
ATOM     20  H   UNL     1      50.887 162.057  42.811  0.00  0.00    +0.174 HD
BRANCH  17  21
ATOM     21  C   UNL     1      48.585 162.098  41.587  0.00  0.00    +0.058 C 
ATOM     22  C   UNL     1      48.058 162.512  40.366  0.00  0.00    +0.041 C 
ATOM     23  C   UNL     1      47.095 163.500  40.328  0.00  0.00    +0.134 C 
ATOM     24  C   UNL     1      46.618 164.113  41.475  0.00  0.00    +0.037 C 
ATOM     25  C   UNL     1      47.155 163.688  42.671  0.00  0.00    +0.003 C 
ATOM     26  C   UNL     1      48.125 162.693  42.731  0.00  0.00    +0.005 C 
BRANCH  23  27
ATOM     27  O   UNL     1      46.590 163.891  39.097  0.00  0.00    -0.506 OA
ATOM     28  H   UNL     1      46.937 163.520  38.309  0.00  0.00    +0.292 HD
ENDBRANCH  23  27
ENDBRANCH  17  21
ENDBRANCH  14  19
ENDBRANCH   1  14
BRANCH   4  29
ATOM     29  C   UNL     1      57.112 162.146  41.490  0.00  0.00    +0.346 C 
ATOM     30  O   UNL     1      57.807 162.481  42.503  0.00  0.00    -0.244 OA
BRANCH  29  31
ATOM     31  O   UNL     1      57.761 162.213  40.275  0.00  0.00    -0.419 OA
BRANCH  31  32
ATOM     32  C   UNL     1      59.066 161.720  40.143  0.00  0.00    +0.176 C 
ATOM     33  C   UNL     1      59.331 160.388  40.059  0.00  0.00    +0.175 C 
ATOM     34  C   UNL     1      60.621 159.907  39.931  0.00  0.00    +0.039 C 
ATOM     35  C   UNL     1      61.671 160.792  39.889  0.00  0.00    +0.037 C 
ATOM     36  C   UNL     1      61.406 162.148  39.975  0.00  0.00    +0.010 C 
ATOM     37  C   UNL     1      60.113 162.653  40.103  0.00  0.00    +0.040 C 
ATOM     38 BR   UNL     1      63.491 160.247  39.718  0.00  0.00    -0.049 Br
ATOM     39  F   UNL     1      58.309 159.470  40.094  0.00  0.00    -0.201 F 
ENDBRANCH  31  32
ENDBRANCH  29  31
ENDBRANCH   4  29
TORSDOF 8
ENDMDL
