REMARK  Name = =
REMARK  8 active torsions:
REMARK  status: ('A' for Active; 'I' for Inactive)
REMARK    1  A    between atoms: C_1  and  N_13
REMARK    2  A    between atoms: C_3  and  C_7
REMARK    3  A    between atoms: C_4  and  C_26
REMARK    4  A    between atoms: N_13  and  N_18
REMARK    5  A    between atoms: C_16  and  C_19
REMARK    6  A    between atoms: C_21  and  O_25
REMARK    7  A    between atoms: C_26  and  O_28
REMARK    8  A    between atoms: O_28  and  C_29
REMARK                            x       y       z     vdW  Elec       q    Type
REMARK                         _______ _______ _______ _____ _____    ______ ____
ROOT
ATOM      1  C   UNL     1      52.460 157.140  28.117  0.00  0.00    +0.073 C 
ATOM      2  C   UNL     1      52.957 158.352  28.460  0.00  0.00    +0.014 C 
ATOM      3  C   UNL     1      52.292 159.185  29.346  0.00  0.00    +0.007 C 
ATOM      4  C   UNL     1      51.104 158.767  29.887  0.00  0.00    +0.074 C 
ATOM      5  C   UNL     1      50.574 157.506  29.542  0.00  0.00    +0.008 C 
ATOM      6  C   UNL     1      51.250 156.716  28.671  0.00  0.00    +0.017 C 
ENDROOT
BRANCH   3   7
ATOM      7  C   UNL     1      52.854 160.506  29.722  0.00  0.00    +0.141 C 
ATOM      8  N   UNL     1      52.035 161.257  30.632  0.00  0.00    -0.265 N 
ATOM      9  C   UNL     1      52.961 162.101  31.361  0.00  0.00    +0.402 C 
ATOM     10  O   UNL     1      52.679 163.025  32.163  0.00  0.00    -0.226 OA
ATOM     11  O   UNL     1      54.265 161.694  31.005  0.00  0.00    -0.432 OA
ATOM     12  C   UNL     1      54.112 160.320  30.589  0.00  0.00    +0.234 C 
ATOM     13  H   UNL     1      51.057 161.209  30.738  0.00  0.00    +0.153 HD
ENDBRANCH   3   7
BRANCH   1  14
ATOM     14  N   UNL     1      53.119 156.292  27.166  0.00  0.00    -0.179 N 
ATOM     15  C   UNL     1      53.869 156.905  26.172  0.00  0.00    +0.324 C 
ATOM     16  O   UNL     1      54.501 156.427  25.221  0.00  0.00    -0.263 OA
BRANCH  14  19
ATOM     17  C   UNL     1      52.522 154.025  26.293  0.00  0.00    +0.262 C 
ATOM     18  O   UNL     1      52.280 154.411  25.121  0.00  0.00    -0.269 OA
ATOM     19  N   UNL     1      52.935 154.931  27.289  0.00  0.00    -0.223 N 
ATOM     20  H   UNL     1      53.113 154.547  28.178  0.00  0.00    +0.174 HD
BRANCH  17  21
ATOM     21  C   UNL     1      52.360 152.599  26.616  0.00  0.00    +0.058 C 
ATOM     22  C   UNL     1      51.724 152.241  27.802  0.00  0.00    +0.041 C 
ATOM     23  C   UNL     1      51.546 150.909  28.116  0.00  0.00    +0.134 C 
ATOM     24  C   UNL     1      51.981 149.888  27.286  0.00  0.00    +0.037 C 
ATOM     25  C   UNL     1      52.609 150.267  26.119  0.00  0.00    +0.003 C 
ATOM     26  C   UNL     1      52.797 151.603  25.784  0.00  0.00    +0.005 C 
BRANCH  23  27
ATOM     27  O   UNL     1      50.909 150.584  29.304  0.00  0.00    -0.506 OA
ATOM     28  H   UNL     1      50.609 151.263  29.876  0.00  0.00    +0.292 HD
ENDBRANCH  23  27
ENDBRANCH  17  21
ENDBRANCH  14  19
ENDBRANCH   1  14
BRANCH   4  29
ATOM     29  C   UNL     1      50.310 159.593  30.793  0.00  0.00    +0.346 C 
ATOM     30  O   UNL     1      49.158 159.990  30.423  0.00  0.00    -0.244 OA
BRANCH  29  31
ATOM     31  O   UNL     1      50.702 159.998  32.052  0.00  0.00    -0.419 OA
BRANCH  31  32
ATOM     32  C   UNL     1      49.835 160.752  32.853  0.00  0.00    +0.176 C 
ATOM     33  C   UNL     1      49.372 160.295  34.049  0.00  0.00    +0.175 C 
ATOM     34  C   UNL     1      48.515 161.043  34.834  0.00  0.00    +0.039 C 
ATOM     35  C   UNL     1      48.111 162.283  34.402  0.00  0.00    +0.037 C 
ATOM     36  C   UNL     1      48.578 162.751  33.186  0.00  0.00    +0.010 C 
ATOM     37  C   UNL     1      49.444 162.014  32.380  0.00  0.00    +0.040 C 
ATOM     38 BR   UNL     1      46.930 163.403  35.397  0.00  0.00    -0.049 Br
ATOM     39  F   UNL     1      49.755 159.061  34.519  0.00  0.00    -0.201 F 
ENDBRANCH  31  32
ENDBRANCH  29  31
ENDBRANCH   4  29
TORSDOF 8
