REMARK  Name = =
REMARK  7 active torsions:
REMARK  status: ('A' for Active; 'I' for Inactive)
REMARK    1  A    between atoms: C_3  and  C_20
REMARK    2  A    between atoms: N_5  and  O_33
REMARK    3  A    between atoms: C_10  and  O_37
REMARK    4  A    between atoms: C_12  and  O_36
REMARK    5  A    between atoms: C_13  and  C_34
REMARK    6  A    between atoms: N_25  and  C_26
REMARK    7  A    between atoms: O_29  and  O_30
REMARK                            x       y       z     vdW  Elec       q    Type
REMARK                         _______ _______ _______ _____ _____    ______ ____
ROOT
ATOM      1  C   UNL     1       3.001  -5.174  27.043  0.00  0.00    +0.038 C 
ATOM      2  C   UNL     1       4.347  -5.776  27.072  0.00  0.00    +0.014 C 
ATOM      3  C   UNL     1       5.581  -5.139  27.534  0.00  0.00    +0.096 C 
ATOM      4  C   UNL     1       6.218  -4.087  26.634  0.00  0.00    +0.124 C 
ATOM      5  N   UNL     1       6.077  -2.792  27.274  0.00  0.00    -0.024 NA
ATOM      6  O   UNL     1       4.762  -2.463  27.395  0.00  0.00    -0.111 OA
ATOM      7  O   UNL     1       4.046  -3.357  27.933  0.00  0.00    -0.201 OA
ATOM      8  C   UNL     1       2.853  -3.688  27.054  0.00  0.00    +0.163 C 
ATOM      9  C   UNL     1       1.889  -3.029  27.891  0.00  0.00    +0.041 C 
ATOM     10  C   UNL     1       1.677  -1.706  27.718  0.00  0.00    +0.134 C 
ATOM     11  C   UNL     1       2.324  -0.934  26.680  0.00  0.00    +0.069 C 
ATOM     12  C   UNL     1       3.102  -1.536  25.745  0.00  0.00    +0.123 C 
ATOM     13  C   UNL     1       3.131  -2.966  25.834  0.00  0.00    +0.138 C 
ATOM     14  C   UNL     1       5.459  -3.930  25.314  0.00  0.00    +0.023 C 
ATOM     15  C   UNL     1       4.145  -3.779  25.130  0.00  0.00    +0.022 C 
ATOM     16  C   UNL     1       4.057  -4.801  24.099  0.00  0.00    +0.027 C 
ATOM     17  C   UNL     1       3.073  -5.716  23.917  0.00  0.00    -0.031 C 
ATOM     18  C   UNL     1       2.002  -6.232  24.835  0.00  0.00    -0.031 C 
ATOM     19  C   UNL     1       2.047  -5.942  26.245  0.00  0.00    +0.028 C 
ENDROOT
BRANCH   3  20
ATOM     20  C   UNL     1       6.605  -6.214  27.584  0.00  0.00    +0.230 C 
ATOM     21  O   UNL     1       7.751  -6.280  27.541  0.00  0.00    -0.275 OA
ATOM     22  N   UNL     1       5.819  -7.743  27.748  0.00  0.00    -0.240 N 
ATOM     23  C   UNL     1       6.976  -8.458  27.800  0.00  0.00    +0.308 C 
ATOM     24  O   UNL     1       8.162  -8.207  27.980  0.00  0.00    -0.252 OA
ATOM     25  N   UNL     1       6.848  -9.870  27.601  0.00  0.00    -0.261 N 
ATOM     26  H   UNL     1       4.871  -8.005  27.789  0.00  0.00    +0.159 HD
ATOM     27  H   UNL     1       7.734 -10.174  27.903  0.00  0.00    +0.153 HD
BRANCH  25  28
ATOM     28  C   UNL     1       6.311 -10.999  27.278  0.00  0.00    +0.278 C 
ATOM     29  O   UNL     1       7.369 -11.802  27.068  0.00  0.00    -0.196 OA
ENDBRANCH  25  28
ENDBRANCH   3  20
BRANCH   5  30
ATOM     30  O   UNL     1       6.596  -1.827  26.438  0.00  0.00    -0.286 OA
ATOM     31  H   UNL     1       7.542  -1.993  26.300  0.00  0.00    +0.239 HD
ENDBRANCH   5  30
BRANCH  13  32
ATOM     32  C   UNL     1       1.795  -3.169  24.936  0.00  0.00    +0.216 C 
ATOM     33  O   UNL     1       1.596  -2.525  23.999  0.00  0.00    -0.288 OA
ENDBRANCH  13  32
BRANCH  12  34
ATOM     34  O   UNL     1       3.779  -0.748  24.815  0.00  0.00    -0.509 OA
ATOM     35  H   UNL     1       4.319  -1.151  24.164  0.00  0.00    +0.292 HD
ENDBRANCH  12  34
BRANCH  10  36
ATOM     36  O   UNL     1       0.808  -1.074  28.578  0.00  0.00    -0.506 OA
ATOM     37  H   UNL     1       0.382  -1.561  29.255  0.00  0.00    +0.292 HD
ENDBRANCH  10  36
TORSDOF 6
REMARK  Name = =
REMARK  7 active torsions:
REMARK  status: ('A' for Active; 'I' for Inactive)
REMARK    1  A    between atoms: C_3  and  C_20
REMARK    2  A    between atoms: N_5  and  O_33
REMARK    3  A    between atoms: C_10  and  O_37
REMARK    4  A    between atoms: C_12  and  O_36
REMARK    5  A    between atoms: C_13  and  C_34
REMARK    6  A    between atoms: N_25  and  C_26
REMARK    7  A    between atoms: O_29  and  O_30
REMARK                            x       y       z     vdW  Elec       q    Type
REMARK                         _______ _______ _______ _____ _____    ______ ____
ROOT
ATOM      1  P   UNL     1       2.393  -5.519  28.789  0.00  0.00    +0.000 P 
ENDROOT
TORSDOF 0
REMARK  Name = =
REMARK  7 active torsions:
REMARK  status: ('A' for Active; 'I' for Inactive)
REMARK    1  A    between atoms: C_3  and  C_20
REMARK    2  A    between atoms: N_5  and  O_33
REMARK    3  A    between atoms: C_10  and  O_37
REMARK    4  A    between atoms: C_12  and  O_36
REMARK    5  A    between atoms: C_13  and  C_34
REMARK    6  A    between atoms: N_25  and  C_26
REMARK    7  A    between atoms: O_29  and  O_30
REMARK                            x       y       z     vdW  Elec       q    Type
REMARK                         _______ _______ _______ _____ _____    ______ ____
ROOT
ATOM      1  O   UNL     1       2.415  -4.268  29.620  0.00  0.00    -0.253 OA
ATOM      2  H   UNL     1       1.856  -3.970  30.354  0.00  0.00    +0.253 HD
ENDROOT
BRANCH   1   3
ATOM      3  O   UNL     1       3.433  -5.168  30.123  0.00  0.00    -0.253 OA
ATOM      4  H   UNL     1       3.992  -5.466  29.389  0.00  0.00    +0.253 HD
ENDBRANCH   1   3
TORSDOF 1
REMARK  Name = =
REMARK  7 active torsions:
REMARK  status: ('A' for Active; 'I' for Inactive)
REMARK    1  A    between atoms: C_3  and  C_20
REMARK    2  A    between atoms: N_5  and  O_33
REMARK    3  A    between atoms: C_10  and  O_37
REMARK    4  A    between atoms: C_12  and  O_36
REMARK    5  A    between atoms: C_13  and  C_34
REMARK    6  A    between atoms: N_25  and  C_26
REMARK    7  A    between atoms: O_29  and  O_30
REMARK                            x       y       z     vdW  Elec       q    Type
REMARK                         _______ _______ _______ _____ _____    ______ ____
ROOT
ATOM      1  O   HOH     1       2.654  -7.216  28.806  0.00  0.00    -0.253 OA
ATOM      2  H   HOH     0       3.624  -7.216  28.806  0.00  0.00    +0.253 HD
ENDROOT
TORSDOF 0
REMARK  Name = =
REMARK  7 active torsions:
REMARK  status: ('A' for Active; 'I' for Inactive)
REMARK    1  A    between atoms: C_3  and  C_20
REMARK    2  A    between atoms: N_5  and  O_33
REMARK    3  A    between atoms: C_10  and  O_37
REMARK    4  A    between atoms: C_12  and  O_36
REMARK    5  A    between atoms: C_13  and  C_34
REMARK    6  A    between atoms: N_25  and  C_26
REMARK    7  A    between atoms: O_29  and  O_30
REMARK                            x       y       z     vdW  Elec       q    Type
REMARK                         _______ _______ _______ _____ _____    ______ ____
ROOT
ATOM      1  O   HOH     1       1.133  -6.455  29.388  0.00  0.00    -0.253 OA
ATOM      2  H   HOH     0       2.103  -6.455  29.388  0.00  0.00    +0.253 HD
ENDROOT
TORSDOF 0
