REMARK  Name = =
REMARK  6 active torsions:
REMARK  status: ('A' for Active; 'I' for Inactive)
REMARK    1  A    between atoms: C_1  and  C_11
REMARK    2  A    between atoms: C_10  and  O_21
REMARK    3  A    between atoms: C_11  and  C_14
REMARK    4  A    between atoms: O_21  and  P_22
REMARK    5  A    between atoms: P_22  and  N_24
REMARK    6  A    between atoms: P_22  and  N_25
REMARK                            x       y       z     vdW  Elec       q    Type
REMARK                         _______ _______ _______ _____ _____    ______ ____
ROOT
ATOM      1  C   UNL     1       3.504 -11.370  25.340  0.00  0.00    -0.003 C 
ATOM      2  C   UNL     1       2.217 -11.525  25.072  0.00  0.00    -0.019 C 
ATOM      3  C   UNL     1       1.504 -12.811  24.972  0.00  0.00    +0.020 C 
ATOM      4  C   UNL     1       0.112 -12.568  24.437  0.00  0.00    +0.004 C 
ATOM      5  C   UNL     1      -0.285 -13.949  23.909  0.00  0.00    +0.000 C 
ATOM      6  C   UNL     1       0.966 -14.783  23.868  0.00  0.00    +0.000 C 
ATOM      7  C   UNL     1       2.060 -13.735  23.913  0.00  0.00    +0.004 C 
ATOM      8  C   UNL     1       0.079 -11.639  23.261  0.00  0.00    +0.003 C 
ATOM      9  C   UNL     1       0.925 -10.425  23.391  0.00  0.00    +0.034 C 
ATOM     10  C   UNL     1       1.378 -10.317  24.849  0.00  0.00    +0.142 C 
ENDROOT
BRANCH   1  11
ATOM     11  C   UNL     1       4.405 -12.544  25.576  0.00  0.00    +0.140 C 
ATOM     12  C   UNL     1       4.333 -13.144  26.862  0.00  0.00    +0.174 C 
ATOM     13  O   UNL     1       5.313 -12.146  26.716  0.00  0.00    -0.349 OA
BRANCH  11  14
ATOM     14  C   UNL     1       5.238 -12.915  24.424  0.00  0.00    +0.061 C 
ATOM     15  C   UNL     1       5.980 -14.187  24.458  0.00  0.00    +0.118 C 
ATOM     16  O   UNL     1       6.656 -14.048  23.211  0.00  0.00    -0.359 OA
ATOM     17  C   UNL     1       7.375 -12.857  23.488  0.00  0.00    +0.115 C 
ATOM     18  C   UNL     1       6.354 -11.918  24.107  0.00  0.00    +0.035 C 
ATOM     19  C   UNL     1       8.217 -13.359  24.662  0.00  0.00    +0.032 C 
ATOM     20  C   UNL     1       7.184 -14.238  25.346  0.00  0.00    +0.032 C 
ENDBRANCH  11  14
ENDBRANCH   1  11
BRANCH  10  21
ATOM     21  O   UNL     1       2.038  -9.144  25.098  0.00  0.00    -0.291 OA
BRANCH  21  22
ATOM     22  P   UNL     1       1.406  -8.445  26.499  0.00  0.00    +0.339 P 
ATOM     23  O   UNL     1       0.194  -9.231  27.004  0.00  0.00    -0.255 OA
BRANCH  22  24
ATOM     24  N   UNL     1       2.587  -8.507  27.813  0.00  0.00    -0.247 NA
ATOM     25  H   UNL     1       2.885  -9.472  27.957  0.00  0.00    +0.129 HD
ATOM     26  H   UNL     1       2.162  -8.150  28.669  0.00  0.00    +0.129 HD
ENDBRANCH  22  24
BRANCH  22  27
ATOM     27  N   UNL     1       0.883  -6.805  26.234  0.00  0.00    -0.247 NA
ATOM     28  H   UNL     1       0.203  -6.784  25.474  0.00  0.00    +0.129 HD
ATOM     29  H   UNL     1       1.687  -6.228  25.987  0.00  0.00    +0.129 HD
ENDBRANCH  22  27
ENDBRANCH  21  22
ENDBRANCH  10  21
TORSDOF 6
