REMARK  Name = =
REMARK  8 active torsions:
REMARK  status: ('A' for Active; 'I' for Inactive)
REMARK    1  A    between atoms: C_1  and  N_28
REMARK    2  A    between atoms: C_8  and  P_23
REMARK    3  A    between atoms: C_9  and  C_17
REMARK    4  A    between atoms: P_23  and  O_24
REMARK    5  A    between atoms: P_23  and  O_27
REMARK    6  A    between atoms: O_24  and  O_26
REMARK    7  A    between atoms: N_28  and  C_29
REMARK    8  A    between atoms: C_37  and  O_39
REMARK                            x       y       z     vdW  Elec       q    Type
REMARK                         _______ _______ _______ _____ _____    ______ ____
ROOT
ATOM      1  C   UNL     1      52.218 157.258  28.291  0.00  0.00    +0.069 C 
ATOM      2  C   UNL     1      52.658 156.453  29.501  0.00  0.00    +0.020 C 
ATOM      3  C   UNL     1      51.944 155.120  29.479  0.00  0.00    +0.009 C 
ATOM      4  C   UNL     1      52.937 153.975  29.437  0.00  0.00    +0.065 C 
ATOM      5  C   UNL     1      52.651 153.045  28.317  0.00  0.00    +0.151 C 
ATOM      6  O   UNL     1      51.549 152.977  27.843  0.00  0.00    -0.296 OA
ATOM      7  C   UNL     1      53.732 152.189  27.777  0.00  0.00    +0.073 C 
ATOM      8  C   UNL     1      54.325 152.770  26.503  0.00  0.00    +0.077 C 
ATOM      9  C   UNL     1      53.560 152.335  25.299  0.00  0.00    +0.076 C 
ATOM     10  C   UNL     1      53.959 152.942  24.009  0.00  0.00    +0.213 C 
ATOM     11  O   UNL     1      53.946 154.305  23.885  0.00  0.00    -0.448 OA
ATOM     12  C   UNL     1      53.765 155.358  24.690  0.00  0.00    +0.317 C 
ATOM     13  O   UNL     1      54.702 156.121  25.074  0.00  0.00    -0.250 OA
ATOM     14  C   UNL     1      52.406 155.690  25.186  0.00  0.00    +0.110 C 
ATOM     15  C   UNL     1      52.370 157.047  25.858  0.00  0.00    +0.013 C 
ATOM     16  C   UNL     1      53.142 157.085  27.132  0.00  0.00    +0.020 C 
ENDROOT
BRANCH   9  17
ATOM     17  C   UNL     1      53.406 150.840  25.186  0.00  0.00    +0.004 C 
ATOM     18  C   UNL     1      54.241 150.096  24.398  0.00  0.00    +0.020 C 
ATOM     19  C   UNL     1      54.110 148.737  24.295  0.00  0.00    +0.122 C 
ATOM     20  N   UNL     1      53.132 148.140  24.995  0.00  0.00    -0.146 NA
ATOM     21  N   UNL     1      52.320 148.840  25.757  0.00  0.00    -0.147 NA
ATOM     22  C   UNL     1      52.412 150.166  25.885  0.00  0.00    +0.118 C 
ENDBRANCH   9  17
BRANCH   8  23
ATOM     23  P   UNL     1      56.086 152.406  26.487  0.00  0.00    +0.135 P 
ATOM     24  H   UNL     1      56.489 152.677  27.779  0.00  0.00    +0.114 HD
BRANCH  23  25
ATOM     25  O   UNL     1      56.557 151.218  25.438  0.00  0.00    -0.354 OA
ATOM     26  H   UNL     1      56.073 151.314  24.603  0.00  0.00    +0.216 HD
ENDBRANCH  23  25
BRANCH  23  27
ATOM     27  O   UNL     1      56.391 152.687  25.012  0.00  0.00    -0.197 OA
BRANCH  27  28
ATOM     28  O   UNL     1      56.679 153.880  25.831  0.00  0.00    -0.245 OA
ATOM     29  H   UNL     1      57.002 154.594  25.260  0.00  0.00    +0.253 HD
ENDBRANCH  27  28
ENDBRANCH  23  27
ENDBRANCH   8  23
BRANCH   1  30
ATOM     30  N   UNL     1      52.020 158.646  28.574  0.00  0.00    -0.333 N 
ATOM     31  H   UNL     1      52.476 159.290  27.985  0.00  0.00    +0.147 HD
BRANCH  30  32
ATOM     32  C   UNL     1      51.239 159.177  29.609  0.00  0.00    +0.065 C 
ATOM     33  C   UNL     1      51.700 160.230  30.364  0.00  0.00    +0.095 C 
ATOM     34  N   UNL     1      52.906 160.793  30.153  0.00  0.00    -0.243 NA
ATOM     35  C   UNL     1      53.361 161.830  30.895  0.00  0.00    +0.099 C 
ATOM     36  C   UNL     1      52.612 162.371  31.913  0.00  0.00    +0.021 C 
ATOM     37  C   UNL     1      51.362 161.824  32.166  0.00  0.00    +0.003 C 
ATOM     38  C   UNL     1      50.926 160.770  31.396  0.00  0.00    +0.022 C 
ATOM     39  C   UNL     1      49.686 160.246  31.665  0.00  0.00    +0.038 C 
ATOM     40  C   UNL     1      49.212 159.193  30.918  0.00  0.00    +0.135 C 
ATOM     41  C   UNL     1      49.995 158.669  29.896  0.00  0.00    +0.052 C 
BRANCH  40  42
ATOM     42  O   UNL     1      47.954 158.669  31.200  0.00  0.00    -0.505 OA
ATOM     43  H   UNL     1      47.439 159.034  31.892  0.00  0.00    +0.292 HD
ENDBRANCH  40  42
ENDBRANCH  30  32
ENDBRANCH   1  30
TORSDOF 8
REMARK  Name = =
REMARK  8 active torsions:
REMARK  status: ('A' for Active; 'I' for Inactive)
REMARK    1  A    between atoms: C_1  and  N_28
REMARK    2  A    between atoms: C_8  and  P_23
REMARK    3  A    between atoms: C_9  and  C_17
REMARK    4  A    between atoms: P_23  and  O_24
REMARK    5  A    between atoms: P_23  and  O_27
REMARK    6  A    between atoms: O_24  and  O_26
REMARK    7  A    between atoms: N_28  and  C_29
REMARK    8  A    between atoms: C_37  and  O_39
REMARK                            x       y       z     vdW  Elec       q    Type
REMARK                         _______ _______ _______ _____ _____    ______ ____
ROOT
ATOM      1  O   HOH     1      56.793 152.452  28.046  0.00  0.00    -0.253 OA
ATOM      2  H   HOH     0      57.763 152.452  28.046  0.00  0.00    +0.253 HD
ENDROOT
TORSDOF 0
