REMARK  Name = =
REMARK  0 active torsions:
REMARK  status: ('A' for Active; 'I' for Inactive)
REMARK                            x       y       z     vdW  Elec       q    Type
REMARK                         _______ _______ _______ _____ _____    ______ ____
ROOT
ATOM      1  N   UNL     1      -4.000  -4.410  30.829  0.00  0.00    -0.287 N 
ATOM      2  C   UNL     1      -3.991  -5.103  32.101  0.00  0.00    +0.112 C 
ATOM      3  C   UNL     1      -4.313  -3.984  33.061  0.00  0.00    +0.112 C 
ATOM      4  N   UNL     1      -3.472  -2.923  32.539  0.00  0.00    -0.287 N 
ATOM      5  C   UNL     1      -3.573  -3.085  31.120  0.00  0.00    +0.301 C 
ATOM      6  O   UNL     1      -3.315  -2.172  30.283  0.00  0.00    -0.253 OA
ATOM      7  H   UNL     1      -4.249  -4.778  29.950  0.00  0.00    +0.151 HD
ATOM      8  H   UNL     1      -2.955  -2.252  33.041  0.00  0.00    +0.151 HD
ENDROOT
TORSDOF 0
