REMARK  Name = =
REMARK  1 active torsions:
REMARK  status: ('A' for Active; 'I' for Inactive)
REMARK    1  A    between atoms: C_2  and  C_7
REMARK                            x       y       z     vdW  Elec       q    Type
REMARK                         _______ _______ _______ _____ _____    ______ ____
ROOT
ATOM      1  N   UNL     1       1.673  -5.337  32.217  0.00  0.00    -0.285 N 
ATOM      2  C   UNL     1       1.196  -6.677  32.466  0.00  0.00    +0.133 C 
ATOM      3  C   UNL     1       0.769  -6.546  33.931  0.00  0.00    +0.114 C 
ATOM      4  N   UNL     1       1.882  -5.805  34.481  0.00  0.00    -0.287 N 
ATOM      5  C   UNL     1       2.354  -4.962  33.435  0.00  0.00    +0.301 C 
ATOM      6  O   UNL     1       3.216  -4.059  33.587  0.00  0.00    -0.253 OA
ATOM      7  H   UNL     1       1.560  -4.799  31.400  0.00  0.00    +0.151 HD
ATOM      8  H   UNL     1       2.241  -5.870  35.395  0.00  0.00    +0.151 HD
ENDROOT
BRANCH   2   9
ATOM      9  C   UNL     1       0.001  -7.047  31.653  0.00  0.00    +0.188 C 
ATOM     10  O   UNL     1       0.415  -7.365  30.341  0.00  0.00    -0.450 OA
ATOM     11  C   UNL     1      -0.579  -7.852  29.502  0.00  0.00    +0.317 C 
ATOM     12  O   UNL     1      -0.391  -7.844  28.252  0.00  0.00    -0.250 OA
ATOM     13  C   UNL     1      -1.852  -8.379  30.014  0.00  0.00    +0.110 C 
ATOM     14  C   UNL     1      -1.875  -8.696  31.456  0.00  0.00    +0.015 C 
ATOM     15  C   UNL     1      -0.788  -8.154  32.288  0.00  0.00    +0.046 C 
ENDBRANCH   2   9
TORSDOF 1
