REMARK  Name = =
REMARK  1 active torsions:
REMARK  status: ('A' for Active; 'I' for Inactive)
REMARK    1  A    between atoms: C_8  and  C_13
REMARK                            x       y       z     vdW  Elec       q    Type
REMARK                         _______ _______ _______ _____ _____    ______ ____
ROOT
ATOM      1  C   UNL     1       1.026 -12.854  23.122  0.00  0.00    +0.160 C 
ATOM      2  N   UNL     1       1.119 -13.497  21.907  0.00  0.00    -0.132 NA
ATOM      3  N   UNL     1       1.093 -14.819  21.819  0.00  0.00    -0.145 NA
ATOM      4  C   UNL     1       0.979 -15.649  22.869  0.00  0.00    +0.122 C 
ATOM      5  C   UNL     1       0.883 -15.067  24.111  0.00  0.00    +0.025 C 
ATOM      6  C   UNL     1       0.908 -13.677  24.211  0.00  0.00    +0.038 C 
ATOM      7  N   UNL     1       1.069 -11.445  23.197  0.00  0.00    -0.223 N 
ATOM      8  C   UNL     1       1.749 -10.588  24.155  0.00  0.00    +0.142 C 
ATOM      9  C   UNL     1       2.485  -9.706  23.094  0.00  0.00    +0.115 C 
ATOM     10  N   UNL     1       1.294  -9.290  22.340  0.00  0.00    -0.287 N 
ATOM     11  C   UNL     1       0.469 -10.474  22.320  0.00  0.00    +0.309 C 
ATOM     12  O   UNL     1      -0.594 -10.683  21.673  0.00  0.00    -0.252 OA
ATOM     13  H   UNL     1       1.104  -8.410  21.942  0.00  0.00    +0.151 HD
ENDROOT
BRANCH   8  14
ATOM     14  C   UNL     1       0.854  -9.611  24.853  0.00  0.00    +0.189 C 
ATOM     15  O   UNL     1       1.714  -8.520  25.231  0.00  0.00    -0.450 OA
ATOM     16  C   UNL     1       2.303  -8.592  26.474  0.00  0.00    +0.317 C 
ATOM     17  O   UNL     1       3.525  -8.379  26.671  0.00  0.00    -0.250 OA
ATOM     18  C   UNL     1       1.432  -8.941  27.623  0.00  0.00    +0.110 C 
ATOM     19  C   UNL     1       0.009  -8.988  27.042  0.00  0.00    +0.015 C 
ATOM     20  C   UNL     1       0.069 -10.120  26.004  0.00  0.00    +0.046 C 
ENDBRANCH   8  14
TORSDOF 1
