REMARK  Name = =
REMARK  2 active torsions:
REMARK  status: ('A' for Active; 'I' for Inactive)
REMARK    1  A    between atoms: C_1  and  C_15
REMARK    2  A    between atoms: C_7  and  S_20
REMARK                            x       y       z     vdW  Elec       q    Type
REMARK                         _______ _______ _______ _____ _____    ______ ____
ROOT
ATOM      1  C   UNL     1       4.773  -5.966  21.367  0.00  0.00    +0.197 C 
ATOM      2  O   UNL     1       3.641  -5.800  22.199  0.00  0.00    -0.450 OA
ATOM      3  C   UNL     1       2.713  -4.822  21.874  0.00  0.00    +0.317 C 
ATOM      4  O   UNL     1       1.455  -5.001  21.929  0.00  0.00    -0.250 OA
ATOM      5  C   UNL     1       3.293  -3.502  21.439  0.00  0.00    +0.111 C 
ATOM      6  C   UNL     1       4.352  -3.670  20.395  0.00  0.00    +0.024 C 
ATOM      7  C   UNL     1       4.600  -5.119  20.176  0.00  0.00    +0.072 C 
ENDROOT
BRANCH   1  15
ATOM      8  C   UNL     1       7.881  -7.430  21.297  0.00  0.00    +0.160 C 
ATOM      9  N   UNL     1       8.429  -6.514  20.480  0.00  0.00    -0.132 NA
ATOM     10  N   UNL     1       9.532  -6.748  19.782  0.00  0.00    -0.145 NA
ATOM     11  C   UNL     1      10.193  -7.916  19.829  0.00  0.00    +0.122 C 
ATOM     12  C   UNL     1       9.687  -8.904  20.649  0.00  0.00    +0.025 C 
ATOM     13  C   UNL     1       8.539  -8.643  21.368  0.00  0.00    +0.038 C 
ATOM     14  N   UNL     1       6.702  -7.158  22.038  0.00  0.00    -0.223 N 
ATOM     15  C   UNL     1       6.018  -5.867  22.149  0.00  0.00    +0.143 C 
ATOM     16  C   UNL     1       5.800  -5.915  23.669  0.00  0.00    +0.115 C 
ATOM     17  N   UNL     1       5.162  -7.218  23.785  0.00  0.00    -0.287 N 
ATOM     18  C   UNL     1       5.901  -8.025  22.836  0.00  0.00    +0.309 C 
ATOM     19  O   UNL     1       5.878  -9.285  22.698  0.00  0.00    -0.252 OA
ATOM     20  H   UNL     1       4.413  -7.485  24.365  0.00  0.00    +0.151 HD
ENDBRANCH   1  15
BRANCH   7  21
ATOM     21  S   UNL     1       5.847  -5.385  18.939  0.00  0.00    -0.209 S 
ATOM     22  C   UNL     1       5.752  -7.014  18.133  0.00  0.00    +0.055 C 
ATOM     23  C   UNL     1       4.910  -6.560  16.931  0.00  0.00    +0.079 C 
ATOM     24  N   UNL     1       5.561  -5.390  16.428  0.00  0.00    -0.289 NA
ATOM     25  C   UNL     1       5.666  -4.406  17.458  0.00  0.00    +0.108 C 
ATOM     26  H   UNL     1       6.955  -5.130  19.685  0.00  0.00    +0.085 HD
ATOM     27  H   UNL     1       5.019  -5.010  15.652  0.00  0.00    +0.124 HD
ENDBRANCH   7  21
TORSDOF 2
