REMARK  Name = =
REMARK  3 active torsions:
REMARK  status: ('A' for Active; 'I' for Inactive)
REMARK    1  A    between atoms: C_8  and  C_13
REMARK    2  A    between atoms: C_8  and  C_20
REMARK    3  A    between atoms: C_26  and  S_27
REMARK                            x       y       z     vdW  Elec       q    Type
REMARK                         _______ _______ _______ _____ _____    ______ ____
ROOT
ATOM      1  C   UNL     1       4.260  -4.965  22.005  0.00  0.00    +0.160 C 
ATOM      2  N   UNL     1       4.402  -5.949  21.096  0.00  0.00    -0.132 NA
ATOM      3  N   UNL     1       3.675  -6.034  20.006  0.00  0.00    -0.145 NA
ATOM      4  C   UNL     1       2.731  -5.151  19.702  0.00  0.00    +0.122 C 
ATOM      5  C   UNL     1       2.509  -4.106  20.571  0.00  0.00    +0.025 C 
ATOM      6  C   UNL     1       3.291  -4.031  21.727  0.00  0.00    +0.038 C 
ATOM      7  N   UNL     1       5.065  -4.904  23.171  0.00  0.00    -0.225 N 
ATOM      8  C   UNL     1       4.865  -5.205  24.523  0.00  0.00    +0.123 C 
ATOM      9  C   UNL     1       6.247  -5.757  24.922  0.00  0.00    +0.113 C 
ATOM     10  N   UNL     1       7.111  -4.791  24.274  0.00  0.00    -0.287 N 
ATOM     11  C   UNL     1       6.438  -4.461  23.066  0.00  0.00    +0.309 C 
ATOM     12  O   UNL     1       6.955  -3.881  22.078  0.00  0.00    -0.252 OA
ATOM     13  H   UNL     1       7.972  -4.441  24.598  0.00  0.00    +0.151 HD
ENDROOT
BRANCH   8  14
ATOM     14  C   UNL     1       4.589  -4.081  25.482  0.00  0.00    +0.022 C 
ATOM     15  C   UNL     1       5.706  -3.668  26.374  0.00  0.00    +0.002 C 
ATOM     16  C   UNL     1       5.342  -2.174  26.606  0.00  0.00    +0.000 C 
ATOM     17  C   UNL     1       5.156  -1.813  25.117  0.00  0.00    +0.000 C 
ATOM     18  C   UNL     1       4.039  -2.833  24.813  0.00  0.00    +0.002 C 
ATOM     19  C   UNL     1       3.026  -2.238  25.824  0.00  0.00    +0.000 C 
ATOM     20  C   UNL     1       3.909  -2.170  27.083  0.00  0.00    +0.000 C 
ENDBRANCH   8  14
BRANCH   8  21
ATOM     21  C   UNL     1       3.797  -6.238  24.812  0.00  0.00    +0.195 C 
ATOM     22  O   UNL     1       3.266  -5.869  26.097  0.00  0.00    -0.450 OA
ATOM     23  C   UNL     1       3.822  -6.308  27.262  0.00  0.00    +0.317 C 
ATOM     24  O   UNL     1       3.708  -5.592  28.293  0.00  0.00    -0.250 OA
ATOM     25  C   UNL     1       4.533  -7.595  27.276  0.00  0.00    +0.111 C 
ATOM     26  C   UNL     1       4.229  -8.399  26.053  0.00  0.00    +0.024 C 
ATOM     27  C   UNL     1       4.222  -7.651  24.763  0.00  0.00    +0.072 C 
BRANCH  27  28
ATOM     28  S   UNL     1       3.072  -8.539  23.633  0.00  0.00    -0.209 S 
ATOM     29  C   UNL     1       3.585 -10.203  23.162  0.00  0.00    +0.055 C 
ATOM     30  C   UNL     1       2.509 -11.000  23.870  0.00  0.00    +0.079 C 
ATOM     31  N   UNL     1       1.297 -10.247  23.606  0.00  0.00    -0.289 NA
ATOM     32  C   UNL     1       1.500  -9.075  24.448  0.00  0.00    +0.108 C 
ATOM     33  H   UNL     1       2.997  -7.620  22.634  0.00  0.00    +0.085 HD
ATOM     34  H   UNL     1       0.466 -10.768  23.885  0.00  0.00    +0.124 HD
ENDBRANCH  27  28
ENDBRANCH   8  21
TORSDOF 3
