REMARK  Name = =
REMARK  5 active torsions:
REMARK  status: ('A' for Active; 'I' for Inactive)
REMARK    1  A    between atoms: C_1  and  N_24
REMARK    2  A    between atoms: C_3  and  N_34
REMARK    3  A    between atoms: N_4  and  N_6
REMARK    4  A    between atoms: C_10  and  N_18
REMARK    5  A    between atoms: C_29  and  N_33
REMARK                            x       y       z     vdW  Elec       q    Type
REMARK                         _______ _______ _______ _____ _____    ______ ____
ROOT
ATOM      1  C   UNL     1     -10.164  -5.135  19.510  0.00  0.00    +0.148 C 
ATOM      2  S   UNL     1     -11.054  -4.710  17.955  0.00  0.00    -0.086 S 
ATOM      3  C   UNL     1     -11.823  -3.168  18.613  0.00  0.00    +0.187 C 
ATOM      4  N   UNL     1     -11.333  -3.162  19.914  0.00  0.00    -0.178 NA
ATOM      5  C   UNL     1     -11.117  -4.421  20.480  0.00  0.00    +0.126 C 
ENDROOT
BRANCH   4   6
ATOM      6  N   UNL     1     -11.244  -2.037  20.643  0.00  0.00    -0.234 N 
ATOM      7  C   UNL     1     -10.186  -1.025  20.470  0.00  0.00    +0.167 C 
ATOM      8  N   UNL     1      -8.950  -1.734  20.266  0.00  0.00    -0.197 NA
ATOM      9  C   UNL     1      -8.154  -1.605  21.446  0.00  0.00    +0.111 C 
ATOM     10  C   UNL     1      -9.020  -1.068  22.545  0.00  0.00    +0.100 C 
ATOM     11  C   UNL     1     -10.097  -0.315  21.776  0.00  0.00    +0.079 C 
ATOM     12  C   UNL     1     -11.437  -0.529  22.377  0.00  0.00    -0.003 C 
ATOM     13  C   UNL     1     -12.058  -1.532  21.692  0.00  0.00    +0.060 C 
ATOM     14  C   UNL     1     -13.345  -1.906  22.092  0.00  0.00    +0.016 C 
ATOM     15  C   UNL     1     -13.966  -1.277  23.150  0.00  0.00    +0.001 C 
ATOM     16  C   UNL     1     -13.307  -0.267  23.820  0.00  0.00    -0.000 C 
ATOM     17  C   UNL     1     -12.042   0.126  23.453  0.00  0.00    -0.003 C 
BRANCH  10  18
ATOM     18  N   UNL     1      -8.293  -0.177  23.421  0.00  0.00    -0.279 N 
ATOM     19  C   UNL     1      -7.292   0.757  23.022  0.00  0.00    +0.094 C 
ATOM     20  C   UNL     1      -6.944   1.584  24.238  0.00  0.00    +0.031 C 
ATOM     21  C   UNL     1      -7.474   0.845  25.428  0.00  0.00    +0.087 C 
ATOM     22  C   UNL     1      -8.461  -0.086  24.825  0.00  0.00    +0.226 C 
ATOM     23  O   UNL     1      -9.337  -0.722  25.463  0.00  0.00    -0.275 OA
ENDBRANCH  10  18
ENDBRANCH   4   6
BRANCH   1  24
ATOM     24  N   UNL     1     -10.114  -6.536  19.729  0.00  0.00    -0.245 N 
ATOM     25  C   UNL     1      -9.232  -7.158  20.533  0.00  0.00    +0.159 C 
ATOM     26  N   UNL     1      -8.207  -6.726  21.321  0.00  0.00    -0.207 NA
ATOM     27  C   UNL     1      -7.452  -7.559  22.048  0.00  0.00    +0.201 C 
ATOM     28  N   UNL     1      -7.701  -8.875  22.011  0.00  0.00    -0.208 NA
ATOM     29  C   UNL     1      -8.692  -9.389  21.261  0.00  0.00    +0.148 C 
ATOM     30  C   UNL     1      -9.458  -8.520  20.521  0.00  0.00    +0.146 C 
ATOM     31  N   UNL     1     -10.500  -8.707  19.687  0.00  0.00    -0.222 NA
ATOM     32  C   UNL     1     -10.886  -7.503  19.217  0.00  0.00    +0.170 C 
BRANCH  29  33
ATOM     33  N   UNL     1      -8.928 -10.779  21.244  0.00  0.00    -0.341 N 
ATOM     34  H   UNL     1      -8.365 -11.380  21.783  0.00  0.00    +0.144 HD
ATOM     35  H   UNL     1      -9.656 -11.148  20.693  0.00  0.00    +0.144 HD
ENDBRANCH  29  33
ENDBRANCH   1  24
BRANCH   3  36
ATOM     36  N   UNL     1     -13.230  -3.140  18.398  0.00  0.00    -0.251 NA
ATOM     37  C   UNL     1     -13.437  -2.528  17.075  0.00  0.00    +0.074 C 
ATOM     38  C   UNL     1     -14.763  -3.012  16.583  0.00  0.00    +0.019 C 
ATOM     39  C   UNL     1     -15.114  -4.178  17.450  0.00  0.00    +0.019 C 
ATOM     40  C   UNL     1     -13.824  -4.429  18.211  0.00  0.00    +0.074 C 
ENDBRANCH   3  36
TORSDOF 5
