REMARK  Name = =
REMARK  5 active torsions:
REMARK  status: ('A' for Active; 'I' for Inactive)
REMARK    1  A    between atoms: C_8  and  C_13
REMARK    2  A    between atoms: C_8  and  C_20
REMARK    3  A    between atoms: C_20  and  C_32
REMARK    4  A    between atoms: C_26  and  S_27
REMARK    5  A    between atoms: C_32  and  O_34
REMARK                            x       y       z     vdW  Elec       q    Type
REMARK                         _______ _______ _______ _____ _____    ______ ____
ROOT
ATOM      1  C   UNL     1       2.609  -5.078  23.049  0.00  0.00    +0.160 C 
ATOM      2  N   UNL     1       1.585  -5.851  22.667  0.00  0.00    -0.132 NA
ATOM      3  N   UNL     1       1.086  -5.908  21.470  0.00  0.00    -0.145 NA
ATOM      4  C   UNL     1       1.571  -5.170  20.470  0.00  0.00    +0.122 C 
ATOM      5  C   UNL     1       2.632  -4.332  20.744  0.00  0.00    +0.025 C 
ATOM      6  C   UNL     1       3.132  -4.300  22.028  0.00  0.00    +0.038 C 
ATOM      7  N   UNL     1       3.107  -5.047  24.383  0.00  0.00    -0.225 N 
ATOM      8  C   UNL     1       3.956  -5.812  25.210  0.00  0.00    +0.121 C 
ATOM      9  C   UNL     1       4.720  -4.534  25.792  0.00  0.00    +0.113 C 
ATOM     10  N   UNL     1       3.661  -3.633  26.165  0.00  0.00    -0.287 N 
ATOM     11  C   UNL     1       2.659  -3.919  25.182  0.00  0.00    +0.309 C 
ATOM     12  O   UNL     1       1.587  -3.266  25.076  0.00  0.00    -0.252 OA
ATOM     13  H   UNL     1       3.633  -2.986  26.906  0.00  0.00    +0.151 HD
ENDROOT
BRANCH   8  14
ATOM     14  C   UNL     1       5.133  -6.507  24.685  0.00  0.00    +0.022 C 
ATOM     15  C   UNL     1       5.132  -7.468  23.611  0.00  0.00    +0.002 C 
ATOM     16  C   UNL     1       6.452  -7.296  22.817  0.00  0.00    +0.000 C 
ATOM     17  C   UNL     1       6.532  -5.779  22.842  0.00  0.00    +0.000 C 
ATOM     18  C   UNL     1       6.345  -5.617  24.357  0.00  0.00    +0.002 C 
ATOM     19  C   UNL     1       7.629  -6.385  24.755  0.00  0.00    +0.000 C 
ATOM     20  C   UNL     1       7.541  -7.615  23.853  0.00  0.00    +0.000 C 
ENDBRANCH   8  14
BRANCH   8  21
ATOM     21  C   UNL     1       3.208  -6.433  26.376  0.00  0.00    +0.184 C 
ATOM     22  O   UNL     1       2.819  -5.261  27.126  0.00  0.00    -0.451 OA
ATOM     23  C   UNL     1       1.746  -4.950  27.815  0.00  0.00    +0.317 C 
ATOM     24  O   UNL     1       1.712  -4.005  28.633  0.00  0.00    -0.250 OA
ATOM     25  C   UNL     1       0.455  -5.717  27.673  0.00  0.00    +0.111 C 
ATOM     26  C   UNL     1       0.951  -7.090  27.268  0.00  0.00    +0.024 C 
ATOM     27  C   UNL     1       1.884  -7.042  26.048  0.00  0.00    +0.071 C 
BRANCH  27  28
ATOM     28  S   UNL     1       1.684  -8.534  25.335  0.00  0.00    -0.209 S 
ATOM     29  C   UNL     1       1.495  -9.034  23.678  0.00  0.00    +0.055 C 
ATOM     30  C   UNL     1       0.804 -10.378  23.909  0.00  0.00    +0.079 C 
ATOM     31  N   UNL     1      -0.266 -10.164  24.790  0.00  0.00    -0.289 NA
ATOM     32  C   UNL     1       0.043  -9.284  25.832  0.00  0.00    +0.108 C 
ATOM     33  H   UNL     1       2.954  -8.839  25.714  0.00  0.00    +0.085 HD
ATOM     34  H   UNL     1      -0.538 -11.061  25.193  0.00  0.00    +0.124 HD
ENDBRANCH  27  28
BRANCH  21  35
ATOM     35  C   UNL     1       3.984  -7.198  27.372  0.00  0.00    +0.149 C 
ATOM     36  C   UNL     1       4.486  -8.559  27.005  0.00  0.00    +0.036 C 
BRANCH  35  37
ATOM     37  O   UNL     1       4.978  -6.446  28.029  0.00  0.00    -0.381 OA
ATOM     38  H   UNL     1       4.625  -5.571  28.254  0.00  0.00    +0.210 HD
ENDBRANCH  35  37
ENDBRANCH  21  35
ENDBRANCH   8  21
TORSDOF 5
