REMARK  Name = =
REMARK  7 active torsions:
REMARK  status: ('A' for Active; 'I' for Inactive)
REMARK    1  A    between atoms: C_1  and  C_15
REMARK    2  A    between atoms: C_1  and  C_32
REMARK    3  A    between atoms: C_7  and  S_27
REMARK    4  A    between atoms: C_15  and  C_20
REMARK    5  A    between atoms: C_32  and  S_34
REMARK    6  A    between atoms: C_32  and  O_38
REMARK    7  A    between atoms: S_34  and  N_37
REMARK                            x       y       z     vdW  Elec       q    Type
REMARK                         _______ _______ _______ _____ _____    ______ ____
ROOT
ATOM      1  C   UNL     1       4.695  -6.721  25.599  0.00  0.00    +0.203 C 
ATOM      2  O   UNL     1       4.812  -5.639  26.604  0.00  0.00    -0.449 OA
ATOM      3  C   UNL     1       3.798  -5.309  27.461  0.00  0.00    +0.317 C 
ATOM      4  O   UNL     1       3.863  -5.282  28.724  0.00  0.00    -0.250 OA
ATOM      5  C   UNL     1       2.485  -4.941  26.888  0.00  0.00    +0.111 C 
ATOM      6  C   UNL     1       2.281  -5.908  25.713  0.00  0.00    +0.024 C 
ATOM      7  C   UNL     1       3.232  -7.085  25.804  0.00  0.00    +0.073 C 
ENDROOT
BRANCH   1  15
ATOM      8  C   UNL     1       3.473  -5.843  22.258  0.00  0.00    +0.160 C 
ATOM      9  N   UNL     1       2.492  -5.112  22.781  0.00  0.00    -0.132 NA
ATOM     10  N   UNL     1       1.600  -4.450  22.058  0.00  0.00    -0.145 NA
ATOM     11  C   UNL     1       1.623  -4.469  20.714  0.00  0.00    +0.122 C 
ATOM     12  C   UNL     1       2.600  -5.198  20.081  0.00  0.00    +0.025 C 
ATOM     13  C   UNL     1       3.504  -5.869  20.873  0.00  0.00    +0.038 C 
ATOM     14  N   UNL     1       4.383  -6.508  23.112  0.00  0.00    -0.225 N 
ATOM     15  C   UNL     1       5.082  -6.078  24.340  0.00  0.00    +0.123 C 
ATOM     16  C   UNL     1       6.412  -6.806  23.783  0.00  0.00    +0.113 C 
ATOM     17  N   UNL     1       6.068  -8.070  23.350  0.00  0.00    -0.287 N 
ATOM     18  C   UNL     1       4.767  -7.833  22.749  0.00  0.00    +0.309 C 
ATOM     19  O   UNL     1       4.160  -8.694  22.048  0.00  0.00    -0.252 OA
ATOM     20  H   UNL     1       6.572  -8.912  23.428  0.00  0.00    +0.151 HD
BRANCH  15  21
ATOM     21  C   UNL     1       5.534  -4.688  24.240  0.00  0.00    +0.022 C 
ATOM     22  C   UNL     1       6.736  -4.029  24.643  0.00  0.00    +0.002 C 
ATOM     23  C   UNL     1       6.590  -2.659  23.904  0.00  0.00    +0.000 C 
ATOM     24  C   UNL     1       5.206  -2.704  23.215  0.00  0.00    +0.000 C 
ATOM     25  C   UNL     1       4.575  -3.534  24.397  0.00  0.00    +0.002 C 
ATOM     26  C   UNL     1       4.881  -2.509  25.440  0.00  0.00    +0.000 C 
ATOM     27  C   UNL     1       6.084  -1.671  24.976  0.00  0.00    +0.000 C 
ENDBRANCH  15  21
ENDBRANCH   1  15
BRANCH   7  28
ATOM     28  S   UNL     1       2.583  -8.492  25.316  0.00  0.00    -0.209 S 
ATOM     29  C   UNL     1       1.243  -9.127  26.699  0.00  0.00    +0.055 C 
ATOM     30  C   UNL     1       1.003 -10.398  25.971  0.00  0.00    +0.079 C 
ATOM     31  N   UNL     1       0.994 -10.255  24.578  0.00  0.00    -0.289 NA
ATOM     32  C   UNL     1       1.337  -8.929  24.139  0.00  0.00    +0.108 C 
ATOM     33  H   UNL     1       3.820  -8.884  24.910  0.00  0.00    +0.085 HD
ATOM     34  H   UNL     1       0.059 -10.477  24.236  0.00  0.00    +0.124 HD
ENDBRANCH   7  28
BRANCH   1  35
ATOM     35  C   UNL     1       5.513  -7.698  26.375  0.00  0.00    +0.249 C 
ATOM     36  C   UNL     1       5.498  -9.147  26.110  0.00  0.00    +0.060 C 
BRANCH  35  37
ATOM     37  S   UNL     1       7.095  -7.237  27.036  0.00  0.00    +0.061 S 
ATOM     38  O   UNL     1       8.289  -7.652  26.252  0.00  0.00    -0.155 OA
ATOM     39  O   UNL     1       7.180  -5.890  27.612  0.00  0.00    -0.155 OA
BRANCH  37  40
ATOM     40  N   UNL     1       7.396  -8.285  28.475  0.00  0.00    -0.205 NA
ATOM     41  H   UNL     1       6.655  -8.142  29.161  0.00  0.00    +0.144 HD
ATOM     42  H   UNL     1       8.295  -8.042  28.891  0.00  0.00    +0.144 HD
ENDBRANCH  37  40
ENDBRANCH  35  37
BRANCH  35  43
ATOM     43  O   UNL     1       4.801  -7.659  27.669  0.00  0.00    -0.364 OA
ATOM     44  H   UNL     1       3.869  -7.891  27.532  0.00  0.00    +0.212 HD
ENDBRANCH  35  43
ENDBRANCH   1  35
TORSDOF 7
