REMARK  Name = =
REMARK  0 active torsions:
REMARK  status: ('A' for Active; 'I' for Inactive)
REMARK                            x       y       z     vdW  Elec       q    Type
REMARK                         _______ _______ _______ _____ _____    ______ ____
ROOT
ATOM      1  N   UNL     1      -3.800  -2.272  31.199  0.00  0.00    -0.313 N 
ATOM      2  C   UNL     1      -3.258  -3.534  30.860  0.00  0.00    +0.301 C 
ATOM      3  O   UNL     1      -2.679  -3.645  29.756  0.00  0.00    -0.253 OA
ATOM      4  N   UNL     1      -3.349  -4.635  31.706  0.00  0.00    -0.259 N 
ATOM      5  C   UNL     1      -2.788  -5.887  31.322  0.00  0.00    +0.127 C 
ATOM      6  C   UNL     1      -3.706  -7.003  31.727  0.00  0.00    +0.164 C 
ATOM      7  O   UNL     1      -4.190  -6.957  32.976  0.00  0.00    -0.350 OA
ATOM      8  C   UNL     1      -4.079  -5.840  33.711  0.00  0.00    +0.164 C 
ATOM      9  C   UNL     1      -4.011  -4.537  32.986  0.00  0.00    +0.127 C 
ATOM     10  H   UNL     1      -4.262  -2.150  32.060  0.00  0.00    +0.146 HD
ATOM     11  H   UNL     1      -3.715  -1.516  30.574  0.00  0.00    +0.146 HD
ENDROOT
TORSDOF 0
