MODEL 1
REMARK VINA RESULT:    -9.383      0.000      0.000
REMARK INTER + INTRA:         -13.190
REMARK INTER:                 -11.577
REMARK INTRA:                  -1.613
REMARK UNBOUND:                -1.613
REMARK  Name = =
REMARK  4 active torsions:
REMARK  status: ('A' for Active; 'I' for Inactive)
REMARK    1  A    between atoms: C_1  and  C_31
REMARK    2  A    between atoms: C_8  and  C_37
REMARK    3  A    between atoms: C_10  and  C_11
REMARK    4  A    between atoms: C_10  and  C_20
REMARK                            x       y       z     vdW  Elec       q    Type
REMARK                         _______ _______ _______ _____ _____    ______ ____
ROOT
ATOM      1  C   UNL     1       0.870  -6.926  28.540  0.00  0.00    +0.012 C 
ATOM      2  C   UNL     1       0.344  -7.571  29.758  0.00  0.00    +0.001 C 
ATOM      3  C   UNL     1      -1.098  -8.005  29.650  0.00  0.00    +0.000 C 
ATOM      4  C   UNL     1      -1.961  -7.344  30.735  0.00  0.00    +0.000 C 
ATOM      5  C   UNL     1      -1.437  -7.677  32.114  0.00  0.00    +0.000 C 
ATOM      6  C   UNL     1       0.039  -7.464  32.164  0.00  0.00    +0.000 C 
ATOM      7  C   UNL     1       0.449  -6.648  30.945  0.00  0.00    +0.009 C 
ATOM      8  C   UNL     1       1.938  -6.402  31.075  0.00  0.00    +0.078 C 
ATOM      9  C   UNL     1       2.493  -5.607  29.961  0.00  0.00    +0.017 C 
ATOM     10  C   UNL     1       1.775  -5.743  28.643  0.00  0.00    +0.040 C 
ENDROOT
BRANCH  10  11
ATOM     11  C   UNL     1       2.853  -5.674  27.641  0.00  0.00    -0.018 C 
ATOM     12  C   UNL     1       2.719  -5.514  26.295  0.00  0.00    +0.012 C 
ATOM     13  C   UNL     1       3.781  -5.447  25.403  0.00  0.00    +0.059 C 
ATOM     14  N   UNL     1       3.850  -5.288  23.988  0.00  0.00    -0.315 N 
ATOM     15  C   UNL     1       5.209  -4.924  23.646  0.00  0.00    +0.182 C 
ATOM     16  N   UNL     1       5.942  -5.448  24.781  0.00  0.00    -0.315 N 
ATOM     17  C   UNL     1       5.052  -5.546  25.912  0.00  0.00    +0.059 C 
ATOM     18  C   UNL     1       5.241  -5.704  27.258  0.00  0.00    +0.015 C 
ATOM     19  C   UNL     1       4.155  -5.765  28.101  0.00  0.00    -0.003 C 
ATOM     20  H   UNL     1       3.105  -5.405  23.355  0.00  0.00    +0.148 HD
ATOM     21  H   UNL     1       6.895  -5.697  24.780  0.00  0.00    +0.148 HD
ENDBRANCH  10  11
BRANCH  10  22
ATOM     22  C   UNL     1       0.893  -4.534  28.489  0.00  0.00    -0.003 C 
ATOM     23  C   UNL     1      -0.478  -4.456  28.517  0.00  0.00    +0.068 C 
ATOM     24  N   UNL     1      -0.888  -3.175  28.365  0.00  0.00    -0.229 N 
ATOM     25  C   UNL     1       0.194  -2.379  28.233  0.00  0.00    +0.058 C 
ATOM     26  C   UNL     1       1.301  -3.220  28.309  0.00  0.00    +0.012 C 
ATOM     27  C   UNL     1       2.520  -2.579  28.171  0.00  0.00    +0.001 C 
ATOM     28  C   UNL     1       2.661  -1.225  27.975  0.00  0.00    +0.000 C 
ATOM     29  C   UNL     1       1.553  -0.433  27.906  0.00  0.00    +0.001 C 
ATOM     30  C   UNL     1       0.323  -1.013  28.036  0.00  0.00    +0.015 C 
ATOM     31  C   UNL     1      -2.233  -2.695  28.341  0.00  0.00    +0.311 C 
ATOM     32  O   UNL     1      -3.179  -3.514  28.472  0.00  0.00    -0.264 OA
ENDBRANCH  10  22
BRANCH   1  33
ATOM     33  C   UNL     1       1.145  -7.959  27.496  0.00  0.00    +0.030 C 
ATOM     34  C   UNL     1       1.380  -9.347  27.966  0.00  0.00    +0.073 C 
ATOM     35  C   UNL     1       0.326 -10.194  27.332  0.00  0.00    +0.173 C 
ATOM     36  O   UNL     1       0.100 -11.397  27.522  0.00  0.00    -0.291 OA
ATOM     37  C   UNL     1      -0.404  -9.327  26.429  0.00  0.00    +0.033 C 
ATOM     38  C   UNL     1       0.029  -8.102  26.504  0.00  0.00    -0.023 C 
ENDBRANCH   1  33
BRANCH   8  39
ATOM     39  C   UNL     1       2.230  -5.893  32.429  0.00  0.00    +0.228 C 
ATOM     40  O   UNL     1       2.321  -6.717  33.409  0.00  0.00    -0.275 OA
ATOM     41  N   UNL     1       2.424  -4.515  32.725  0.00  0.00    -0.248 N 
ATOM     42  C   UNL     1       2.713  -4.110  34.057  0.00  0.00    +0.306 C 
ATOM     43  O   UNL     1       2.792  -4.972  34.961  0.00  0.00    -0.265 OA
ATOM     44  H   UNL     1       2.360  -3.843  32.008  0.00  0.00    +0.158 HD
ENDBRANCH   8  39
TORSDOF 4
ENDMDL
