REMARK  Name = =
REMARK  2 active torsions:
REMARK  status: ('A' for Active; 'I' for Inactive)
REMARK    1  A    between atoms: C_1  and  C_7
REMARK    2  A    between atoms: C_3  and  O_10
REMARK                            x       y       z     vdW  Elec       q    Type
REMARK                         _______ _______ _______ _____ _____    ______ ____
ROOT
ATOM      1  C   UNL     1      52.920 156.026  27.043  0.00  0.00    +0.056 C 
ATOM      2  C   UNL     1      52.265 155.199  27.906  0.00  0.00    +0.041 C 
ATOM      3  C   UNL     1      51.852 155.592  29.173  0.00  0.00    +0.134 C 
ATOM      4  C   UNL     1      52.127 156.885  29.558  0.00  0.00    +0.037 C 
ATOM      5  C   UNL     1      52.789 157.732  28.692  0.00  0.00    +0.003 C 
ATOM      6  C   UNL     1      53.191 157.317  27.433  0.00  0.00    +0.005 C 
ENDROOT
BRANCH   1   7
ATOM      7  C   UNL     1      53.343 155.577  25.707  0.00  0.00    +0.243 C 
ATOM      8  O   UNL     1      53.502 156.410  24.783  0.00  0.00    -0.270 OA
ATOM      9  N   UNL     1      53.567 154.190  25.485  0.00  0.00    -0.325 N 
ATOM     10  H   UNL     1      53.438 153.547  26.219  0.00  0.00    +0.145 HD
ATOM     11  H   UNL     1      53.851 153.873  24.597  0.00  0.00    +0.145 HD
ENDBRANCH   1   7
BRANCH   3  12
ATOM     12  O   UNL     1      51.187 154.717  30.027  0.00  0.00    -0.506 OA
ATOM     13  H   UNL     1      51.007 153.840  29.751  0.00  0.00    +0.292 HD
ENDBRANCH   3  12
TORSDOF 2
