REMARK  Name = =
REMARK  5 active torsions:
REMARK  status: ('A' for Active; 'I' for Inactive)
REMARK    1  A    between atoms: C_1  and  C_4
REMARK    2  A    between atoms: N_3  and  S_11
REMARK    3  A    between atoms: C_6  and  O_10
REMARK    4  A    between atoms: S_11  and  C_12
REMARK    5  A    between atoms: C_12  and  O_14
REMARK                            x       y       z     vdW  Elec       q    Type
REMARK                         _______ _______ _______ _____ _____    ______ ____
ROOT
ATOM      1  C   UNL     1      52.231 154.287  26.906  0.00  0.00    +0.255 C 
ATOM      2  O   UNL     1      52.594 154.537  25.729  0.00  0.00    -0.269 OA
ATOM      3  N   UNL     1      52.084 152.907  27.232  0.00  0.00    -0.249 N 
ATOM      4  H   UNL     1      51.804 152.686  28.149  0.00  0.00    +0.163 HD
ENDROOT
BRANCH   1   5
ATOM      5  C   UNL     1      51.971 155.320  27.895  0.00  0.00    +0.057 C 
ATOM      6  C   UNL     1      52.853 156.379  28.089  0.00  0.00    +0.041 C 
ATOM      7  C   UNL     1      52.592 157.359  29.012  0.00  0.00    +0.134 C 
ATOM      8  C   UNL     1      51.459 157.341  29.783  0.00  0.00    +0.037 C 
ATOM      9  C   UNL     1      50.570 156.318  29.624  0.00  0.00    +0.003 C 
ATOM     10  C   UNL     1      50.844 155.320  28.675  0.00  0.00    +0.005 C 
BRANCH   7  11
ATOM     11  O   UNL     1      53.465 158.442  29.228  0.00  0.00    -0.506 OA
ATOM     12  H   UNL     1      54.257 158.511  28.732  0.00  0.00    +0.292 HD
ENDBRANCH   7  11
ENDBRANCH   1   5
BRANCH   3  13
ATOM     13  S   UNL     1      52.361 151.581  26.136  0.00  0.00    +0.024 S 
BRANCH  13  14
ATOM     14  C   UNL     1      53.987 151.587  25.417  0.00  0.00    +0.217 C 
ATOM     15  S   UNL     1      54.996 152.802  25.804  0.00  0.00    -0.003 S 
BRANCH  14  16
ATOM     16  O   UNL     1      54.423 150.616  24.552  0.00  0.00    -0.495 OA
ATOM     17  H   UNL     1      55.289 150.659  24.197  0.00  0.00    +0.293 HD
ENDBRANCH  14  16
ENDBRANCH  13  14
ENDBRANCH   3  13
TORSDOF 5
