REMARK  Name = =
REMARK  6 active torsions:
REMARK  status: ('A' for Active; 'I' for Inactive)
REMARK    1  A    between atoms: C_1  and  C_4
REMARK    2  A    between atoms: N_3  and  S_11
REMARK    3  A    between atoms: C_6  and  O_10
REMARK    4  A    between atoms: S_11  and  C_12
REMARK    5  A    between atoms: C_12  and  O_14
REMARK    6  A    between atoms: O_14  and  N_15
REMARK                            x       y       z     vdW  Elec       q    Type
REMARK                         _______ _______ _______ _____ _____    ______ ____
ROOT
ATOM      1  C   UNL     1      51.713 154.811  27.783  0.00  0.00    +0.255 C 
ATOM      2  O   UNL     1      50.619 154.182  27.759  0.00  0.00    -0.269 OA
ATOM      3  N   UNL     1      52.806 154.221  27.093  0.00  0.00    -0.249 N 
ATOM      4  H   UNL     1      53.680 154.674  27.087  0.00  0.00    +0.163 HD
ENDROOT
BRANCH   1   5
ATOM      5  C   UNL     1      51.818 156.082  28.496  0.00  0.00    +0.057 C 
ATOM      6  C   UNL     1      50.999 156.382  29.564  0.00  0.00    +0.041 C 
ATOM      7  C   UNL     1      51.088 157.598  30.251  0.00  0.00    +0.134 C 
ATOM      8  C   UNL     1      52.025 158.526  29.848  0.00  0.00    +0.037 C 
ATOM      9  C   UNL     1      52.848 158.241  28.786  0.00  0.00    +0.003 C 
ATOM     10  C   UNL     1      52.746 157.054  28.132  0.00  0.00    +0.005 C 
BRANCH   7  11
ATOM     11  O   UNL     1      50.253 157.874  31.318  0.00  0.00    -0.506 OA
ATOM     12  H   UNL     1      49.617 157.242  31.591  0.00  0.00    +0.292 HD
ENDBRANCH   7  11
ENDBRANCH   1   5
BRANCH   3  13
ATOM     13  S   UNL     1      52.611 152.674  26.241  0.00  0.00    +0.026 S 
BRANCH  13  14
ATOM     14  C   UNL     1      54.214 152.043  25.822  0.00  0.00    +0.244 C 
ATOM     15  S   UNL     1      55.528 152.979  25.972  0.00  0.00    -0.000 S 
BRANCH  14  16
ATOM     16  O   UNL     1      54.344 150.752  25.366  0.00  0.00    -0.386 OA
BRANCH  16  17
ATOM     17  N   UNL     1      53.280 150.157  24.731  0.00  0.00    -0.117 NA
ATOM     18  C   UNL     1      53.824 149.298  23.698  0.00  0.00    +0.132 C 
ATOM     19  C   UNL     1      54.891 148.440  24.391  0.00  0.00    +0.110 C 
ATOM     20  N   UNL     1      54.236 147.708  25.419  0.00  0.00    -0.215 NA
ATOM     21  C   UNL     1      52.836 147.918  25.627  0.00  0.00    +0.110 C 
ATOM     22  C   UNL     1      52.580 149.389  25.746  0.00  0.00    +0.132 C 
ENDBRANCH  16  17
ENDBRANCH  14  16
ENDBRANCH  13  14
ENDBRANCH   3  13
TORSDOF 6
