MODEL 1
REMARK VINA RESULT:    -9.199      0.000      0.000
REMARK INTER + INTRA:         -10.851
REMARK INTER:                 -10.274
REMARK INTRA:                  -0.577
REMARK UNBOUND:                -0.577
REMARK  Name = =
REMARK  2 active torsions:
REMARK  status: ('A' for Active; 'I' for Inactive)
REMARK    1  A    between atoms: C_2  and  N_28
REMARK    2  A    between atoms: C_29  and  C_31
REMARK                            x       y       z     vdW  Elec       q    Type
REMARK                         _______ _______ _______ _____ _____    ______ ____
ROOT
ATOM      1  C   UNL     1      55.931 164.310  41.351  0.00  0.00    +0.009 C 
ATOM      2  C   UNL     1      54.910 165.192  41.004  0.00  0.00    +0.066 C 
ATOM      3  C   UNL     1      55.111 166.553  40.901  0.00  0.00    +0.094 C 
ATOM      4  N   UNL     1      54.118 167.402  40.565  0.00  0.00    -0.243 NA
ATOM      5  C   UNL     1      54.288 168.734  40.458  0.00  0.00    +0.099 C 
ATOM      6  C   UNL     1      55.531 169.295  40.700  0.00  0.00    +0.021 C 
ATOM      7  C   UNL     1      56.572 168.469  41.045  0.00  0.00    +0.003 C 
ATOM      8  C   UNL     1      56.350 167.106  41.142  0.00  0.00    +0.019 C 
ATOM      9  C   UNL     1      57.376 166.235  41.490  0.00  0.00    -0.001 C 
ATOM     10  C   UNL     1      57.167 164.872  41.591  0.00  0.00    +0.001 C 
ATOM     11  N   UNL     1      56.851 162.044  41.124  0.00  0.00    -0.273 N 
ATOM     12  C   UNL     1      55.697 162.870  41.442  0.00  0.00    +0.099 C 
ATOM     13  C   UNL     1      55.310 162.442  42.859  0.00  0.00    +0.025 C 
ATOM     14  C   UNL     1      54.969 160.979  42.837  0.00  0.00    +0.012 C 
ATOM     15  C   UNL     1      55.159 160.313  41.501  0.00  0.00    +0.085 C 
ATOM     16  C   UNL     1      56.525 160.642  40.990  0.00  0.00    +0.226 C 
ATOM     17  O   UNL     1      57.320 159.822  40.499  0.00  0.00    -0.275 OA
ATOM     18  C   UNL     1      58.165 162.471  40.964  0.00  0.00    +0.126 C 
ATOM     19  C   UNL     1      59.101 161.688  40.292  0.00  0.00    +0.018 C 
ATOM     20  C   UNL     1      60.406 162.094  40.114  0.00  0.00    +0.114 C 
ATOM     21  C   UNL     1      60.830 163.312  40.607  0.00  0.00    +0.176 C 
ATOM     22  N   UNL     1      59.915 164.061  41.258  0.00  0.00    -0.247 NA
ATOM     23  C   UNL     1      58.632 163.675  41.439  0.00  0.00    +0.149 C 
ATOM     24  N   UNL     1      62.105 163.719  40.436  0.00  0.00    -0.222 NA
ATOM     25  C   UNL     1      63.017 162.971  39.786  0.00  0.00    +0.121 C 
ATOM     26  C   UNL     1      62.590 161.748  39.290  0.00  0.00    +0.120 C 
ATOM     27  N   UNL     1      61.319 161.341  39.461  0.00  0.00    -0.239 NA
ENDROOT
BRANCH   2  28
ATOM     28  N   UNL     1      53.635 164.620  40.777  0.00  0.00    -0.278 N 
ATOM     29  C   UNL     1      52.686 164.636  41.822  0.00  0.00    +0.267 C 
ATOM     30  O   UNL     1      53.016 165.166  42.915  0.00  0.00    -0.268 OA
ATOM     31  H   UNL     1      53.415 164.219  39.905  0.00  0.00    +0.155 HD
BRANCH  29  32
ATOM     32  C   UNL     1      51.352 164.068  41.694  0.00  0.00    +0.135 C 
ATOM     33  N   UNL     1      50.278 164.882  41.532  0.00  0.00    -0.241 NA
ATOM     34  C   UNL     1      49.036 164.385  41.423  0.00  0.00    +0.081 C 
ATOM     35  C   UNL     1      48.780 163.030  41.469  0.00  0.00    +0.018 C 
ATOM     36  C   UNL     1      49.844 162.196  41.630  0.00  0.00    +0.003 C 
ATOM     37  C   UNL     1      51.102 162.720  41.739  0.00  0.00    +0.024 C 
ATOM     38  C   UNL     1      47.502 162.507  41.358  0.00  0.00    +0.001 C 
ATOM     39  C   UNL     1      46.438 163.380  41.195  0.00  0.00    +0.000 C 
ATOM     40  C   UNL     1      46.694 164.733  41.150  0.00  0.00    +0.002 C 
ATOM     41  C   UNL     1      47.961 165.241  41.259  0.00  0.00    +0.019 C 
ENDBRANCH  29  32
ENDBRANCH   2  28
TORSDOF 2
ENDMDL
