REMARK  Name = =
REMARK  0 active torsions:
REMARK  status: ('A' for Active; 'I' for Inactive)
REMARK                            x       y       z     vdW  Elec       q    Type
REMARK                         _______ _______ _______ _____ _____    ______ ____
ROOT
ATOM      1  N   UNL     1      50.857 155.594  28.227  0.00  0.00    -0.295 N 
ATOM      2  C   UNL     1      51.602 156.126  29.208  0.00  0.00    +0.164 C 
ATOM      3  N   UNL     1      52.783 155.504  29.198  0.00  0.00    -0.226 NA
ATOM      4  C   UNL     1      52.817 154.572  28.221  0.00  0.00    +0.096 C 
ATOM      5  C   UNL     1      53.765 153.668  27.781  0.00  0.00    +0.020 C 
ATOM      6  C   UNL     1      53.539 152.798  26.726  0.00  0.00    +0.002 C 
ATOM      7  C   UNL     1      52.298 152.880  26.123  0.00  0.00    +0.001 C 
ATOM      8  C   UNL     1      51.333 153.774  26.545  0.00  0.00    +0.016 C 
ATOM      9  C   UNL     1      51.591 154.633  27.605  0.00  0.00    +0.067 C 
ATOM     10  H   UNL     1      49.936 155.855  27.997  0.00  0.00    +0.154 HD
ENDROOT
TORSDOF 0
