REMARK  Name = =
REMARK  0 active torsions:
REMARK  status: ('A' for Active; 'I' for Inactive)
REMARK                            x       y       z     vdW  Elec       q    Type
REMARK                         _______ _______ _______ _____ _____    ______ ____
ROOT
ATOM      1  C   UNL     1      50.632 155.462  29.967  0.00  0.00    -0.004 C 
ATOM      2  C   UNL     1      50.619 156.823  29.744  0.00  0.00    -0.021 C 
ATOM      3  C   UNL     1      51.699 157.478  29.188  0.00  0.00    -0.021 C 
ATOM      4  C   UNL     1      52.794 156.708  28.865  0.00  0.00    -0.004 C 
ATOM      5  C   UNL     1      52.818 155.343  29.084  0.00  0.00    -0.000 C 
ATOM      6  C   UNL     1      51.734 154.694  29.640  0.00  0.00    -0.000 C 
ATOM      7  C   UNL     1      51.650 158.954  28.961  0.00  0.00    +0.052 C 
ATOM      8  C   UNL     1      51.040 159.534  30.200  0.00  0.00    -0.021 C 
ATOM      9  C   UNL     1      49.956 158.880  30.746  0.00  0.00    -0.021 C 
ATOM     10  C   UNL     1      49.373 159.387  31.886  0.00  0.00    -0.004 C 
ATOM     11  C   UNL     1      49.886 160.532  32.448  0.00  0.00    -0.000 C 
ATOM     12  C   UNL     1      50.974 161.183  31.894  0.00  0.00    -0.000 C 
ATOM     13  C   UNL     1      51.565 160.689  30.759  0.00  0.00    -0.004 C 
ATOM     14  C   UNL     1      49.420 157.628  30.104  0.00  0.00    +0.052 C 
ENDROOT
TORSDOF 0
