REMARK  Name = =
REMARK  0 active torsions:
REMARK  status: ('A' for Active; 'I' for Inactive)
REMARK                            x       y       z     vdW  Elec       q    Type
REMARK                         _______ _______ _______ _____ _____    ______ ____
ROOT
ATOM      1  O   UNL     1      50.609 155.798  29.175  0.00  0.00    -0.327 OA
ATOM      2  C   UNL     1      51.700 156.500  29.553  0.00  0.00    +0.294 C 
ATOM      3  O   UNL     1      52.787 156.488  28.751  0.00  0.00    -0.327 OA
ATOM      4  C   UNL     1      53.050 155.342  28.065  0.00  0.00    +0.148 C 
ATOM      5  C   UNL     1      51.757 154.958  27.330  0.00  0.00    +0.064 C 
ATOM      6  C   UNL     1      50.815 154.637  28.500  0.00  0.00    +0.148 C 
ENDROOT
TORSDOF 0
