REMARK  Name = =
REMARK  1 active torsions:
REMARK  status: ('A' for Active; 'I' for Inactive)
REMARK    1  A    between atoms: C_1  and  N_15
REMARK                            x       y       z     vdW  Elec       q    Type
REMARK                         _______ _______ _______ _____ _____    ______ ____
ROOT
ATOM      1  C   UNL     1      51.975 155.841  29.080  0.00  0.00    +0.045 C 
ATOM      2  C   UNL     1      51.241 156.995  29.366  0.00  0.00    -0.008 C 
ATOM      3  C   UNL     1      51.721 158.241  29.046  0.00  0.00    -0.020 C 
ATOM      4  C   UNL     1      52.957 158.349  28.431  0.00  0.00    -0.004 C 
ATOM      5  C   UNL     1      53.711 157.243  28.136  0.00  0.00    +0.001 C 
ATOM      6  C   UNL     1      53.185 155.990  28.476  0.00  0.00    +0.014 C 
ATOM      7  C   UNL     1      50.999 159.501  29.289  0.00  0.00    +0.052 C 
ATOM      8  C   UNL     1      50.057 159.278  30.405  0.00  0.00    -0.021 C 
ATOM      9  C   UNL     1      49.572 158.063  30.759  0.00  0.00    -0.021 C 
ATOM     10  C   UNL     1      48.680 157.910  31.827  0.00  0.00    -0.004 C 
ATOM     11  C   UNL     1      48.268 158.994  32.552  0.00  0.00    -0.000 C 
ATOM     12  C   UNL     1      48.754 160.223  32.201  0.00  0.00    -0.000 C 
ATOM     13  C   UNL     1      49.627 160.380  31.155  0.00  0.00    -0.004 C 
ATOM     14  C   UNL     1      49.951 156.840  30.044  0.00  0.00    +0.053 C 
ENDROOT
BRANCH   1  15
ATOM     15  N   UNL     1      51.435 154.586  29.364  0.00  0.00    -0.298 N 
ATOM     16  C   UNL     1      51.547 153.428  28.555  0.00  0.00    +0.132 C 
ATOM     17  N   UNL     1      52.185 153.317  27.408  0.00  0.00    -0.229 NA
ATOM     18  C   UNL     1      52.286 152.224  26.655  0.00  0.00    +0.100 C 
ATOM     19  C   UNL     1      51.671 151.073  27.090  0.00  0.00    +0.021 C 
ATOM     20  C   UNL     1      50.975 151.099  28.289  0.00  0.00    +0.004 C 
ATOM     21  C   UNL     1      50.912 152.262  29.016  0.00  0.00    +0.034 C 
ATOM     22  H   UNL     1      50.929 154.497  30.204  0.00  0.00    +0.154 HD
ENDBRANCH   1  15
TORSDOF 1
