REMARK  Name = =
REMARK  2 active torsions:
REMARK  status: ('A' for Active; 'I' for Inactive)
REMARK    1  A    between atoms: N_1  and  C_10
REMARK    2  A    between atoms: C_10  and  N_11
REMARK                            x       y       z     vdW  Elec       q    Type
REMARK                         _______ _______ _______ _____ _____    ______ ____
ROOT
ATOM      1  N   UNL     1      51.837 155.728  28.532  0.00  0.00    -0.253 N 
ATOM      2  C   UNL     1      52.319 156.859  27.940  0.00  0.00    +0.169 C 
ATOM      3  N   UNL     1      52.902 156.470  26.789  0.00  0.00    -0.226 NA
ATOM      4  C   UNL     1      52.793 155.137  26.656  0.00  0.00    +0.096 C 
ATOM      5  C   UNL     1      53.194 154.221  25.705  0.00  0.00    +0.020 C 
ATOM      6  C   UNL     1      52.920 152.873  25.867  0.00  0.00    +0.002 C 
ATOM      7  C   UNL     1      52.241 152.419  26.983  0.00  0.00    +0.001 C 
ATOM      8  C   UNL     1      51.837 153.322  27.937  0.00  0.00    +0.016 C 
ATOM      9  C   UNL     1      52.113 154.664  27.769  0.00  0.00    +0.072 C 
ENDROOT
BRANCH   1  10
ATOM     10  C   UNL     1      51.130 155.672  29.798  0.00  0.00    +0.189 C 
BRANCH  10  11
ATOM     11  N   UNL     1      50.642 156.997  30.130  0.00  0.00    -0.196 NA
ATOM     12  C   UNL     1      49.176 156.939  30.053  0.00  0.00    +0.109 C 
ENDBRANCH  10  11
ENDBRANCH   1  10
TORSDOF 2
