REMARK  Name = =
REMARK  5 active torsions:
REMARK  status: ('A' for Active; 'I' for Inactive)
REMARK    1  A    between atoms: N_1  and  C_10
REMARK    2  A    between atoms: C_10  and  N_11
REMARK    3  A    between atoms: C_10  and  C_13
REMARK    4  A    between atoms: C_14  and  C_15
REMARK    5  A    between atoms: C_15  and  O_17
REMARK                            x       y       z     vdW  Elec       q    Type
REMARK                         _______ _______ _______ _____ _____    ______ ____
ROOT
ATOM      1  N   UNL     1      51.728 155.839  27.857  0.00  0.00    -0.252 N 
ATOM      2  C   UNL     1      52.575 156.862  27.620  0.00  0.00    +0.169 C 
ATOM      3  N   UNL     1      53.477 156.535  26.694  0.00  0.00    -0.226 NA
ATOM      4  C   UNL     1      53.229 155.268  26.303  0.00  0.00    +0.096 C 
ATOM      5  C   UNL     1      53.798 154.398  25.403  0.00  0.00    +0.020 C 
ATOM      6  C   UNL     1      53.274 153.134  25.250  0.00  0.00    +0.002 C 
ATOM      7  C   UNL     1      52.183 152.705  25.978  0.00  0.00    +0.001 C 
ATOM      8  C   UNL     1      51.608 153.573  26.881  0.00  0.00    +0.016 C 
ATOM      9  C   UNL     1      52.140 154.836  27.027  0.00  0.00    +0.072 C 
ENDROOT
BRANCH   1  10
ATOM     10  C   UNL     1      50.619 155.789  28.779  0.00  0.00    +0.176 C 
BRANCH  10  11
ATOM     11  N   UNL     1      50.929 154.987  29.945  0.00  0.00    -0.194 NA
ATOM     12  C   UNL     1      52.313 154.660  30.065  0.00  0.00    +0.110 C 
ENDBRANCH  10  11
BRANCH  10  13
ATOM     13  C   UNL     1      50.078 157.107  29.115  0.00  0.00    +0.018 C 
ATOM     14  C   UNL     1      49.927 157.562  30.350  0.00  0.00    +0.080 C 
BRANCH  14  15
ATOM     15  C   UNL     1      49.384 158.879  30.617  0.00  0.00    +0.338 C 
ATOM     16  O   UNL     1      49.211 159.228  31.804  0.00  0.00    -0.245 OA
BRANCH  15  17
ATOM     17  O   UNL     1      49.046 159.771  29.618  0.00  0.00    -0.477 OA
ATOM     18  H   UNL     1      49.165 159.535  28.719  0.00  0.00    +0.295 HD
ENDBRANCH  15  17
ENDBRANCH  14  15
ENDBRANCH  10  13
ENDBRANCH   1  10
TORSDOF 5
