REMARK  Name = =
REMARK  2 active torsions:
REMARK  status: ('A' for Active; 'I' for Inactive)
REMARK    1  A    between atoms: C_1  and  C_19
REMARK    2  A    between atoms: C_1  and  C_24
REMARK                            x       y       z     vdW  Elec       q    Type
REMARK                         _______ _______ _______ _____ _____    ______ ____
ROOT
ATOM      1  C   UNL     1      49.803 159.129  31.421  0.00  0.00    +0.077 C 
ATOM      2  C   UNL     1      51.229 159.179  31.029  0.00  0.00    +0.010 C 
ATOM      3  C   UNL     1      51.562 158.687  29.670  0.00  0.00    +0.005 C 
ATOM      4  C   UNL     1      50.620 157.726  29.065  0.00  0.00    +0.018 C 
ATOM      5  C   UNL     1      49.701 157.047  30.017  0.00  0.00    +0.005 C 
ATOM      6  C   UNL     1      50.423 156.014  30.791  0.00  0.00    +0.005 C 
ATOM      7  C   UNL     1      50.912 154.924  29.891  0.00  0.00    +0.021 C 
ATOM      8  C   UNL     1      51.389 155.431  28.567  0.00  0.00    -0.052 C 
ATOM      9  C   UNL     1      51.252 156.702  28.203  0.00  0.00    -0.052 C 
ATOM     10  C   UNL     1      51.748 157.151  26.871  0.00  0.00    +0.021 C 
ATOM     11  C   UNL     1      53.024 156.422  26.593  0.00  0.00    +0.005 C 
ATOM     12  C   UNL     1      52.732 154.952  26.523  0.00  0.00    +0.004 C 
ATOM     13  C   UNL     1      52.026 154.402  27.699  0.00  0.00    +0.018 C 
ATOM     14  C   UNL     1      53.145 153.743  28.503  0.00  0.00    +0.004 C 
ATOM     15  C   UNL     1      53.959 153.104  27.400  0.00  0.00    +0.000 C 
ATOM     16  C   UNL     1      54.031 154.208  26.371  0.00  0.00    +0.000 C 
ATOM     17  C   UNL     1      48.977 158.070  30.810  0.00  0.00    +0.010 C 
ENDROOT
BRANCH   1  19
ATOM     18  O   UNL     1      48.869 160.694  29.843  0.00  0.00    -0.330 OA
ATOM     19  C   UNL     1      49.159 160.499  31.172  0.00  0.00    +0.239 C 
ATOM     20  O   UNL     1      47.991 160.633  31.914  0.00  0.00    -0.330 OA
ATOM     21  C   UNL     1      47.758 162.003  32.057  0.00  0.00    +0.147 C 
ATOM     22  C   UNL     1      48.353 162.794  30.918  0.00  0.00    +0.064 C 
ATOM     23  C   UNL     1      48.478 161.998  29.656  0.00  0.00    +0.147 C 
ENDBRANCH   1  19
BRANCH   1  24
ATOM     24  C   UNL     1      49.746 158.956  32.918  0.00  0.00    +0.020 C 
ATOM     25  S   UNL     1      48.881 158.000  33.539  0.00  0.00    -0.055 S 
ENDBRANCH   1  24
TORSDOF 2
