REMARK  Name = =
REMARK  7 active torsions:
REMARK  status: ('A' for Active; 'I' for Inactive)
REMARK    1  A    between atoms: C_1  and  N_3
REMARK    2  A    between atoms: C_1  and  C_11
REMARK    3  A    between atoms: C_2  and  C_8
REMARK    4  A    between atoms: N_3  and  O_7
REMARK    5  A    between atoms: C_8  and  O_10
REMARK    6  A    between atoms: C_11  and  N_12
REMARK    7  A    between atoms: C_11  and  N_21
REMARK                            x       y       z     vdW  Elec       q    Type
REMARK                         _______ _______ _______ _____ _____    ______ ____
ROOT
ATOM      1  C   UNL     1      51.555 156.921  29.217  0.00  0.00    +0.102 C 
ATOM      2  C   UNL     1      50.666 157.626  29.800  0.00  0.00    +0.098 C 
ENDROOT
BRANCH   1   3
ATOM      3  N   UNL     1      52.928 157.392  29.302  0.00  0.00    -0.135 N 
ATOM      4  C   UNL     1      53.201 158.764  29.444  0.00  0.00    +0.327 C 
ATOM      5  O   UNL     1      52.199 159.559  29.493  0.00  0.00    -0.250 OA
ATOM      6  N   UNL     1      54.527 159.266  29.531  0.00  0.00    -0.311 N 
ATOM      7  H   UNL     1      55.291 158.647  29.492  0.00  0.00    +0.147 HD
ATOM      8  H   UNL     1      54.682 160.233  29.630  0.00  0.00    +0.147 HD
BRANCH   3   9
ATOM      9  O   UNL     1      53.887 156.464  29.245  0.00  0.00    -0.287 OA
ATOM     10  H   UNL     1      53.483 155.588  29.146  0.00  0.00    +0.242 HD
ENDBRANCH   3   9
ENDBRANCH   1   3
BRANCH   2  11
ATOM     11  C   UNL     1      49.258 157.391  29.860  0.00  0.00    +0.339 C 
ATOM     12  O   UNL     1      48.471 158.297  30.382  0.00  0.00    -0.245 OA
BRANCH  11  13
ATOM     13  O   UNL     1      48.545 156.291  29.430  0.00  0.00    -0.477 OA
ATOM     14  H   UNL     1      48.992 155.568  29.036  0.00  0.00    +0.295 HD
ENDBRANCH  11  13
ENDBRANCH   2  11
BRANCH   1  15
ATOM     15  C   UNL     1      51.267 155.683  28.470  0.00  0.00    +0.193 C 
BRANCH  15  16
ATOM     16  N   UNL     1      52.095 155.600  27.261  0.00  0.00    -0.251 N 
ATOM     17  C   UNL     1      52.750 156.642  26.696  0.00  0.00    +0.169 C 
ATOM     18  N   UNL     1      53.379 156.155  25.626  0.00  0.00    -0.226 NA
ATOM     19  C   UNL     1      53.146 154.843  25.491  0.00  0.00    +0.096 C 
ATOM     20  C   UNL     1      53.548 153.901  24.582  0.00  0.00    +0.020 C 
ATOM     21  C   UNL     1      53.155 152.576  24.671  0.00  0.00    +0.002 C 
ATOM     22  C   UNL     1      52.338 152.207  25.704  0.00  0.00    +0.001 C 
ATOM     23  C   UNL     1      51.933 153.159  26.621  0.00  0.00    +0.016 C 
ATOM     24  C   UNL     1      52.319 154.498  26.548  0.00  0.00    +0.072 C 
ENDBRANCH  15  16
BRANCH  15  25
ATOM     25  N   UNL     1      51.472 154.498  29.324  0.00  0.00    -0.193 NA
ATOM     26  C   UNL     1      51.320 154.827  30.721  0.00  0.00    +0.110 C 
ENDBRANCH  15  25
ENDBRANCH   1  15
TORSDOF 7
