REMARK  Name = =
REMARK  11 active torsions:
REMARK  status: ('A' for Active; 'I' for Inactive)
REMARK    1  A    between atoms: C_1  and  N_3
REMARK    2  A    between atoms: C_1  and  C_16
REMARK    3  A    between atoms: C_2  and  C_13
REMARK    4  A    between atoms: N_3  and  O_7
REMARK    5  A    between atoms: N_6  and  S_8
REMARK    6  A    between atoms: S_8  and  P_9
REMARK    7  A    between atoms: P_9  and  O_11
REMARK    8  A    between atoms: P_9  and  O_12
REMARK    9  A    between atoms: C_13  and  O_15
REMARK   10  A    between atoms: C_16  and  N_17
REMARK   11  A    between atoms: C_16  and  N_26
REMARK                            x       y       z     vdW  Elec       q    Type
REMARK                         _______ _______ _______ _____ _____    ______ ____
ROOT
ATOM      1  C   UNL     1      53.065 154.398  27.284  0.00  0.00    +0.102 C 
ATOM      2  C   UNL     1      53.931 153.817  28.064  0.00  0.00    +0.098 C 
ENDROOT
BRANCH   1   3
ATOM      3  N   UNL     1      51.687 154.318  27.502  0.00  0.00    -0.134 N 
ATOM      4  C   UNL     1      50.972 155.174  28.394  0.00  0.00    +0.339 C 
ATOM      5  O   UNL     1      49.727 155.085  28.530  0.00  0.00    -0.249 OA
ATOM      6  N   UNL     1      51.603 156.184  29.193  0.00  0.00    -0.232 N 
ATOM      7  H   UNL     1      52.578 156.302  29.129  0.00  0.00    +0.165 HD
BRANCH   3   8
ATOM      8  O   UNL     1      50.922 153.380  26.849  0.00  0.00    -0.287 OA
ATOM      9  H   UNL     1      51.489 152.848  26.269  0.00  0.00    +0.242 HD
ENDBRANCH   3   8
BRANCH   6  10
ATOM     10  S   UNL     1      50.686 157.222  30.288  0.00  0.00    +0.065 S 
BRANCH  10  11
ATOM     11  P   UNL     1      51.334 159.222  30.168  0.00  0.00    +0.404 P 
ATOM     12  O   UNL     1      51.283 159.874  31.530  0.00  0.00    -0.245 OA
BRANCH  11  13
ATOM     13  O   UNL     1      50.310 160.087  29.151  0.00  0.00    -0.315 OA
ATOM     14  H   UNL     1      49.407 160.061  29.504  0.00  0.00    +0.221 HD
ENDBRANCH  11  13
BRANCH  11  15
ATOM     15  O   UNL     1      52.920 159.239  29.594  0.00  0.00    -0.315 OA
ATOM     16  H   UNL     1      53.488 158.734  30.197  0.00  0.00    +0.221 HD
ENDBRANCH  11  15
ENDBRANCH  10  11
ENDBRANCH   6  10
ENDBRANCH   1   3
BRANCH   2  17
ATOM     17  C   UNL     1      53.579 153.100  29.263  0.00  0.00    +0.339 C 
ATOM     18  O   UNL     1      54.472 152.425  29.882  0.00  0.00    -0.245 OA
BRANCH  17  19
ATOM     19  O   UNL     1      52.321 153.069  29.838  0.00  0.00    -0.477 OA
ATOM     20  H   UNL     1      51.613 153.539  29.443  0.00  0.00    +0.295 HD
ENDBRANCH  17  19
ENDBRANCH   2  17
BRANCH   1  21
ATOM     21  C   UNL     1      53.509 155.139  26.046  0.00  0.00    +0.193 C 
BRANCH  21  22
ATOM     22  N   UNL     1      53.964 154.258  25.014  0.00  0.00    -0.251 N 
ATOM     23  C   UNL     1      54.611 154.576  23.875  0.00  0.00    +0.169 C 
ATOM     24  N   UNL     1      54.851 153.454  23.195  0.00  0.00    -0.226 NA
ATOM     25  C   UNL     1      54.364 152.416  23.887  0.00  0.00    +0.096 C 
ATOM     26  C   UNL     1      54.335 151.045  23.654  0.00  0.00    +0.020 C 
ATOM     27  C   UNL     1      53.746 150.200  24.574  0.00  0.00    +0.002 C 
ATOM     28  C   UNL     1      53.173 150.689  25.742  0.00  0.00    +0.001 C 
ATOM     29  C   UNL     1      53.212 152.040  25.953  0.00  0.00    +0.016 C 
ATOM     30  C   UNL     1      53.800 152.922  25.042  0.00  0.00    +0.072 C 
ENDBRANCH  21  22
BRANCH  21  31
ATOM     31  N   UNL     1      52.359 155.930  25.612  0.00  0.00    -0.193 NA
ATOM     32  C   UNL     1      52.833 156.964  24.722  0.00  0.00    +0.110 C 
ENDBRANCH  21  31
ENDBRANCH   1  21
TORSDOF 11
