REMARK  Name = =
REMARK  15 active torsions:
REMARK  status: ('A' for Active; 'I' for Inactive)
REMARK    1  A    between atoms: N_1  and  O_18
REMARK    2  A    between atoms: N_1  and  C_19
REMARK    3  A    between atoms: N_4  and  S_5
REMARK    4  A    between atoms: S_5  and  P_14
REMARK    5  A    between atoms: P_6  and  C_9
REMARK    6  A    between atoms: P_6  and  O_12
REMARK    7  A    between atoms: P_6  and  O_13
REMARK    8  A    between atoms: C_9  and  O_11
REMARK    9  A    between atoms: P_14  and  O_16
REMARK   10  A    between atoms: P_14  and  O_17
REMARK   11  A    between atoms: C_19  and  C_24
REMARK   12  A    between atoms: C_20  and  C_21
REMARK   13  A    between atoms: C_21  and  O_23
REMARK   14  A    between atoms: C_24  and  N_25
REMARK   15  A    between atoms: C_24  and  N_34
REMARK                            x       y       z     vdW  Elec       q    Type
REMARK                         _______ _______ _______ _____ _____    ______ ____
ROOT
ATOM      1  C   UNL     1      51.288 157.876  29.498  0.00  0.00    +0.102 C 
ATOM      2  C   UNL     1      50.146 157.261  29.479  0.00  0.00    +0.098 C 
ENDROOT
BRANCH   1   3
ATOM      3  N   UNL     1      52.337 157.348  28.654  0.00  0.00    -0.134 N 
ATOM      4  C   UNL     1      52.142 156.253  27.767  0.00  0.00    +0.339 C 
ATOM      5  O   UNL     1      51.001 155.703  27.667  0.00  0.00    -0.249 OA
ATOM      6  N   UNL     1      53.186 155.744  26.983  0.00  0.00    -0.244 N 
ATOM      7  H   UNL     1      54.063 156.183  27.071  0.00  0.00    +0.164 HD
BRANCH   6   8
ATOM      8  S   UNL     1      53.084 154.441  25.894  0.00  0.00    -0.029 S 
ATOM      9  H   UNL     1      54.248 154.257  25.214  0.00  0.00    +0.123 HD
BRANCH   8  10
ATOM     10  P   UNL     1      52.739 152.987  27.148  0.00  0.00    +0.390 P 
ATOM     11  O   UNL     1      51.291 153.123  27.522  0.00  0.00    -0.246 OA
BRANCH  10  12
ATOM     12  O   UNL     1      53.082 151.520  26.393  0.00  0.00    -0.316 OA
ATOM     13  H   UNL     1      52.468 151.385  25.654  0.00  0.00    +0.221 HD
ENDBRANCH  10  12
BRANCH  10  14
ATOM     14  O   UNL     1      53.765 153.304  28.452  0.00  0.00    -0.316 OA
ATOM     15  H   UNL     1      53.528 154.156  28.851  0.00  0.00    +0.221 HD
ENDBRANCH  10  14
ENDBRANCH   8  10
ENDBRANCH   6   8
BRANCH   3  16
ATOM     16  O   UNL     1      53.552 157.929  28.721  0.00  0.00    -0.287 OA
ATOM     17  H   UNL     1      53.528 158.655  29.364  0.00  0.00    +0.242 HD
ENDBRANCH   3  16
ENDBRANCH   1   3
BRANCH   2  18
ATOM     18  C   UNL     1      48.953 157.551  30.232  0.00  0.00    +0.339 C 
ATOM     19  O   UNL     1      48.850 157.366  31.450  0.00  0.00    -0.245 OA
BRANCH  18  20
ATOM     20  O   UNL     1      47.858 158.077  29.501  0.00  0.00    -0.477 OA
ATOM     21  H   UNL     1      47.935 158.218  28.578  0.00  0.00    +0.295 HD
ENDBRANCH  18  20
ENDBRANCH   2  18
BRANCH   1  22
ATOM     22  C   UNL     1      51.589 159.042  30.332  0.00  0.00    +0.193 C 
BRANCH  22  23
ATOM     23  N   UNL     1      50.494 159.992  30.442  0.00  0.00    -0.251 N 
ATOM     24  C   UNL     1      49.825 160.617  29.452  0.00  0.00    +0.169 C 
ATOM     25  N   UNL     1      48.896 161.417  29.956  0.00  0.00    -0.226 NA
ATOM     26  C   UNL     1      48.938 161.332  31.313  0.00  0.00    +0.096 C 
ATOM     27  C   UNL     1      48.206 161.945  32.300  0.00  0.00    +0.020 C 
ATOM     28  C   UNL     1      48.451 161.685  33.620  0.00  0.00    +0.002 C 
ATOM     29  C   UNL     1      49.456 160.787  33.926  0.00  0.00    +0.001 C 
ATOM     30  C   UNL     1      50.182 160.180  32.934  0.00  0.00    +0.016 C 
ATOM     31  C   UNL     1      49.955 160.425  31.596  0.00  0.00    +0.072 C 
ENDBRANCH  22  23
BRANCH  22  32
ATOM     32  N   UNL     1      52.644 159.786  29.580  0.00  0.00    -0.193 NA
ATOM     33  C   UNL     1      53.095 160.933  30.329  0.00  0.00    +0.110 C 
ENDBRANCH  22  32
ENDBRANCH   1  22
TORSDOF 11
REMARK  Name = =
REMARK  15 active torsions:
REMARK  status: ('A' for Active; 'I' for Inactive)
REMARK    1  A    between atoms: N_1  and  O_18
REMARK    2  A    between atoms: N_1  and  C_19
REMARK    3  A    between atoms: N_4  and  S_5
REMARK    4  A    between atoms: S_5  and  P_14
REMARK    5  A    between atoms: P_6  and  C_9
REMARK    6  A    between atoms: P_6  and  O_12
REMARK    7  A    between atoms: P_6  and  O_13
REMARK    8  A    between atoms: C_9  and  O_11
REMARK    9  A    between atoms: P_14  and  O_16
REMARK   10  A    between atoms: P_14  and  O_17
REMARK   11  A    between atoms: C_19  and  C_24
REMARK   12  A    between atoms: C_20  and  C_21
REMARK   13  A    between atoms: C_21  and  O_23
REMARK   14  A    between atoms: C_24  and  N_25
REMARK   15  A    between atoms: C_24  and  N_34
REMARK                            x       y       z     vdW  Elec       q    Type
REMARK                         _______ _______ _______ _____ _____    ______ ____
ROOT
ATOM      1  P   UNL     1      54.136 154.030  24.891  0.00  0.00    +0.272 P 
ATOM      2  O   UNL     1      55.151 155.193  24.803  0.00  0.00    -0.158 OA
ATOM      3  H   UNL     1      53.257 153.055  24.378  0.00  0.00    +0.145 HD
ENDROOT
BRANCH   1   4
ATOM      4  C   UNL     1      54.963 152.818  25.721  0.00  0.00    +0.391 C 
ATOM      5  O   UNL     1      55.303 151.738  25.097  0.00  0.00    -0.239 OA
BRANCH   4   6
ATOM      6  O   UNL     1      55.395 152.741  27.067  0.00  0.00    -0.473 OA
ATOM      7  H   UNL     1      55.224 153.450  27.655  0.00  0.00    +0.296 HD
ENDBRANCH   4   6
ENDBRANCH   1   4
BRANCH   1   8
ATOM      8  O   UNL     1      54.487 153.075  23.569  0.00  0.00    -0.335 OA
ATOM      9  H   UNL     1      55.249 152.510  23.771  0.00  0.00    +0.218 HD
ENDBRANCH   1   8
BRANCH   1  10
ATOM     10  O   UNL     1      53.187 154.209  23.570  0.00  0.00    -0.335 OA
ATOM     11  H   UNL     1      52.512 154.883  23.746  0.00  0.00    +0.218 HD
ENDBRANCH   1  10
TORSDOF 4
