MODEL 1
REMARK VINA RESULT:    -7.513      0.000      0.000
REMARK INTER + INTRA:          -8.078
REMARK INTER:                  -9.709
REMARK INTRA:                   1.632
REMARK UNBOUND:                 1.632
REMARK  Name = =
REMARK  6 active torsions:
REMARK  status: ('A' for Active; 'I' for Inactive)
REMARK    1  A    between atoms: C_1  and  C_20
REMARK    2  A    between atoms: C_1  and  C_40
REMARK    3  A    between atoms: C_20  and  N_30
REMARK    4  A    between atoms: C_31  and  C_33
REMARK    5  A    between atoms: C_34  and  O_39
REMARK    6  A    between atoms: C_41  and  S_46
REMARK                            x       y       z     vdW  Elec       q    Type
REMARK                         _______ _______ _______ _____ _____    ______ ____
ROOT
ATOM      1  C   UNL     1      60.301 162.859  39.094  0.00  0.00    +0.070 C 
ATOM      2  C   UNL     1      60.452 164.243  38.689  0.00  0.00    +0.009 C 
ATOM      3  C   UNL     1      61.097 164.070  37.323  0.00  0.00    +0.000 C 
ATOM      4  C   UNL     1      61.119 165.233  36.462  0.00  0.00    +0.000 C 
ATOM      5  C   UNL     1      60.157 166.320  36.629  0.00  0.00    +0.000 C 
ATOM      6  C   UNL     1      60.519 167.543  35.905  0.00  0.00    +0.001 C 
ATOM      7  C   UNL     1      61.077 167.359  34.543  0.00  0.00    +0.007 C 
ATOM      8  C   UNL     1      61.957 166.175  34.371  0.00  0.00    +0.000 C 
ATOM      9  C   UNL     1      62.323 165.485  35.646  0.00  0.00    +0.000 C 
ATOM     10  C   UNL     1      61.620 168.645  34.016  0.00  0.00    +0.064 C 
ATOM     11  C   UNL     1      62.627 169.246  34.919  0.00  0.00    +0.151 C 
ATOM     12  O   UNL     1      63.552 169.861  34.446  0.00  0.00    -0.296 OA
ATOM     13  C   UNL     1      62.467 169.074  36.380  0.00  0.00    +0.065 C 
ATOM     14  C   UNL     1      61.016 168.686  36.688  0.00  0.00    +0.008 C 
ATOM     15  C   UNL     1      59.942 166.562  38.098  0.00  0.00    +0.000 C 
ATOM     16  C   UNL     1      59.431 165.255  38.768  0.00  0.00    +0.000 C 
ATOM     17  C   UNL     1      60.217 163.012  36.689  0.00  0.00    +0.001 C 
ATOM     18  C   UNL     1      59.567 162.323  37.829  0.00  0.00    +0.009 C 
ENDROOT
BRANCH   1  20
ATOM     19  O   UNL     1      59.174 160.958  39.835  0.00  0.00    -0.435 OA
ATOM     20  C   UNL     1      59.634 162.289  40.217  0.00  0.00    +0.204 C 
ATOM     21  C   UNL     1      60.216 162.087  41.550  0.00  0.00    +0.087 C 
ATOM     22  C   UNL     1      61.048 160.909  41.793  0.00  0.00    -0.011 C 
ATOM     23  C   UNL     1      60.890 159.768  41.050  0.00  0.00    +0.072 C 
ATOM     24  C   UNL     1      61.652 158.634  41.264  0.00  0.00    +0.006 C 
ATOM     25  C   UNL     1      62.595 158.663  42.254  0.00  0.00    +0.000 C 
ATOM     26  C   UNL     1      62.792 159.798  43.034  0.00  0.00    -0.000 C 
ATOM     27  C   UNL     1      62.010 160.909  42.789  0.00  0.00    -0.004 C 
ATOM     28  C   UNL     1      59.879 159.812  40.003  0.00  0.00    +0.342 C 
ATOM     29  O   UNL     1      59.725 158.767  39.318  0.00  0.00    -0.245 OA
BRANCH  20  30
ATOM     30  N   UNL     1      58.331 162.958  40.468  0.00  0.00    -0.272 N 
ATOM     31  C   UNL     1      57.309 162.412  41.277  0.00  0.00    +0.251 C 
ATOM     32  O   UNL     1      57.550 161.285  41.791  0.00  0.00    -0.270 OA
ATOM     33  H   UNL     1      58.170 163.832  40.046  0.00  0.00    +0.153 HD
BRANCH  31  34
ATOM     34  C   UNL     1      56.042 163.090  41.520  0.00  0.00    +0.087 C 
ATOM     35  C   UNL     1      54.857 162.419  41.437  0.00  0.00    +0.138 C 
ATOM     36  C   UNL     1      53.644 163.093  41.677  0.00  0.00    +0.037 C 
ATOM     37  C   UNL     1      53.594 164.410  41.993  0.00  0.00    +0.003 C 
ATOM     38  C   UNL     1      54.788 165.089  42.077  0.00  0.00    +0.000 C 
ATOM     39  C   UNL     1      55.993 164.428  41.842  0.00  0.00    +0.008 C 
BRANCH  35  40
ATOM     40  O   UNL     1      54.724 161.100  41.133  0.00  0.00    -0.505 OA
ATOM     41  H   UNL     1      55.422 160.503  41.321  0.00  0.00    +0.292 HD
ENDBRANCH  35  40
ENDBRANCH  31  34
ENDBRANCH  20  30
ENDBRANCH   1  20
BRANCH   1  42
ATOM     42  C   UNL     1      61.703 162.309  38.932  0.00  0.00    -0.012 C 
ATOM     43  C   UNL     1      62.756 162.918  39.628  0.00  0.00    +0.018 C 
ATOM     44  C   UNL     1      64.048 162.449  39.575  0.00  0.00    +0.006 C 
ATOM     45  C   UNL     1      64.334 161.354  38.824  0.00  0.00    +0.000 C 
ATOM     46  C   UNL     1      63.348 160.721  38.124  0.00  0.00    -0.000 C 
ATOM     47  C   UNL     1      62.038 161.225  38.198  0.00  0.00    -0.004 C 
BRANCH  43  48
ATOM     48  S   UNL     1      62.471 164.423  40.579  0.00  0.00    -0.142 S 
ATOM     49  H   UNL     1      61.690 165.273  39.860  0.00  0.00    +0.107 HD
ENDBRANCH  43  48
ENDBRANCH   1  42
TORSDOF 6
ENDMDL
