REMARK  Name = =
REMARK  6 active torsions:
REMARK  status: ('A' for Active; 'I' for Inactive)
REMARK    1  A    between atoms: C_1  and  C_20
REMARK    2  A    between atoms: C_1  and  C_40
REMARK    3  A    between atoms: C_20  and  N_30
REMARK    4  A    between atoms: C_31  and  C_33
REMARK    5  A    between atoms: C_34  and  O_39
REMARK    6  A    between atoms: C_41  and  S_46
REMARK                            x       y       z     vdW  Elec       q    Type
REMARK                         _______ _______ _______ _____ _____    ______ ____
ROOT
ATOM      1  C   UNL     1      53.931 152.932  24.849  0.00  0.00    +0.070 C 
ATOM      2  C   UNL     1      54.340 153.991  23.948  0.00  0.00    +0.009 C 
ATOM      3  C   UNL     1      55.436 153.289  23.163  0.00  0.00    +0.000 C 
ATOM      4  C   UNL     1      55.880 153.933  21.945  0.00  0.00    +0.000 C 
ATOM      5  C   UNL     1      55.021 154.872  21.227  0.00  0.00    +0.000 C 
ATOM      6  C   UNL     1      55.731 155.666  20.219  0.00  0.00    +0.001 C 
ATOM      7  C   UNL     1      56.745 154.946  19.410  0.00  0.00    +0.007 C 
ATOM      8  C   UNL     1      57.521 153.911  20.138  0.00  0.00    +0.000 C 
ATOM      9  C   UNL     1      57.319 153.913  21.619  0.00  0.00    +0.000 C 
ATOM     10  C   UNL     1      57.553 155.905  18.600  0.00  0.00    +0.064 C 
ATOM     11  C   UNL     1      58.191 156.949  19.432  0.00  0.00    +0.151 C 
ATOM     12  O   UNL     1      59.274 157.377  19.114  0.00  0.00    -0.296 OA
ATOM     13  C   UNL     1      57.477 157.440  20.632  0.00  0.00    +0.065 C 
ATOM     14  C   UNL     1      55.990 157.085  20.517  0.00  0.00    +0.008 C 
ATOM     15  C   UNL     1      54.288 155.727  22.224  0.00  0.00    +0.000 C 
ATOM     16  C   UNL     1      53.454 154.818  23.170  0.00  0.00    +0.000 C 
ATOM     17  C   UNL     1      54.775 151.973  22.804  0.00  0.00    +0.001 C 
ATOM     18  C   UNL     1      53.687 151.810  23.797  0.00  0.00    +0.009 C 
ENDROOT
BRANCH   1  20
ATOM     19  O   UNL     1      53.385 152.508  27.075  0.00  0.00    -0.435 OA
ATOM     20  C   UNL     1      52.844 152.864  25.768  0.00  0.00    +0.204 C 
ATOM     21  C   UNL     1      51.902 153.951  26.066  0.00  0.00    +0.087 C 
ATOM     22  C   UNL     1      52.288 154.986  27.024  0.00  0.00    -0.011 C 
ATOM     23  C   UNL     1      53.207 154.730  28.007  0.00  0.00    +0.072 C 
ATOM     24  C   UNL     1      53.584 155.683  28.935  0.00  0.00    +0.006 C 
ATOM     25  C   UNL     1      53.013 156.924  28.859  0.00  0.00    +0.000 C 
ATOM     26  C   UNL     1      52.075 157.231  27.879  0.00  0.00    -0.000 C 
ATOM     27  C   UNL     1      51.726 156.251  26.972  0.00  0.00    -0.004 C 
ATOM     28  C   UNL     1      53.786 153.394  28.020  0.00  0.00    +0.342 C 
ATOM     29  O   UNL     1      54.629 153.149  28.923  0.00  0.00    -0.245 OA
BRANCH  20  30
ATOM     30  N   UNL     1      51.987 151.679  25.504  0.00  0.00    -0.272 N 
ATOM     31  C   UNL     1      51.920 150.551  26.352  0.00  0.00    +0.251 C 
ATOM     32  O   UNL     1      52.653 150.584  27.379  0.00  0.00    -0.270 OA
ATOM     33  H   UNL     1      51.433 151.680  24.690  0.00  0.00    +0.153 HD
BRANCH  31  34
ATOM     34  C   UNL     1      51.064 149.404  26.081  0.00  0.00    +0.087 C 
ATOM     35  C   UNL     1      50.091 149.027  26.961  0.00  0.00    +0.138 C 
ATOM     36  C   UNL     1      49.274 147.915  26.679  0.00  0.00    +0.037 C 
ATOM     37  C   UNL     1      49.410 147.181  25.548  0.00  0.00    +0.003 C 
ATOM     38  C   UNL     1      50.390 147.559  24.659  0.00  0.00    +0.000 C 
ATOM     39  C   UNL     1      51.202 148.659  24.931  0.00  0.00    +0.008 C 
BRANCH  35  40
ATOM     40  O   UNL     1      49.819 149.649  28.139  0.00  0.00    -0.505 OA
ATOM     41  H   UNL     1      50.318 150.398  28.400  0.00  0.00    +0.292 HD
ENDBRANCH  35  40
ENDBRANCH  31  34
ENDBRANCH  20  30
ENDBRANCH   1  20
BRANCH   1  42
ATOM     42  C   UNL     1      55.239 152.517  25.492  0.00  0.00    -0.012 C 
ATOM     43  C   UNL     1      56.176 153.504  25.823  0.00  0.00    +0.018 C 
ATOM     44  C   UNL     1      57.364 153.216  26.454  0.00  0.00    +0.006 C 
ATOM     45  C   UNL     1      57.658 151.930  26.776  0.00  0.00    +0.000 C 
ATOM     46  C   UNL     1      56.782 150.926  26.476  0.00  0.00    -0.000 C 
ATOM     47  C   UNL     1      55.577 151.253  25.831  0.00  0.00    -0.004 C 
BRANCH  43  48
ATOM     48  S   UNL     1      55.895 155.223  25.354  0.00  0.00    -0.142 S 
ATOM     49  H   UNL     1      54.684 155.335  24.746  0.00  0.00    +0.107 HD
ENDBRANCH  43  48
ENDBRANCH   1  42
TORSDOF 6
