MODEL 1
REMARK VINA RESULT:    -7.942      0.000      0.000
REMARK INTER + INTRA:         -10.878
REMARK INTER:                 -10.496
REMARK INTRA:                  -0.383
REMARK UNBOUND:                -0.383
REMARK  Name = =
REMARK  6 active torsions:
REMARK  status: ('A' for Active; 'I' for Inactive)
REMARK    1  A    between atoms: C_1  and  C_4
REMARK    2  A    between atoms: N_3  and  S_11
REMARK    3  A    between atoms: C_6  and  O_10
REMARK    4  A    between atoms: S_11  and  C_12
REMARK    5  A    between atoms: C_12  and  O_14
REMARK    6  A    between atoms: O_14  and  N_15
REMARK                            x       y       z     vdW  Elec       q    Type
REMARK                         _______ _______ _______ _____ _____    ______ ____
ROOT
ATOM      1  C   UNL     1      51.247 159.500  30.304  0.00  0.00    +0.255 C 
ATOM      2  O   UNL     1      52.255 160.236  30.117  0.00  0.00    -0.269 OA
ATOM      3  N   UNL     1      51.286 158.202  29.728  0.00  0.00    -0.249 N 
ATOM      4  H   UNL     1      50.520 157.594  29.845  0.00  0.00    +0.163 HD
ENDROOT
BRANCH   1   5
ATOM      5  C   UNL     1      50.110 159.990  31.080  0.00  0.00    +0.057 C 
ATOM      6  C   UNL     1      48.812 159.664  30.747  0.00  0.00    +0.041 C 
ATOM      7  C   UNL     1      47.716 160.131  31.480  0.00  0.00    +0.134 C 
ATOM      8  C   UNL     1      47.939 160.944  32.571  0.00  0.00    +0.037 C 
ATOM      9  C   UNL     1      49.227 161.278  32.916  0.00  0.00    +0.003 C 
ATOM     10  C   UNL     1      50.278 160.813  32.191  0.00  0.00    +0.005 C 
BRANCH   7  11
ATOM     11  O   UNL     1      46.424 159.790  31.123  0.00  0.00    -0.506 OA
ATOM     12  H   UNL     1      46.025 160.186  30.373  0.00  0.00    +0.292 HD
ENDBRANCH   7  11
ENDBRANCH   1   5
BRANCH   3  13
ATOM     13  S   UNL     1      52.702 157.665  28.799  0.00  0.00    +0.026 S 
BRANCH  13  14
ATOM     14  C   UNL     1      52.463 155.977  28.313  0.00  0.00    +0.244 C 
ATOM     15  S   UNL     1      51.436 155.026  29.129  0.00  0.00    -0.000 S 
BRANCH  14  16
ATOM     16  O   UNL     1      53.153 155.470  27.236  0.00  0.00    -0.386 OA
BRANCH  16  17
ATOM     17  N   UNL     1      52.454 155.062  26.126  0.00  0.00    -0.117 NA
ATOM     18  C   UNL     1      52.804 155.961  25.044  0.00  0.00    +0.132 C 
ATOM     19  C   UNL     1      54.338 156.004  25.021  0.00  0.00    +0.110 C 
ATOM     20  N   UNL     1      54.790 154.676  24.793  0.00  0.00    -0.215 NA
ATOM     21  C   UNL     1      53.821 153.629  24.679  0.00  0.00    +0.110 C 
ATOM     22  C   UNL     1      52.889 153.704  25.850  0.00  0.00    +0.132 C 
ENDBRANCH  16  17
ENDBRANCH  14  16
ENDBRANCH  13  14
ENDBRANCH   3  13
TORSDOF 6
ENDMDL
