MODEL 1
REMARK VINA RESULT:    -5.897      0.000      0.000
REMARK INTER + INTRA:          -7.803
REMARK INTER:                  -7.104
REMARK INTRA:                  -0.699
REMARK UNBOUND:                -0.699
REMARK  Name = =
REMARK  4 active torsions:
REMARK  status: ('A' for Active; 'I' for Inactive)
REMARK    1  A    between atoms: N_1  and  C_12
REMARK    2  A    between atoms: C_5  and  C_13
REMARK    3  A    between atoms: C_18  and  S_19
REMARK    4  A    between atoms: S_19  and  O_22
REMARK                            x       y       z     vdW  Elec       q    Type
REMARK                         _______ _______ _______ _____ _____    ______ ____
ROOT
ATOM      1  N   UNL     1      61.247 161.074  39.429  0.00  0.00    -0.247 N 
ATOM      2  C   UNL     1      62.495 160.510  39.252  0.00  0.00    +0.172 C 
ATOM      3  N   UNL     1      62.778 159.816  40.323  0.00  0.00    -0.224 NA
ATOM      4  C   UNL     1      61.749 159.923  41.175  0.00  0.00    +0.115 C 
ATOM      5  C   UNL     1      60.750 160.737  40.605  0.00  0.00    +0.073 C 
ENDROOT
BRANCH   1  12
ATOM      6 CL   UNL     1      59.171 159.708  37.796  0.00  0.00    -0.081 Cl
ATOM      7  C   UNL     1      59.694 161.378  37.631  0.00  0.00    +0.072 C 
ATOM      8  C   UNL     1      59.147 162.174  36.669  0.00  0.00    +0.013 C 
ATOM      9  C   UNL     1      59.512 163.477  36.492  0.00  0.00    +0.001 C 
ATOM     10  C   UNL     1      60.475 164.020  37.316  0.00  0.00    +0.001 C 
ATOM     11  C   UNL     1      61.035 163.195  38.303  0.00  0.00    +0.016 C 
ATOM     12  C   UNL     1      60.647 161.897  38.455  0.00  0.00    +0.068 C 
ENDBRANCH   1  12
BRANCH   5  13
ATOM     13  C   UNL     1      59.510 161.002  41.309  0.00  0.00    +0.011 C 
ATOM     14  C   UNL     1      59.418 161.935  42.232  0.00  0.00    -0.027 C 
ATOM     15  C   UNL     1      58.120 162.213  42.969  0.00  0.00    +0.026 C 
ATOM     16  C   UNL     1      57.014 162.100  41.988  0.00  0.00    +0.007 C 
ATOM     17  C   UNL     1      57.008 160.855  41.183  0.00  0.00    +0.029 C 
ATOM     18  C   UNL     1      58.301 160.171  40.976  0.00  0.00    +0.156 C 
BRANCH  18  19
ATOM     19  S   UNL     1      58.449 158.647  41.835  0.00  0.00    -0.008 S 
ATOM     20  O   UNL     1      59.346 158.763  43.033  0.00  0.00    -0.072 OA
ATOM     21  O   UNL     1      59.102 157.664  40.875  0.00  0.00    -0.072 OA
BRANCH  19  22
ATOM     22  O   UNL     1      56.966 158.011  42.306  0.00  0.00    -0.271 OA
ATOM     23  H   UNL     1      56.729 157.274  41.721  0.00  0.00    +0.243 HD
ENDBRANCH  19  22
ENDBRANCH  18  19
ENDBRANCH   5  13
TORSDOF 4
ENDMDL
