MODEL 1
REMARK VINA RESULT:    -7.864      0.000      0.000
REMARK INTER + INTRA:         -14.329
REMARK INTER:                 -12.922
REMARK INTRA:                  -1.408
REMARK UNBOUND:                -1.408
REMARK  Name = =
REMARK  13 active torsions:
REMARK  status: ('A' for Active; 'I' for Inactive)
REMARK    1  A    between atoms: C_1  and  N_13
REMARK    2  A    between atoms: C_1  and  S_18
REMARK    3  A    between atoms: S_2  and  N_3
REMARK    4  A    between atoms: N_6  and  O_7
REMARK    5  A    between atoms: N_6  and  O_8
REMARK    6  A    between atoms: O_8  and  P_9
REMARK    7  A    between atoms: P_9  and  N_11
REMARK    8  A    between atoms: P_9  and  N_12
REMARK    9  A    between atoms: N_13  and  O_14
REMARK   10  A    between atoms: O_14  and  S_15
REMARK   11  A    between atoms: S_15  and  C_16
REMARK   12  A    between atoms: S_18  and  C_27
REMARK   13  A    between atoms: C_26  and  S_30
REMARK                            x       y       z     vdW  Elec       q    Type
REMARK                         _______ _______ _______ _____ _____    ______ ____
ROOT
ATOM      1  C   UNL     1      -0.090  -5.844  30.553  0.00  0.00    +0.129 C 
ATOM      2  S   UNL     1       1.164  -4.960  30.012  0.00  0.00    -0.085 S 
ATOM      3  H   UNL     1       2.128  -5.858  29.675  0.00  0.00    +0.118 HD
ENDROOT
BRANCH   2   4
ATOM      4  N   UNL     1       1.072  -3.822  28.651  0.00  0.00    -0.246 N 
ATOM      5  C   UNL     1       1.604  -4.263  27.392  0.00  0.00    +0.359 C 
ATOM      6  O   UNL     1       2.102  -5.402  27.278  0.00  0.00    -0.247 OA
ATOM      7  N   UNL     1       1.547  -3.379  26.301  0.00  0.00    -0.024 N 
ATOM      8  H   UNL     1       0.673  -2.928  28.755  0.00  0.00    +0.164 HD
BRANCH   7   9
ATOM      9  O   UNL     1       2.058  -3.806  25.119  0.00  0.00    -0.267 OA
ATOM     10  H   UNL     1       2.923  -4.218  25.270  0.00  0.00    +0.244 HD
ENDBRANCH   7   9
BRANCH   7  11
ATOM     11  O   UNL     1       1.010  -2.166  26.442  0.00  0.00    -0.165 OA
BRANCH  11  12
ATOM     12  P   UNL     1       2.172  -1.005  26.812  0.00  0.00    +0.359 P 
ATOM     13  O   UNL     1       3.502  -1.481  26.289  0.00  0.00    -0.253 OA
BRANCH  12  14
ATOM     14  N   UNL     1       2.296  -0.808  28.553  0.00  0.00    -0.245 NA
ATOM     15  H   UNL     1       2.282   0.185  28.784  0.00  0.00    +0.129 HD
ATOM     16  H   UNL     1       3.169  -1.221  28.881  0.00  0.00    +0.129 HD
ENDBRANCH  12  14
BRANCH  12  17
ATOM     17  N   UNL     1       1.836   0.535  26.051  0.00  0.00    -0.245 NA
ATOM     18  H   UNL     1       1.995   0.460  25.045  0.00  0.00    +0.129 HD
ATOM     19  H   UNL     1       2.453   1.249  26.440  0.00  0.00    +0.129 HD
ENDBRANCH  12  17
ENDBRANCH  11  12
ENDBRANCH   7  11
ENDBRANCH   2   4
BRANCH   1  20
ATOM     20  N   UNL     1       0.067  -6.714  31.634  0.00  0.00    -0.199 N 
ATOM     21  H   UNL     1      -0.724  -7.072  32.099  0.00  0.00    +0.182 HD
BRANCH  20  22
ATOM     22  O   UNL     1       1.302  -7.063  32.040  0.00  0.00    -0.195 OA
BRANCH  22  23
ATOM     23  S   UNL     1       1.658  -6.560  33.631  0.00  0.00    +0.138 S 
BRANCH  23  24
ATOM     24  C   UNL     1       2.554  -5.005  33.647  0.00  0.00    +0.164 C 
ATOM     25  N   UNL     1       3.081  -4.060  33.666  0.00  0.00    -0.181 NA
ENDBRANCH  23  24
ENDBRANCH  22  23
ENDBRANCH  20  22
ENDBRANCH   1  20
BRANCH   1  26
ATOM     26  S   UNL     1      -1.641  -5.622  29.685  0.00  0.00    -0.064 S 
BRANCH  26  35
ATOM     27  C   UNL     1      -4.846  -3.744  32.398  0.00  0.00    +0.059 C 
ATOM     28  C   UNL     1      -4.216  -3.024  31.418  0.00  0.00    +0.064 C 
ATOM     29  C   UNL     1      -4.779  -1.656  31.478  0.00  0.00    +0.252 C 
ATOM     30  O   UNL     1      -4.400  -0.750  30.695  0.00  0.00    -0.270 OA
ATOM     31  N   UNL     1      -5.764  -1.599  32.529  0.00  0.00    -0.248 N 
ATOM     32  C   UNL     1      -5.800  -2.899  33.095  0.00  0.00    +0.252 C 
ATOM     33  O   UNL     1      -6.549  -3.230  34.048  0.00  0.00    -0.270 OA
ATOM     34  C   UNL     1      -3.258  -3.606  30.612  0.00  0.00    +0.032 C 
ATOM     35  C   UNL     1      -2.887  -4.928  30.747  0.00  0.00    +0.037 C 
ATOM     36  C   UNL     1      -3.532  -5.634  31.737  0.00  0.00    +0.007 C 
ATOM     37  C   UNL     1      -4.490  -5.077  32.554  0.00  0.00    +0.005 C 
ATOM     38  H   UNL     1      -6.301  -0.820  32.799  0.00  0.00    +0.158 HD
BRANCH  34  39
ATOM     39  S   UNL     1      -2.471  -2.617  29.352  0.00  0.00    -0.141 S 
ATOM     40  H   UNL     1      -3.077  -2.842  28.155  0.00  0.00    +0.107 HD
ENDBRANCH  34  39
ENDBRANCH  26  35
ENDBRANCH   1  26
TORSDOF 13
ENDMDL
