MODEL 1
REMARK VINA RESULT:    -9.608      0.000      0.000
REMARK INTER + INTRA:         -14.920
REMARK INTER:                 -13.540
REMARK INTRA:                  -1.380
REMARK UNBOUND:                -1.380
REMARK  Name = =
REMARK  7 active torsions:
REMARK  status: ('A' for Active; 'I' for Inactive)
REMARK    1  A    between atoms: C_1  and  C_7
REMARK    2  A    between atoms: C_3  and  N_27
REMARK    3  A    between atoms: C_7  and  C_13
REMARK    4  A    between atoms: N_27  and  S_28
REMARK    5  A    between atoms: S_28  and  N_31
REMARK    6  A    between atoms: N_31  and  C_35
REMARK    7  A    between atoms: C_36  and  C_37
REMARK                            x       y       z     vdW  Elec       q    Type
REMARK                         _______ _______ _______ _____ _____    ______ ____
ROOT
ATOM      1  C   UNL     1      -0.298  -2.849  28.322  0.00  0.00    -0.019 C 
ATOM      2  C   UNL     1      -1.013  -3.198  29.416  0.00  0.00    +0.012 C 
ATOM      3  C   UNL     1      -2.155  -2.499  29.832  0.00  0.00    +0.066 C 
ATOM      4  C   UNL     1      -2.537  -1.418  29.070  0.00  0.00    +0.016 C 
ATOM      5  C   UNL     1      -1.838  -1.018  27.935  0.00  0.00    +0.001 C 
ATOM      6  C   UNL     1      -0.728  -1.756  27.596  0.00  0.00    -0.004 C 
ENDROOT
BRANCH   1   7
ATOM      7  C   UNL     1       0.953  -3.569  27.891  0.00  0.00    +0.052 C 
ATOM      8  C   UNL     1       0.726  -4.991  27.525  0.00  0.00    +0.007 C 
ATOM      9  C   UNL     1       1.874  -5.911  27.911  0.00  0.00    +0.000 C 
ATOM     10  C   UNL     1       2.169  -5.891  29.382  0.00  0.00    +0.000 C 
ATOM     11  C   UNL     1       1.655  -4.646  30.055  0.00  0.00    +0.000 C 
ATOM     12  C   UNL     1       1.874  -3.499  29.117  0.00  0.00    +0.007 C 
BRANCH   7  13
ATOM     13  C   UNL     1       1.581  -2.735  26.796  0.00  0.00    +0.196 C 
ATOM     14  O   UNL     1       2.104  -3.513  25.766  0.00  0.00    -0.329 OA
ATOM     15  C   UNL     1       3.453  -3.580  25.921  0.00  0.00    +0.213 C 
ATOM     16  N   UNL     1       3.884  -2.623  26.883  0.00  0.00    -0.245 N 
ATOM     17  C   UNL     1       5.281  -2.555  27.248  0.00  0.00    +0.181 C 
ATOM     18  C   UNL     1       6.011  -2.265  25.976  0.00  0.00    +0.246 C 
ATOM     19  O   UNL     1       7.086  -1.637  26.066  0.00  0.00    -0.273 OA
ATOM     20  N   UNL     1       5.443  -2.718  24.759  0.00  0.00    -0.276 N 
ATOM     21  C   UNL     1       4.271  -3.552  24.692  0.00  0.00    +0.122 C 
ATOM     22  C   UNL     1       3.567  -3.128  23.434  0.00  0.00    +0.026 C 
ATOM     23  C   UNL     1       4.514  -2.182  22.719  0.00  0.00    +0.023 C 
ATOM     24  C   UNL     1       5.836  -2.490  23.386  0.00  0.00    +0.094 C 
ATOM     25  C   UNL     1       2.695  -1.900  27.276  0.00  0.00    +0.255 C 
ATOM     26  O   UNL     1       2.729  -0.804  27.886  0.00  0.00    -0.272 OA
ENDBRANCH   7  13
ENDBRANCH   1   7
BRANCH   3  27
ATOM     27  N   UNL     1      -2.841  -2.888  31.011  0.00  0.00    -0.202 N 
ATOM     28  H   UNL     1      -2.549  -2.537  31.884  0.00  0.00    +0.175 HD
BRANCH  27  29
ATOM     29  S   UNL     1      -4.160  -3.952  30.929  0.00  0.00    +0.134 S 
ATOM     30  O   UNL     1      -5.410  -3.208  31.343  0.00  0.00    -0.134 OA
ATOM     31  O   UNL     1      -4.434  -4.436  29.509  0.00  0.00    -0.134 OA
BRANCH  29  32
ATOM     32  N   UNL     1      -3.990  -5.307  31.983  0.00  0.00    -0.108 N 
ATOM     33  C   UNL     1      -3.903  -5.106  33.356  0.00  0.00    +0.325 C 
ATOM     34  O   UNL     1      -3.760  -6.086  34.131  0.00  0.00    -0.251 OA
ATOM     35  N   UNL     1      -3.974  -3.823  33.938  0.00  0.00    -0.312 N 
ATOM     36  H   UNL     1      -4.086  -3.029  33.367  0.00  0.00    +0.147 HD
ATOM     37  H   UNL     1      -3.911  -3.722  34.915  0.00  0.00    +0.147 HD
BRANCH  32  38
ATOM     38  C   UNL     1      -3.954  -6.642  31.468  0.00  0.00    +0.095 C 
ATOM     39  C   UNL     1      -2.850  -7.226  31.047  0.00  0.00    +0.018 C 
BRANCH  39  40
ATOM     40  C   UNL     1      -1.543  -6.612  31.052  0.00  0.00    +0.001 C 
ATOM     41  C   UNL     1      -0.556  -6.954  31.854  0.00  0.00    +0.000 C 
ENDBRANCH  39  40
ENDBRANCH  32  38
ENDBRANCH  29  32
ENDBRANCH  27  29
ENDBRANCH   3  27
TORSDOF 7
ENDMDL
