REMARK  Name = =
REMARK  0 active torsions:
REMARK  status: ('A' for Active; 'I' for Inactive)
REMARK                            x       y       z     vdW  Elec       q    Type
REMARK                         _______ _______ _______ _____ _____    ______ ____
ROOT
ATOM      1  C   UNL     1      48.188 156.940  28.212  0.00  0.00    +0.000 C 
ATOM      2  C   UNL     1      47.171 157.970  27.786  0.00  0.00    +0.000 C 
ATOM      3  C   UNL     1      45.970 157.997  28.683  0.00  0.00    +0.000 C 
ATOM      4  C   UNL     1      45.552 159.388  29.063  0.00  0.00    +0.001 C 
ATOM      5  C   UNL     1      46.554 160.147  29.857  0.00  0.00    +0.012 C 
ATOM      6  C   UNL     1      46.797 161.447  29.230  0.00  0.00    +0.057 C 
ATOM      7  C   UNL     1      46.749 162.654  30.062  0.00  0.00    +0.118 C 
ATOM      8  O   UNL     1      47.908 163.122  29.400  0.00  0.00    -0.356 OA
ATOM      9  C   UNL     1      48.226 161.829  28.925  0.00  0.00    +0.144 C 
ATOM     10  C   UNL     1      47.089 162.435  31.517  0.00  0.00    +0.030 C 
ATOM     11  C   UNL     1      46.198 161.356  32.036  0.00  0.00    +0.010 C 
ATOM     12  C   UNL     1      46.449 160.092  31.323  0.00  0.00    +0.058 C 
ATOM     13  C   UNL     1      47.385 159.213  32.014  0.00  0.00    +0.150 C 
ATOM     14  O   UNL     1      47.801 159.651  33.059  0.00  0.00    -0.296 OA
ATOM     15  C   UNL     1      47.978 157.854  31.743  0.00  0.00    +0.064 C 
ATOM     16  C   UNL     1      47.450 157.341  30.463  0.00  0.00    +0.007 C 
ATOM     17  C   UNL     1      48.489 157.082  29.679  0.00  0.00    +0.000 C 
ATOM     18  C   UNL     1      46.110 157.080  29.873  0.00  0.00    +0.000 C 
ENDROOT
TORSDOF 0
