REMARK  Name = =
REMARK  3 active torsions:
REMARK  status: ('A' for Active; 'I' for Inactive)
REMARK    1  A    between atoms: C_17  and  C_19
REMARK    2  A    between atoms: C_21  and  C_25
REMARK    3  A    between atoms: C_22  and  O_28
REMARK                            x       y       z     vdW  Elec       q    Type
REMARK                         _______ _______ _______ _____ _____    ______ ____
ROOT
ATOM      1  C   UNL     1      54.354 151.973  24.671  0.00  0.00    +0.026 C 
ATOM      2  C   UNL     1      54.709 152.034  26.160  0.00  0.00    +0.005 C 
ATOM      3  C   UNL     1      53.525 152.432  27.020  0.00  0.00    +0.004 C 
ATOM      4  C   UNL     1      53.844 153.709  27.827  0.00  0.00    +0.001 C 
ATOM      5  C   UNL     1      52.652 154.595  27.780  0.00  0.00    +0.012 C 
ATOM      6  C   UNL     1      51.781 154.528  28.972  0.00  0.00    +0.057 C 
ATOM      7  C   UNL     1      51.774 155.708  29.867  0.00  0.00    +0.120 C 
ATOM      8  O   UNL     1      50.418 155.910  29.761  0.00  0.00    -0.356 OA
ATOM      9  C   UNL     1      50.369 155.007  28.725  0.00  0.00    +0.142 C 
ATOM     10  C   UNL     1      52.675 156.818  29.457  0.00  0.00    +0.030 C 
ATOM     11  C   UNL     1      52.640 157.114  27.978  0.00  0.00    +0.010 C 
ATOM     12  C   UNL     1      52.851 155.915  27.151  0.00  0.00    +0.058 C 
ATOM     13  C   UNL     1      52.420 156.029  25.764  0.00  0.00    +0.154 C 
ATOM     14  O   UNL     1      52.023 157.108  25.446  0.00  0.00    -0.296 OA
ATOM     15  C   UNL     1      52.363 155.056  24.609  0.00  0.00    +0.086 C 
ATOM     16  C   UNL     1      52.801 153.760  25.090  0.00  0.00    -0.041 C 
ATOM     17  C   UNL     1      53.852 153.412  24.420  0.00  0.00    -0.030 C 
ATOM     18  C   UNL     1      52.328 152.799  26.153  0.00  0.00    +0.022 C 
ENDROOT
BRANCH  17  19
ATOM     19  C   UNL     1      54.561 154.282  23.543  0.00  0.00    -0.004 C 
ATOM     20  C   UNL     1      55.089 153.724  22.374  0.00  0.00    +0.007 C 
ATOM     21  C   UNL     1      55.835 154.411  21.449  0.00  0.00    +0.087 C 
ATOM     22  C   UNL     1      56.070 155.762  21.716  0.00  0.00    +0.138 C 
ATOM     23  C   UNL     1      55.580 156.370  22.847  0.00  0.00    +0.037 C 
ATOM     24  C   UNL     1      54.837 155.615  23.732  0.00  0.00    +0.003 C 
BRANCH  21  25
ATOM     25  C   UNL     1      56.369 153.796  20.249  0.00  0.00    +0.246 C 
ATOM     26  O   UNL     1      57.575 153.509  20.190  0.00  0.00    -0.270 OA
ATOM     27  N   UNL     1      55.519 153.532  19.167  0.00  0.00    -0.325 N 
ATOM     28  H   UNL     1      54.564 153.763  19.224  0.00  0.00    +0.145 HD
ATOM     29  H   UNL     1      55.877 153.115  18.350  0.00  0.00    +0.145 HD
ENDBRANCH  21  25
BRANCH  22  30
ATOM     30  O   UNL     1      56.827 156.493  20.794  0.00  0.00    -0.505 OA
ATOM     31  H   UNL     1      57.159 156.075  20.024  0.00  0.00    +0.292 HD
ENDBRANCH  22  30
ENDBRANCH  17  19
TORSDOF 3
