REMARK  Name = =
REMARK  4 active torsions:
REMARK  status: ('A' for Active; 'I' for Inactive)
REMARK    1  A    between atoms: C_1  and  C_19
REMARK    2  A    between atoms: C_17  and  C_28
REMARK    3  A    between atoms: C_30  and  C_34
REMARK    4  A    between atoms: C_31  and  O_37
REMARK                            x       y       z     vdW  Elec       q    Type
REMARK                         _______ _______ _______ _____ _____    ______ ____
ROOT
ATOM      1  C   UNL     1      52.652 152.040  24.561  0.00  0.00    +0.040 C 
ATOM      2  C   UNL     1      51.796 152.558  25.702  0.00  0.00    +0.006 C 
ATOM      3  C   UNL     1      52.544 153.032  26.897  0.00  0.00    +0.000 C 
ATOM      4  C   UNL     1      51.818 154.294  27.382  0.00  0.00    +0.001 C 
ATOM      5  C   UNL     1      52.795 155.391  27.747  0.00  0.00    +0.012 C 
ATOM      6  C   UNL     1      52.556 155.754  29.150  0.00  0.00    +0.057 C 
ATOM      7  C   UNL     1      52.991 157.068  29.642  0.00  0.00    +0.118 C 
ATOM      8  O   UNL     1      51.752 157.219  30.275  0.00  0.00    -0.356 OA
ATOM      9  C   UNL     1      51.168 156.175  29.554  0.00  0.00    +0.144 C 
ATOM     10  C   UNL     1      53.154 158.130  28.588  0.00  0.00    +0.030 C 
ATOM     11  C   UNL     1      53.800 157.570  27.359  0.00  0.00    +0.010 C 
ATOM     12  C   UNL     1      52.831 156.526  26.798  0.00  0.00    +0.058 C 
ATOM     13  C   UNL     1      53.172 156.244  25.418  0.00  0.00    +0.150 C 
ATOM     14  O   UNL     1      52.498 156.905  24.647  0.00  0.00    -0.296 OA
ATOM     15  C   UNL     1      54.123 155.368  24.637  0.00  0.00    +0.065 C 
ATOM     16  C   UNL     1      53.910 154.006  25.205  0.00  0.00    +0.012 C 
ATOM     17  C   UNL     1      53.564 153.193  24.220  0.00  0.00    +0.028 C 
ATOM     18  C   UNL     1      53.973 153.443  26.581  0.00  0.00    +0.001 C 
ENDROOT
BRANCH   1  19
ATOM     19  C   UNL     1      53.340 150.803  24.903  0.00  0.00    +0.025 C 
ATOM     20  C   UNL     1      52.823 149.550  25.109  0.00  0.00    +0.011 C 
ATOM     21  C   UNL     1      51.546 149.006  25.092  0.00  0.00    +0.001 C 
ATOM     22  C   UNL     1      51.290 147.676  25.352  0.00  0.00    +0.000 C 
ATOM     23  C   UNL     1      52.323 146.816  25.645  0.00  0.00    +0.000 C 
ATOM     24  C   UNL     1      53.600 147.334  25.669  0.00  0.00    +0.001 C 
ATOM     25  C   UNL     1      53.859 148.661  25.411  0.00  0.00    +0.016 C 
ATOM     26  C   UNL     1      55.006 149.411  25.380  0.00  0.00    +0.062 C 
ATOM     27  N   UNL     1      54.685 150.680  25.077  0.00  0.00    -0.315 N 
ATOM     28  H   UNL     1      55.332 151.418  24.993  0.00  0.00    +0.152 HD
ENDBRANCH   1  19
BRANCH  17  29
ATOM     29  C   UNL     1      54.072 153.466  22.897  0.00  0.00    -0.022 C 
ATOM     30  C   UNL     1      55.409 153.686  22.701  0.00  0.00    +0.003 C 
ATOM     31  C   UNL     1      55.949 153.966  21.434  0.00  0.00    +0.086 C 
ATOM     32  C   UNL     1      55.137 154.028  20.346  0.00  0.00    +0.138 C 
ATOM     33  C   UNL     1      53.763 153.805  20.532  0.00  0.00    +0.036 C 
ATOM     34  C   UNL     1      53.273 153.535  21.773  0.00  0.00    -0.001 C 
BRANCH  31  35
ATOM     35  C   UNL     1      57.380 154.183  21.304  0.00  0.00    +0.246 C 
ATOM     36  O   UNL     1      58.127 153.939  22.327  0.00  0.00    -0.270 OA
ATOM     37  N   UNL     1      57.985 154.640  20.126  0.00  0.00    -0.325 N 
ATOM     38  H   UNL     1      57.435 154.833  19.333  0.00  0.00    +0.145 HD
ATOM     39  H   UNL     1      58.960 154.768  20.091  0.00  0.00    +0.145 HD
ENDBRANCH  31  35
BRANCH  32  40
ATOM     40  O   UNL     1      55.510 154.290  19.050  0.00  0.00    -0.505 OA
ATOM     41  H   UNL     1      54.864 154.309  18.371  0.00  0.00    +0.292 HD
ENDBRANCH  32  40
ENDBRANCH  17  29
TORSDOF 4
