REMARK  Name = =
REMARK  2 active torsions:
REMARK  status: ('A' for Active; 'I' for Inactive)
REMARK    1  A    between atoms: N_1  and  C_8
REMARK    2  A    between atoms: C_5  and  O_14
REMARK                            x       y       z     vdW  Elec       q    Type
REMARK                         _______ _______ _______ _____ _____    ______ ____
ROOT
ATOM      1  N   UNL     1      53.224 155.097  25.773  0.00  0.00    -0.164 N 
ATOM      2  C   UNL     1      53.808 154.893  24.504  0.00  0.00    +0.310 C 
ATOM      3  O   UNL     1      53.595 153.802  23.917  0.00  0.00    -0.252 OA
ATOM      4  N   UNL     1      54.605 155.897  23.927  0.00  0.00    -0.313 N 
ATOM      5  C   UNL     1      53.451 156.310  26.434  0.00  0.00    +0.410 C 
ATOM      6  O   UNL     1      54.161 157.191  25.917  0.00  0.00    -0.226 OA
ATOM      7  H   UNL     1      54.756 156.743  24.408  0.00  0.00    +0.146 HD
ATOM      8  H   UNL     1      55.012 155.754  23.042  0.00  0.00    +0.146 HD
ENDROOT
BRANCH   1  10
ATOM      9  S   UNL     1      51.211 154.713  27.566  0.00  0.00    -0.028 S 
ATOM     10  C   UNL     1      52.411 154.063  26.352  0.00  0.00    +0.220 C 
ATOM     11  C   UNL     1      53.157 153.095  27.186  0.00  0.00    +0.259 C 
ATOM     12  O   UNL     1      53.747 152.082  26.668  0.00  0.00    -0.272 OA
ATOM     13  N   UNL     1      53.148 153.395  28.560  0.00  0.00    -0.245 N 
ATOM     14  C   UNL     1      51.929 153.958  29.016  0.00  0.00    +0.281 C 
ATOM     15  O   UNL     1      51.436 153.949  30.158  0.00  0.00    -0.262 OA
ATOM     16  H   UNL     1      53.918 153.229  29.151  0.00  0.00    +0.158 HD
ENDBRANCH   1  10
BRANCH   5  17
ATOM     17  O   UNL     1      52.890 156.537  27.667  0.00  0.00    -0.466 OA
ATOM     18  H   UNL     1      52.354 155.880  28.066  0.00  0.00    +0.297 HD
ENDBRANCH   5  17
TORSDOF 2
