REMARK  Name = =
REMARK  4 active torsions:
REMARK  status: ('A' for Active; 'I' for Inactive)
REMARK    1  A    between atoms: S_1  and  N_15
REMARK    2  A    between atoms: C_2  and  N_8
REMARK    3  A    between atoms: C_12  and  O_14
REMARK    4  A    between atoms: N_15  and  S_16
REMARK                            x       y       z     vdW  Elec       q    Type
REMARK                         _______ _______ _______ _____ _____    ______ ____
ROOT
ATOM      1  S   UNL     1      53.931 154.585  25.364  0.00  0.00    -0.069 S 
ATOM      2  C   UNL     1      53.709 155.103  27.051  0.00  0.00    +0.213 C 
ATOM      3  C   UNL     1      53.479 156.540  26.952  0.00  0.00    +0.258 C 
ATOM      4  O   UNL     1      53.242 157.248  27.994  0.00  0.00    -0.272 OA
ATOM      5  N   UNL     1      53.533 157.068  25.673  0.00  0.00    -0.245 N 
ATOM      6  C   UNL     1      54.235 156.300  24.734  0.00  0.00    +0.274 C 
ATOM      7  O   UNL     1      54.901 156.564  23.735  0.00  0.00    -0.263 OA
ATOM      8  H   UNL     1      52.914 153.841  24.852  0.00  0.00    +0.110 HD
ATOM      9  H   UNL     1      53.107 157.924  25.439  0.00  0.00    +0.158 HD
ENDROOT
BRANCH   2  10
ATOM     10  N   UNL     1      52.649 154.370  27.703  0.00  0.00    -0.164 N 
ATOM     11  C   UNL     1      52.995 153.316  28.570  0.00  0.00    +0.310 C 
ATOM     12  O   UNL     1      52.099 152.634  29.174  0.00  0.00    -0.252 OA
ATOM     13  N   UNL     1      54.344 152.950  28.824  0.00  0.00    -0.313 N 
ATOM     14  C   UNL     1      51.285 154.685  27.502  0.00  0.00    +0.410 C 
ATOM     15  O   UNL     1      50.939 155.620  26.748  0.00  0.00    -0.226 OA
ATOM     16  H   UNL     1      55.078 153.440  28.387  0.00  0.00    +0.146 HD
ATOM     17  H   UNL     1      54.545 152.207  29.437  0.00  0.00    +0.146 HD
BRANCH  14  18
ATOM     18  O   UNL     1      50.316 153.948  28.148  0.00  0.00    -0.466 OA
ATOM     19  H   UNL     1      50.563 153.245  28.716  0.00  0.00    +0.297 HD
ENDBRANCH  14  18
ENDBRANCH   2  10
BRANCH   1  20
ATOM     20  N   UNL     1      54.923 153.419  24.927  0.00  0.00    -0.151 NA
ATOM     21  H   UNL     1      55.645 153.361  25.645  0.00  0.00    +0.160 HD
BRANCH  20  22
ATOM     22  S   UNL     1      54.323 151.838  24.700  0.00  0.00    +0.027 S 
ATOM     23  O   UNL     1      53.108 151.594  25.574  0.00  0.00    -0.160 OA
ATOM     24  O   UNL     1      55.372 150.806  24.978  0.00  0.00    -0.160 OA
ATOM     25  H   UNL     1      53.957 151.726  23.395  0.00  0.00    +0.230 HD
ENDBRANCH  20  22
ENDBRANCH   1  20
TORSDOF 4
