REMARK  Name = =
REMARK  8 active torsions:
REMARK  status: ('A' for Active; 'I' for Inactive)
REMARK    1  A    between atoms: S_1  and  N_15
REMARK    2  A    between atoms: C_2  and  N_8
REMARK    3  A    between atoms: C_12  and  O_14
REMARK    4  A    between atoms: N_15  and  S_16
REMARK    5  A    between atoms: N_15  and  O_19
REMARK    6  A    between atoms: O_19  and  P_20
REMARK    7  A    between atoms: P_20  and  O_22
REMARK    8  A    between atoms: P_20  and  O_23
REMARK                            x       y       z     vdW  Elec       q    Type
REMARK                         _______ _______ _______ _____ _____    ______ ____
ROOT
ATOM      1  S   UNL     1      52.997 154.093  27.140  0.00  0.00    -0.039 S 
ATOM      2  C   UNL     1      54.227 152.853  26.848  0.00  0.00    +0.216 C 
ATOM      3  C   UNL     1      54.703 152.608  28.224  0.00  0.00    +0.258 C 
ATOM      4  O   UNL     1      55.925 152.311  28.484  0.00  0.00    -0.272 OA
ATOM      5  N   UNL     1      53.708 152.728  29.201  0.00  0.00    -0.245 N 
ATOM      6  C   UNL     1      52.752 153.735  28.925  0.00  0.00    +0.277 C 
ATOM      7  O   UNL     1      51.934 154.271  29.669  0.00  0.00    -0.263 OA
ATOM      8  H   UNL     1      51.883 154.033  26.362  0.00  0.00    +0.113 HD
ATOM      9  H   UNL     1      53.676 152.163  30.007  0.00  0.00    +0.158 HD
ENDROOT
BRANCH   2  10
ATOM     10  N   UNL     1      53.684 151.680  26.207  0.00  0.00    -0.164 N 
ATOM     11  C   UNL     1      52.510 151.028  26.600  0.00  0.00    +0.310 C 
ATOM     12  O   UNL     1      51.832 151.449  27.577  0.00  0.00    -0.252 OA
ATOM     13  N   UNL     1      52.052 149.875  25.909  0.00  0.00    -0.313 N 
ATOM     14  C   UNL     1      54.408 151.148  25.082  0.00  0.00    +0.410 C 
ATOM     15  O   UNL     1      55.471 151.670  24.661  0.00  0.00    -0.226 OA
ATOM     16  H   UNL     1      52.562 149.525  25.143  0.00  0.00    +0.146 HD
ATOM     17  H   UNL     1      51.224 149.425  26.196  0.00  0.00    +0.146 HD
BRANCH  14  18
ATOM     18  O   UNL     1      53.964 150.022  24.400  0.00  0.00    -0.466 OA
ATOM     19  H   UNL     1      53.177 149.591  24.670  0.00  0.00    +0.297 HD
ENDBRANCH  14  18
ENDBRANCH   2  10
BRANCH   1  20
ATOM     20  N   UNL     1      53.414 155.687  26.726  0.00  0.00    -0.002 NA
BRANCH  20  21
ATOM     21  S   UNL     1      52.517 156.234  25.404  0.00  0.00    +0.052 S 
ATOM     22  O   UNL     1      53.390 157.102  24.528  0.00  0.00    -0.158 OA
ATOM     23  O   UNL     1      51.970 155.063  24.642  0.00  0.00    -0.158 OA
ATOM     24  H   UNL     1      51.466 156.982  25.834  0.00  0.00    +0.233 HD
ENDBRANCH  20  21
BRANCH  20  25
ATOM     25  O   UNL     1      53.548 156.516  27.744  0.00  0.00    -0.164 OA
BRANCH  25  26
ATOM     26  P   UNL     1      52.054 156.900  28.437  0.00  0.00    +0.491 P 
ATOM     27  O   UNL     1      50.957 155.967  27.990  0.00  0.00    -0.226 OA
BRANCH  26  28
ATOM     28  O   UNL     1      52.196 156.743  30.120  0.00  0.00    -0.302 OA
ATOM     29  H   UNL     1      52.455 155.834  30.339  0.00  0.00    +0.222 HD
ENDBRANCH  26  28
BRANCH  26  30
ATOM     30  O   UNL     1      51.600 158.483  28.019  0.00  0.00    -0.302 OA
ATOM     31  H   UNL     1      52.293 159.102  28.298  0.00  0.00    +0.222 HD
ENDBRANCH  26  30
ENDBRANCH  25  26
ENDBRANCH  20  25
ENDBRANCH   1  20
TORSDOF 8
