REMARK  Name = =
REMARK  10 active torsions:
REMARK  status: ('A' for Active; 'I' for Inactive)
REMARK    1  A    between atoms: N_1  and  S_2
REMARK    2  A    between atoms: N_1  and  S_17
REMARK    3  A    between atoms: N_1  and  O_20
REMARK    4  A    between atoms: C_3  and  N_10
REMARK    5  A    between atoms: C_14  and  O_16
REMARK    6  A    between atoms: O_20  and  O_28
REMARK    7  A    between atoms: O_22  and  N_23
REMARK    8  A    between atoms: N_23  and  P_24
REMARK    9  A    between atoms: P_24  and  N_26
REMARK   10  A    between atoms: P_24  and  O_27
REMARK                            x       y       z     vdW  Elec       q    Type
REMARK                         _______ _______ _______ _____ _____    ______ ____
ROOT
ATOM      1  S   UNL     1      52.837 154.099  27.460  0.00  0.00    +0.034 S 
ATOM      2  C   UNL     1      53.822 153.623  26.184  0.00  0.00    +0.228 C 
ATOM      3  C   UNL     1      53.222 152.319  25.786  0.00  0.00    +0.259 C 
ATOM      4  O   UNL     1      53.055 151.897  24.590  0.00  0.00    -0.272 OA
ATOM      5  N   UNL     1      52.834 151.552  26.909  0.00  0.00    -0.244 N 
ATOM      6  C   UNL     1      52.424 152.321  27.994  0.00  0.00    +0.289 C 
ATOM      7  O   UNL     1      51.924 152.017  29.049  0.00  0.00    -0.262 OA
ATOM      8  H   UNL     1      52.852 150.568  26.922  0.00  0.00    +0.158 HD
ENDROOT
BRANCH   2   9
ATOM      9  N   UNL     1      54.095 154.479  25.105  0.00  0.00    -0.163 N 
ATOM     10  C   UNL     1      53.284 155.539  24.675  0.00  0.00    +0.310 C 
ATOM     11  O   UNL     1      53.655 156.255  23.682  0.00  0.00    -0.252 OA
ATOM     12  N   UNL     1      52.051 155.920  25.241  0.00  0.00    -0.313 N 
ATOM     13  C   UNL     1      55.311 154.269  24.345  0.00  0.00    +0.410 C 
ATOM     14  O   UNL     1      55.624 154.990  23.371  0.00  0.00    -0.226 OA
ATOM     15  H   UNL     1      51.688 155.424  26.010  0.00  0.00    +0.146 HD
ATOM     16  H   UNL     1      51.552 156.682  24.867  0.00  0.00    +0.146 HD
BRANCH  13  17
ATOM     17  O   UNL     1      56.140 153.234  24.728  0.00  0.00    -0.466 OA
ATOM     18  H   UNL     1      55.908 152.693  25.457  0.00  0.00    +0.297 HD
ENDBRANCH  13  17
ENDBRANCH   2   9
BRANCH   1  19
ATOM     19  N   UNL     1      52.662 155.213  28.515  0.00  0.00    +0.032 NA
BRANCH  19  20
ATOM     20  S   UNL     1      53.202 156.752  28.117  0.00  0.00    +0.055 S 
ATOM     21  O   UNL     1      52.008 157.664  27.896  0.00  0.00    -0.158 OA
ATOM     22  O   UNL     1      53.962 156.758  26.819  0.00  0.00    -0.158 OA
ATOM     23  H   UNL     1      54.000 157.165  29.138  0.00  0.00    +0.233 HD
ENDBRANCH  19  20
BRANCH  19  24
ATOM     24  O   UNL     1      51.403 155.196  29.066  0.00  0.00    -0.109 OA
BRANCH  24  25
ATOM     25  O   UNL     1      51.203 155.184  30.617  0.00  0.00    -0.229 OA
ATOM     26  H   UNL     1      50.255 155.173  30.821  0.00  0.00    +0.255 HD
ENDBRANCH  24  25
ENDBRANCH  19  24
ENDBRANCH   1  19
TORSDOF 6
REMARK  Name = =
REMARK  10 active torsions:
REMARK  status: ('A' for Active; 'I' for Inactive)
REMARK    1  A    between atoms: N_1  and  S_2
REMARK    2  A    between atoms: N_1  and  S_17
REMARK    3  A    between atoms: N_1  and  O_20
REMARK    4  A    between atoms: C_3  and  N_10
REMARK    5  A    between atoms: C_14  and  O_16
REMARK    6  A    between atoms: O_20  and  O_28
REMARK    7  A    between atoms: O_22  and  N_23
REMARK    8  A    between atoms: N_23  and  P_24
REMARK    9  A    between atoms: P_24  and  N_26
REMARK   10  A    between atoms: P_24  and  O_27
REMARK                            x       y       z     vdW  Elec       q    Type
REMARK                         _______ _______ _______ _____ _____    ______ ____
ROOT
ATOM      1  H   UNK     1      51.166 154.239  26.455  0.00  0.00    +0.000 HD
ENDROOT
TORSDOF 0
REMARK  Name = =
REMARK  10 active torsions:
REMARK  status: ('A' for Active; 'I' for Inactive)
REMARK    1  A    between atoms: N_1  and  S_2
REMARK    2  A    between atoms: N_1  and  S_17
REMARK    3  A    between atoms: N_1  and  O_20
REMARK    4  A    between atoms: C_3  and  N_10
REMARK    5  A    between atoms: C_14  and  O_16
REMARK    6  A    between atoms: O_20  and  O_28
REMARK    7  A    between atoms: O_22  and  N_23
REMARK    8  A    between atoms: N_23  and  P_24
REMARK    9  A    between atoms: P_24  and  N_26
REMARK   10  A    between atoms: P_24  and  O_27
REMARK                            x       y       z     vdW  Elec       q    Type
REMARK                         _______ _______ _______ _____ _____    ______ ____
ROOT
ATOM      1  P   UNL     1      50.928 156.594  29.729  0.00  0.00    +0.000 P 
ENDROOT
TORSDOF 0
REMARK  Name = =
REMARK  10 active torsions:
REMARK  status: ('A' for Active; 'I' for Inactive)
REMARK    1  A    between atoms: N_1  and  S_2
REMARK    2  A    between atoms: N_1  and  S_17
REMARK    3  A    between atoms: N_1  and  O_20
REMARK    4  A    between atoms: C_3  and  N_10
REMARK    5  A    between atoms: C_14  and  O_16
REMARK    6  A    between atoms: O_20  and  O_28
REMARK    7  A    between atoms: O_22  and  N_23
REMARK    8  A    between atoms: N_23  and  P_24
REMARK    9  A    between atoms: P_24  and  N_26
REMARK   10  A    between atoms: P_24  and  O_27
REMARK                            x       y       z     vdW  Elec       q    Type
REMARK                         _______ _______ _______ _____ _____    ______ ____
ROOT
ATOM      1  P   UNL     1      49.478 158.773  30.661  0.00  0.00    +0.360 P 
ATOM      2  O   UNL     1      48.098 159.243  31.065  0.00  0.00    -0.253 OA
ENDROOT
BRANCH   1   3
ATOM      3  N   UNL     1      50.537 159.043  32.051  0.00  0.00    -0.245 NA
ATOM      4  H   UNL     1      50.204 158.494  32.844  0.00  0.00    +0.129 HD
ATOM      5  H   UNL     1      50.530 160.033  32.296  0.00  0.00    +0.129 HD
ENDBRANCH   1   3
BRANCH   1   6
ATOM      6  N   UNL     1      49.425 157.043  30.314  0.00  0.00    -0.116 NA
ATOM      7  H   UNL     1      50.114 156.579  30.906  0.00  0.00    +0.165 HD
BRANCH   6   8
ATOM      8  O   UNL     1      49.740 156.647  28.759  0.00  0.00    -0.306 OA
ATOM      9  H   UNL     1      49.691 155.684  28.654  0.00  0.00    +0.237 HD
ENDBRANCH   6   8
ENDBRANCH   1   6
BRANCH   1  10
ATOM     10  O   UNL     1      49.999 159.660  29.347  0.00  0.00    -0.320 OA
ATOM     11  H   UNL     1      49.408 159.501  28.594  0.00  0.00    +0.220 HD
ENDBRANCH   1  10
TORSDOF 4
REMARK  Name = =
REMARK  10 active torsions:
REMARK  status: ('A' for Active; 'I' for Inactive)
REMARK    1  A    between atoms: N_1  and  S_2
REMARK    2  A    between atoms: N_1  and  S_17
REMARK    3  A    between atoms: N_1  and  O_20
REMARK    4  A    between atoms: C_3  and  N_10
REMARK    5  A    between atoms: C_14  and  O_16
REMARK    6  A    between atoms: O_20  and  O_28
REMARK    7  A    between atoms: O_22  and  N_23
REMARK    8  A    between atoms: N_23  and  P_24
REMARK    9  A    between atoms: P_24  and  N_26
REMARK   10  A    between atoms: P_24  and  O_27
REMARK                            x       y       z     vdW  Elec       q    Type
REMARK                         _______ _______ _______ _____ _____    ______ ____
ROOT
ATOM      1  O   HOH     1      52.460 156.930  30.314  0.00  0.00    -0.253 OA
ATOM      2  H   HOH     0      53.430 156.930  30.314  0.00  0.00    +0.253 HD
ENDROOT
TORSDOF 0
