REMARK  Name = =
REMARK  12 active torsions:
REMARK  status: ('A' for Active; 'I' for Inactive)
REMARK    1  A    between atoms: N_1  and  S_2
REMARK    2  A    between atoms: N_1  and  S_16
REMARK    3  A    between atoms: N_1  and  O_19
REMARK    4  A    between atoms: C_3  and  N_9
REMARK    5  A    between atoms: C_13  and  O_15
REMARK    6  A    between atoms: O_19  and  P_20
REMARK    7  A    between atoms: P_20  and  O_23
REMARK    8  A    between atoms: P_20  and  N_24
REMARK    9  A    between atoms: N_24  and  N_28
REMARK   10  A    between atoms: N_24  and  P_29
REMARK   11  A    between atoms: P_29  and  N_31
REMARK   12  A    between atoms: P_29  and  O_32
REMARK                            x       y       z     vdW  Elec       q    Type
REMARK                         _______ _______ _______ _____ _____    ______ ____
ROOT
ATOM      1  N   UNL     1      52.041 155.661  27.981  0.00  0.00    -0.006 NA
ENDROOT
BRANCH   1   2
ATOM      2  S   UNL     1      52.445 154.944  26.594  0.00  0.00    -0.039 S 
ATOM      3  C   UNL     1      54.139 154.552  26.259  0.00  0.00    +0.216 C 
ATOM      4  C   UNL     1      54.248 153.108  26.525  0.00  0.00    +0.258 C 
ATOM      5  O   UNL     1      55.373 152.517  26.402  0.00  0.00    -0.272 OA
ATOM      6  N   UNL     1      53.054 152.490  26.908  0.00  0.00    -0.245 N 
ATOM      7  C   UNL     1      51.886 153.081  26.425  0.00  0.00    +0.277 C 
ATOM      8  O   UNL     1      50.801 152.792  26.004  0.00  0.00    -0.263 OA
ATOM      9  H   UNL     1      51.888 155.913  25.819  0.00  0.00    +0.113 HD
ATOM     10  H   UNL     1      53.038 151.690  27.481  0.00  0.00    +0.158 HD
BRANCH   3  11
ATOM     11  N   UNL     1      54.562 154.930  24.956  0.00  0.00    -0.164 N 
ATOM     12  C   UNL     1      54.669 153.971  23.922  0.00  0.00    +0.310 C 
ATOM     13  O   UNL     1      54.387 152.771  24.160  0.00  0.00    -0.252 OA
ATOM     14  N   UNL     1      55.094 154.336  22.602  0.00  0.00    -0.313 N 
ATOM     15  C   UNL     1      54.888 156.279  24.660  0.00  0.00    +0.410 C 
ATOM     16  O   UNL     1      55.268 156.632  23.503  0.00  0.00    -0.226 OA
ATOM     17  H   UNL     1      55.161 153.650  21.899  0.00  0.00    +0.146 HD
ATOM     18  H   UNL     1      55.319 155.273  22.399  0.00  0.00    +0.146 HD
BRANCH  15  19
ATOM     19  O   UNL     1      54.782 157.242  25.684  0.00  0.00    -0.466 OA
ATOM     20  H   UNL     1      54.502 156.986  26.541  0.00  0.00    +0.297 HD
ENDBRANCH  15  19
ENDBRANCH   3  11
ENDBRANCH   1   2
BRANCH   1  21
ATOM     21  S   UNL     1      51.323 154.595  29.122  0.00  0.00    +0.052 S 
ATOM     22  O   UNL     1      51.585 154.977  30.544  0.00  0.00    -0.158 OA
ATOM     23  O   UNL     1      49.836 154.562  28.920  0.00  0.00    -0.158 OA
ATOM     24  H   UNL     1      51.890 153.378  28.905  0.00  0.00    +0.233 HD
ENDBRANCH   1  21
BRANCH   1  25
ATOM     25  O   UNL     1      52.818 156.590  28.512  0.00  0.00    -0.210 OA
BRANCH  25  26
ATOM     26  P   UNL     1      51.726 157.550  29.416  0.00  0.00    +0.207 P 
ATOM     27  H   UNL     1      50.365 157.438  29.215  0.00  0.00    +0.131 HD
BRANCH  26  28
ATOM     28  O   UNL     1      53.111 157.104  30.186  0.00  0.00    -0.344 OA
ATOM     29  H   UNL     1      53.855 157.620  29.838  0.00  0.00    +0.218 HD
ENDBRANCH  26  28
BRANCH  26  30
ATOM     30  N   UNL     1      51.265 159.094  29.811  0.00  0.00    -0.073 NA
BRANCH  30  34
ATOM     31  C   UNL     1      52.231 160.671  31.346  0.00  0.00    +0.312 C 
ATOM     32  O   UNL     1      51.413 160.320  32.235  0.00  0.00    -0.252 OA
ATOM     33  N   UNL     1      53.198 161.676  31.609  0.00  0.00    -0.312 N 
ATOM     34  N   UNL     1      52.206 160.060  30.039  0.00  0.00    -0.217 N 
ATOM     35  H   UNL     1      53.233 162.106  32.494  0.00  0.00    +0.147 HD
ATOM     36  H   UNL     1      53.834 161.943  30.907  0.00  0.00    +0.147 HD
ATOM     37  H   UNL     1      52.843 160.328  29.338  0.00  0.00    +0.172 HD
ENDBRANCH  30  34
BRANCH  30  38
ATOM     38  P   UNL     1      49.666 159.593  29.531  0.00  0.00    +0.363 P 
ATOM     39  O   UNL     1      48.709 158.523  29.986  0.00  0.00    -0.253 OA
BRANCH  38  40
ATOM     40  N   UNL     1      49.332 161.024  30.486  0.00  0.00    -0.245 NA
ATOM     41  H   UNL     1      49.500 160.822  31.472  0.00  0.00    +0.129 HD
ATOM     42  H   UNL     1      48.358 161.299  30.357  0.00  0.00    +0.129 HD
ENDBRANCH  38  40
BRANCH  38  43
ATOM     43  O   UNL     1      49.362 160.013  27.907  0.00  0.00    -0.320 OA
ATOM     44  H   UNL     1      49.534 159.247  27.337  0.00  0.00    +0.220 HD
ENDBRANCH  38  43
ENDBRANCH  30  38
ENDBRANCH  26  30
ENDBRANCH  25  26
ENDBRANCH   1  25
TORSDOF 12
REMARK  Name = =
REMARK  12 active torsions:
REMARK  status: ('A' for Active; 'I' for Inactive)
REMARK    1  A    between atoms: N_1  and  S_2
REMARK    2  A    between atoms: N_1  and  S_16
REMARK    3  A    between atoms: N_1  and  O_19
REMARK    4  A    between atoms: C_3  and  N_9
REMARK    5  A    between atoms: C_13  and  O_15
REMARK    6  A    between atoms: O_19  and  P_20
REMARK    7  A    between atoms: P_20  and  O_23
REMARK    8  A    between atoms: P_20  and  N_24
REMARK    9  A    between atoms: N_24  and  N_28
REMARK   10  A    between atoms: N_24  and  P_29
REMARK   11  A    between atoms: P_29  and  N_31
REMARK   12  A    between atoms: P_29  and  O_32
REMARK                            x       y       z     vdW  Elec       q    Type
REMARK                         _______ _______ _______ _____ _____    ______ ____
ROOT
ATOM      1  O   UNL     1      50.666 157.324  30.472  0.00  0.00    -0.038 OA
ATOM      2  O   UNL     1      50.159 157.073  29.051  0.00  0.00    -0.218 OA
ATOM      3  H   UNL     1      49.750 157.882  28.706  0.00  0.00    +0.256 HD
ENDROOT
TORSDOF 0
