REMARK  Name = =
REMARK  0 active torsions:
REMARK  status: ('A' for Active; 'I' for Inactive)
REMARK                            x       y       z     vdW  Elec       q    Type
REMARK                         _______ _______ _______ _____ _____    ______ ____
ROOT
ATOM      1  C   UNL     1      -3.511  -3.857  30.971  0.00  0.00    +0.017 C 
ATOM      2  C   UNL     1      -2.985  -5.112  31.194  0.00  0.00    +0.081 C 
ATOM      3  N   UNL     1      -2.130  -5.615  30.312  0.00  0.00    -0.250 NA
ATOM      4  C   UNL     1      -1.787  -4.900  29.213  0.00  0.00    +0.055 C 
ATOM      5  C   UNL     1      -2.287  -3.653  28.955  0.00  0.00    -0.009 C 
ATOM      6  C   UNL     1      -3.175  -3.106  29.853  0.00  0.00    -0.002 C 
ATOM      7  C   UNL     1      -1.834  -2.971  27.715  0.00  0.00    +0.028 C 
ATOM      8  C   UNL     1      -0.374  -3.136  27.493  0.00  0.00    +0.005 C 
ATOM      9  C   UNL     1       0.158  -4.505  27.703  0.00  0.00    +0.007 C 
ATOM     10  C   UNL     1      -0.840  -5.490  28.261  0.00  0.00    +0.045 C 
ATOM     11  C   UNL     1      -3.327  -5.862  32.323  0.00  0.00    +0.019 C 
ATOM     12  C   UNL     1      -4.214  -5.343  33.241  0.00  0.00    +0.002 C 
ATOM     13  C   UNL     1      -4.730  -4.089  33.003  0.00  0.00    +0.000 C 
ATOM     14  C   UNL     1      -4.399  -3.343  31.895  0.00  0.00    +0.001 C 
ENDROOT
TORSDOF 0
