MODEL 1
REMARK VINA RESULT:   -10.033      0.000      0.000
REMARK INTER + INTRA:         -15.352
REMARK INTER:                 -14.139
REMARK INTRA:                  -1.213
REMARK UNBOUND:                -1.213
REMARK  Name = =
REMARK  8 active torsions:
REMARK  status: ('A' for Active; 'I' for Inactive)
REMARK    1  A    between atoms: C_11  and  N_21
REMARK    2  A    between atoms: C_18  and  C_27
REMARK    3  A    between atoms: N_28  and  N_29
REMARK    4  A    between atoms: N_29  and  C_30
REMARK    5  A    between atoms: N_29  and  C_39
REMARK    6  A    between atoms: N_31  and  S_35
REMARK    7  A    between atoms: S_35  and  O_38
REMARK    8  A    between atoms: C_39  and  N_41
REMARK                            x       y       z     vdW  Elec       q    Type
REMARK                         _______ _______ _______ _____ _____    ______ ____
ROOT
ATOM      1  N   UNL     1      -2.843  -6.018  30.663  0.00  0.00    -0.244 NA
ATOM      2  C   UNL     1      -2.518  -4.812  30.120  0.00  0.00    +0.083 C 
ATOM      3  C   UNL     1      -3.211  -3.647  30.475  0.00  0.00    +0.019 C 
ATOM      4  C   UNL     1      -2.846  -2.452  29.898  0.00  0.00    +0.003 C 
ATOM      5  C   UNL     1      -1.805  -2.362  28.968  0.00  0.00    +0.018 C 
ATOM      6  C   UNL     1      -1.134  -3.509  28.628  0.00  0.00    +0.084 C 
ATOM      7  N   UNL     1      -0.116  -3.444  27.723  0.00  0.00    -0.230 NA
ATOM      8  C   UNL     1       0.279  -2.307  27.133  0.00  0.00    +0.137 C 
ATOM      9  N   UNL     1       1.351  -2.269  26.185  0.00  0.00    -0.242 N 
ATOM     10  C   UNL     1       2.734  -2.709  26.352  0.00  0.00    +0.116 C 
ATOM     11  C   UNL     1       2.952  -3.395  25.023  0.00  0.00    +0.087 C 
ATOM     12  C   UNL     1       2.361  -2.438  24.033  0.00  0.00    +0.103 C 
ATOM     13  C   UNL     1       1.291  -1.781  24.843  0.00  0.00    +0.232 C 
ATOM     14  O   UNL     1       0.478  -0.937  24.392  0.00  0.00    -0.274 OA
ATOM     15  C   UNL     1      -0.378  -1.140  27.459  0.00  0.00    +0.035 C 
ATOM     16  C   UNL     1      -1.426  -1.176  28.383  0.00  0.00    +0.004 C 
ATOM     17  C   UNL     1      -1.501  -4.701  29.206  0.00  0.00    +0.038 C 
ATOM     18  C   UNL     1      -4.227  -3.755  31.385  0.00  0.00    +0.024 C 
ATOM     19  C   UNL     1      -4.529  -5.020  31.923  0.00  0.00    +0.022 C 
ATOM     20  C   UNL     1      -3.835  -6.151  31.557  0.00  0.00    +0.099 C 
ENDROOT
BRANCH  11  21
ATOM     21  N   UNL     1       4.285  -3.793  24.760  0.00  0.00    -0.272 NA
ATOM     22  C   UNL     1       4.661  -4.837  25.695  0.00  0.00    +0.072 C 
ATOM     23  C   UNL     1       6.100  -5.195  25.391  0.00  0.00    +0.017 C 
ATOM     24  C   UNL     1       6.461  -4.747  23.972  0.00  0.00    +0.003 C 
ATOM     25  C   UNL     1       6.406  -3.230  23.854  0.00  0.00    +0.017 C 
ATOM     26  C   UNL     1       5.283  -2.779  24.799  0.00  0.00    +0.072 C 
ENDBRANCH  11  21
BRANCH  18  27
ATOM     27  C   UNL     1      -4.980  -2.594  31.793  0.00  0.00    +0.118 C 
ATOM     28  N   UNL     1      -6.225  -2.415  31.411  0.00  0.00    -0.173 NA
BRANCH  28  29
ATOM     29  N   UNL     1      -6.965  -1.304  31.793  0.00  0.00    -0.163 N 
BRANCH  29  30
ATOM     30  C   UNL     1      -8.393  -1.265  31.657  0.00  0.00    +0.238 C 
ATOM     31  N   UNL     1      -8.841  -1.050  30.313  0.00  0.00    -0.122 NA
ATOM     32  C   UNL     1      -9.931  -1.949  30.040  0.00  0.00    +0.116 C 
ATOM     33  C   UNL     1     -10.251  -2.585  31.376  0.00  0.00    +0.090 C 
ATOM     34  N   UNL     1      -9.044  -2.440  32.152  0.00  0.00    -0.265 NA
ATOM     35  H   UNL     1      -9.270  -2.330  33.141  0.00  0.00    +0.126 HD
BRANCH  31  36
ATOM     36  S   UNL     1      -9.448   0.563  30.097  0.00  0.00    +0.051 S 
ATOM     37  O   UNL     1      -9.119   1.424  31.272  0.00  0.00    -0.056 OA
ATOM     38  O   UNL     1     -10.928   0.544  29.912  0.00  0.00    -0.056 OA
BRANCH  36  39
ATOM     39  O   UNL     1      -8.670   1.230  28.759  0.00  0.00    -0.258 OA
ATOM     40  H   UNL     1      -9.316   1.702  28.211  0.00  0.00    +0.244 HD
ENDBRANCH  36  39
ENDBRANCH  31  36
ENDBRANCH  29  30
BRANCH  29  41
ATOM     41  C   UNL     1      -6.283  -0.182  32.330  0.00  0.00    +0.153 C 
ATOM     42  S   UNL     1      -5.466   0.888  31.386  0.00  0.00    -0.017 S 
BRANCH  41  43
ATOM     43  N   UNL     1      -6.267   0.076  33.726  0.00  0.00    -0.339 N 
ATOM     44  H   UNL     1      -5.944   0.943  34.063  0.00  0.00    +0.144 HD
ATOM     45  H   UNL     1      -6.580  -0.612  34.358  0.00  0.00    +0.144 HD
ENDBRANCH  41  43
ENDBRANCH  29  41
ENDBRANCH  28  29
ENDBRANCH  18  27
TORSDOF 8
ENDMDL
