REMARK  Name = =
REMARK  8 active torsions:
REMARK  status: ('A' for Active; 'I' for Inactive)
REMARK    1  A    between atoms: C_1  and  O_21
REMARK    2  A    between atoms: C_2  and  O_32
REMARK    3  A    between atoms: C_4  and  C_7
REMARK    4  A    between atoms: C_8  and  O_20
REMARK    5  A    between atoms: C_12  and  O_19
REMARK    6  A    between atoms: C_14  and  O_18
REMARK    7  A    between atoms: O_21  and  C_23
REMARK    8  A    between atoms: O_32  and  C_33
REMARK                            x       y       z     vdW  Elec       q    Type
REMARK                         _______ _______ _______ _____ _____    ______ ____
ROOT
ATOM      1  C   UNL     1     -20.895 -42.174  22.440  0.00  0.00    +0.176 C 
ATOM      2  C   UNL     1     -21.755 -42.208  21.367  0.00  0.00    +0.181 C 
ATOM      3  C   UNL     1     -22.833 -43.079  21.410  0.00  0.00    +0.044 C 
ATOM      4  C   UNL     1     -23.104 -43.913  22.457  0.00  0.00    +0.041 C 
ATOM      5  C   UNL     1     -22.224 -43.882  23.561  0.00  0.00    +0.006 C 
ATOM      6  C   UNL     1     -21.156 -43.022  23.520  0.00  0.00    +0.040 C 
ENDROOT
BRANCH   4   7
ATOM      7  C   UNL     1     -24.216 -44.833  22.534  0.00  0.00    +0.182 A 
ATOM      8  C   UNL     1     -25.520 -44.486  22.374  0.00  0.00    +0.208 A 
ATOM      9  C   UNL     1     -26.526 -45.473  22.471  0.00  0.00    +0.238 A 
ATOM     10  O   UNL     1     -27.692 -45.095  22.316  0.00  0.00    -0.283 OA
ATOM     11  C   UNL     1     -26.214 -46.787  22.725  0.00  0.00    +0.110 A 
ATOM     12  C   UNL     1     -27.154 -47.783  22.829  0.00  0.00    +0.143 C 
ATOM     13  C   UNL     1     -26.746 -49.109  23.092  0.00  0.00    +0.073 C 
ATOM     14  C   UNL     1     -25.419 -49.388  23.242  0.00  0.00    +0.140 C 
ATOM     15  C   UNL     1     -24.498 -48.375  23.134  0.00  0.00    +0.074 C 
ATOM     16  C   UNL     1     -24.857 -47.053  22.875  0.00  0.00    +0.155 A 
ATOM     17  O   UNL     1     -23.956 -46.118  22.779  0.00  0.00    -0.450 OA
BRANCH  14  18
ATOM     18  O   UNL     1     -24.992 -50.704  23.505  0.00  0.00    -0.505 OA
ATOM     19  H   UNL     1     -25.621 -51.395  23.579  0.00  0.00    +0.292 HD
ENDBRANCH  14  18
BRANCH  12  20
ATOM     20  O   UNL     1     -28.477 -47.549  22.687  0.00  0.00    -0.505 OA
ATOM     21  H   UNL     1     -28.783 -46.681  22.512  0.00  0.00    +0.292 HD
ENDBRANCH  12  20
BRANCH   8  22
ATOM     22  O   UNL     1     -25.887 -43.184  22.117  0.00  0.00    -0.501 OA
ATOM     23  H   UNL     1     -26.792 -42.965  22.010  0.00  0.00    +0.292 HD
ENDBRANCH   8  22
ENDBRANCH   4   7
BRANCH   1  24
ATOM     24  O   UNL     1     -19.839 -41.309  22.376  0.00  0.00    -0.449 OA
BRANCH  24  26
ATOM     25  O   UNL     1     -17.708 -40.396  22.418  0.00  0.00    -0.315 OA
ATOM     26  C   UNL     1     -18.512 -41.499  22.720  0.00  0.00    +0.292 C 
ATOM     27  C   UNL     1     -18.416 -41.762  24.223  0.00  0.00    +0.102 C 
ATOM     28  C   UNL     1     -17.020 -41.783  24.663  0.00  0.00    -0.018 C 
ATOM     29  C   UNL     1     -16.030 -41.337  23.815  0.00  0.00    +0.004 C 
ATOM     30  C   UNL     1     -14.703 -41.335  24.177  0.00  0.00    -0.002 C 
ATOM     31  C   UNL     1     -14.352 -41.798  25.440  0.00  0.00    -0.000 C 
ATOM     32  C   UNL     1     -15.315 -42.252  26.317  0.00  0.00    -0.000 C 
ATOM     33  C   UNL     1     -16.635 -42.242  25.925  0.00  0.00    -0.004 C 
ATOM     34  C   UNL     1     -16.377 -40.829  22.441  0.00  0.00    +0.172 C 
ENDBRANCH  24  26
ENDBRANCH   1  24
BRANCH   2  35
ATOM     35  O   UNL     1     -21.574 -41.409  20.263  0.00  0.00    -0.432 OA
BRANCH  35  36
ATOM     36  C   UNL     1     -21.896 -40.059  20.300  0.00  0.00    +0.244 C 
ATOM     37  N   UNL     1     -23.151 -39.716  20.576  0.00  0.00    -0.141 NA
ATOM     38  N   UNL     1     -23.500 -38.455  20.622  0.00  0.00    -0.200 N 
ATOM     39  C   UNL     1     -22.633 -37.463  20.399  0.00  0.00    +0.265 C 
ATOM     40  O   UNL     1     -22.990 -36.250  20.448  0.00  0.00    -0.268 OA
ATOM     41  C   UNL     1     -21.329 -37.775  20.111  0.00  0.00    +0.064 C 
ATOM     42  C   UNL     1     -20.952 -39.092  20.060  0.00  0.00    +0.064 C 
ATOM     43  H   UNL     1     -24.436 -38.229  20.829  0.00  0.00    +0.178 HD
ENDBRANCH  35  36
ENDBRANCH   2  35
TORSDOF 8
