REMARK  Name = =
REMARK  0 active torsions:
REMARK  status: ('A' for Active; 'I' for Inactive)
REMARK                            x       y       z     vdW  Elec       q    Type
REMARK                         _______ _______ _______ _____ _____    ______ ____
ROOT
ATOM      1  C   UNL     1      -3.508  -3.874  30.946  0.00  0.00    +0.000 C 
ATOM      2  C   UNL     1      -3.167  -5.209  31.033  0.00  0.00    +0.000 C 
ATOM      3  C   UNL     1      -3.578  -5.899  32.155  0.00  0.00    +0.000 C 
ATOM      4  C   UNL     1      -4.301  -5.273  33.149  0.00  0.00    +0.000 C 
ATOM      5  C   UNL     1      -4.641  -3.936  33.059  0.00  0.00    +0.000 C 
ATOM      6  C   UNL     1      -4.232  -3.252  31.943  0.00  0.00    +0.000 C 
ENDROOT
TORSDOF 0
