REMARK  Name = =
REMARK  1 active torsions:
REMARK  status: ('A' for Active; 'I' for Inactive)
REMARK    1  A    between atoms: N_1  and  C_11
REMARK                            x       y       z     vdW  Elec       q    Type
REMARK                         _______ _______ _______ _____ _____    ______ ____
ROOT
ATOM      1  N   UNL     1      -3.080  -6.663  32.374  0.00  0.00    -0.208 N 
ATOM      2  C   UNL     1      -1.926  -6.874  33.177  0.00  0.00    +0.235 C 
ATOM      3  O   UNL     1      -1.662  -6.022  34.058  0.00  0.00    -0.274 OA
ATOM      4  C   UNL     1      -1.016  -8.031  33.040  0.00  0.00    +0.087 C 
ATOM      5  C   UNL     1      -1.470  -8.967  31.936  0.00  0.00    +0.019 C 
ATOM      6  C   UNL     1      -2.987  -9.113  31.984  0.00  0.00    +0.087 C 
ATOM      7  C   UNL     1      -3.555  -7.808  31.635  0.00  0.00    +0.235 C 
ATOM      8  O   UNL     1      -4.416  -7.586  30.754  0.00  0.00    -0.274 OA
ENDROOT
BRANCH   1  11
ATOM      9  C   UNL     1      -4.439  -3.484  31.003  0.00  0.00    +0.001 C 
ATOM     10  C   UNL     1      -3.761  -4.697  31.095  0.00  0.00    +0.015 C 
ATOM     11  C   UNL     1      -3.762  -5.432  32.267  0.00  0.00    +0.061 C 
ATOM     12  C   UNL     1      -4.460  -4.913  33.334  0.00  0.00    +0.015 C 
ATOM     13  C   UNL     1      -5.143  -3.707  33.271  0.00  0.00    +0.001 C 
ATOM     14  C   UNL     1      -5.118  -3.009  32.093  0.00  0.00    +0.000 C 
ENDBRANCH   1  11
TORSDOF 1
