REMARK  Name = =
REMARK  2 active torsions:
REMARK  status: ('A' for Active; 'I' for Inactive)
REMARK    1  A    between atoms: C_1  and  C_15
REMARK    2  A    between atoms: C_3  and  N_7
REMARK                            x       y       z     vdW  Elec       q    Type
REMARK                         _______ _______ _______ _____ _____    ______ ____
ROOT
ATOM      1  C   UNL     1      -3.548  -5.897  32.247  0.00  0.00    +0.006 C 
ATOM      2  C   UNL     1      -4.020  -4.614  32.569  0.00  0.00    +0.013 C 
ATOM      3  C   UNL     1      -4.390  -3.697  31.615  0.00  0.00    +0.060 C 
ATOM      4  C   UNL     1      -4.293  -4.048  30.287  0.00  0.00    +0.015 C 
ATOM      5  C   UNL     1      -3.837  -5.291  29.908  0.00  0.00    +0.001 C 
ATOM      6  C   UNL     1      -3.469  -6.203  30.908  0.00  0.00    -0.002 C 
ENDROOT
BRANCH   3   7
ATOM      7  N   UNL     1      -4.865  -2.410  32.028  0.00  0.00    -0.208 N 
ATOM      8  C   UNL     1      -4.610  -1.269  31.219  0.00  0.00    +0.235 C 
ATOM      9  O   UNL     1      -3.549  -1.229  30.545  0.00  0.00    -0.274 OA
ATOM     10  C   UNL     1      -5.602  -0.136  31.177  0.00  0.00    +0.087 C 
ATOM     11  C   UNL     1      -6.714  -0.416  32.162  0.00  0.00    +0.019 C 
ATOM     12  C   UNL     1      -6.215  -0.928  33.472  0.00  0.00    +0.087 C 
ATOM     13  C   UNL     1      -5.599  -2.265  33.258  0.00  0.00    +0.235 C 
ATOM     14  O   UNL     1      -5.676  -3.219  34.041  0.00  0.00    -0.274 OA
ENDBRANCH   3   7
BRANCH   1  15
ATOM     15  C   UNL     1      -3.166  -6.829  33.337  0.00  0.00    +0.137 C 
ATOM     16  C   UNL     1      -3.342  -8.256  33.064  0.00  0.00    +0.034 C 
ATOM     17  C   UNL     1      -2.157  -8.944  32.437  0.00  0.00    +0.005 C 
ATOM     18  C   UNL     1      -0.847  -8.365  32.913  0.00  0.00    +0.032 C 
ATOM     19  C   UNL     1      -0.897  -6.871  32.913  0.00  0.00    +0.143 C 
ATOM     20  O   UNL     1      -1.899  -6.475  33.802  0.00  0.00    -0.352 OA
ENDBRANCH   1  15
TORSDOF 2
