REMARK  Name = =
REMARK  6 active torsions:
REMARK  status: ('A' for Active; 'I' for Inactive)
REMARK    1  A    between atoms: C_1  and  C_15
REMARK    2  A    between atoms: C_3  and  N_7
REMARK    3  A    between atoms: C_4  and  O_21
REMARK    4  A    between atoms: O_21  and  C_22
REMARK    5  A    between atoms: C_23  and  O_29
REMARK    6  A    between atoms: C_26  and  O_28
REMARK                            x       y       z     vdW  Elec       q    Type
REMARK                         _______ _______ _______ _____ _____    ______ ____
ROOT
ATOM      1  C   UNL     1       3.686  -9.464  22.195  0.00  0.00    +0.006 C 
ATOM      2  C   UNL     1       2.915  -9.813  23.291  0.00  0.00    +0.016 C 
ATOM      3  C   UNL     1       3.466 -10.417  24.379  0.00  0.00    +0.095 C 
ATOM      4  C   UNL     1       4.842 -10.719  24.460  0.00  0.00    +0.159 C 
ATOM      5  C   UNL     1       5.581 -10.360  23.354  0.00  0.00    +0.039 C 
ATOM      6  C   UNL     1       5.021  -9.742  22.236  0.00  0.00    +0.001 C 
ENDROOT
BRANCH   3   7
ATOM      7  N   UNL     1       2.676 -10.794  25.498  0.00  0.00    -0.205 N 
ATOM      8  C   UNL     1       2.363  -9.884  26.540  0.00  0.00    +0.235 C 
ATOM      9  O   UNL     1       3.218  -8.994  26.829  0.00  0.00    -0.274 OA
ATOM     10  C   UNL     1       1.077  -9.955  27.283  0.00  0.00    +0.087 C 
ATOM     11  C   UNL     1       0.317 -11.218  26.964  0.00  0.00    +0.019 C 
ATOM     12  C   UNL     1       1.236 -12.395  26.742  0.00  0.00    +0.087 C 
ATOM     13  C   UNL     1       2.149 -12.127  25.617  0.00  0.00    +0.235 C 
ATOM     14  O   UNL     1       2.492 -12.984  24.762  0.00  0.00    -0.274 OA
ENDBRANCH   3   7
BRANCH   1  15
ATOM     15  C   UNL     1       3.101  -8.810  21.010  0.00  0.00    +0.137 C 
ATOM     16  C   UNL     1       4.106  -8.442  19.960  0.00  0.00    +0.034 C 
ATOM     17  C   UNL     1       3.383  -7.656  18.865  0.00  0.00    +0.005 C 
ATOM     18  C   UNL     1       1.944  -7.547  19.235  0.00  0.00    +0.032 C 
ATOM     19  C   UNL     1       1.331  -8.884  19.588  0.00  0.00    +0.143 C 
ATOM     20  O   UNL     1       2.128  -9.625  20.427  0.00  0.00    -0.352 OA
ENDBRANCH   1  15
BRANCH   4  21
ATOM     21  O   UNL     1       5.329 -11.294  25.519  0.00  0.00    -0.449 OA
BRANCH  21  22
ATOM     22  C   UNL     1       6.241 -12.042  26.109  0.00  0.00    +0.182 C 
ATOM     23  C   UNL     1       6.851 -11.508  27.259  0.00  0.00    +0.169 C 
ATOM     24  C   UNL     1       7.809 -12.180  27.961  0.00  0.00    +0.043 C 
ATOM     25  C   UNL     1       8.200 -13.441  27.524  0.00  0.00    +0.040 C 
ATOM     26  C   UNL     1       7.636 -14.014  26.402  0.00  0.00    +0.137 C 
ATOM     27  C   UNL     1       6.665 -13.319  25.704  0.00  0.00    +0.077 C 
BRANCH  26  28
ATOM     28  O   UNL     1       8.038 -15.274  25.978  0.00  0.00    -0.505 OA
ATOM     29  H   UNL     1       8.696 -15.741  26.454  0.00  0.00    +0.292 HD
ENDBRANCH  26  28
BRANCH  23  30
ATOM     30  O   UNL     1       6.448 -10.251  27.675  0.00  0.00    -0.503 OA
ATOM     31  H   UNL     1       5.790  -9.787  27.195  0.00  0.00    +0.292 HD
ENDBRANCH  23  30
ENDBRANCH  21  22
ENDBRANCH   4  21
TORSDOF 6
