REMARK  Name = =
REMARK  10 active torsions:
REMARK  status: ('A' for Active; 'I' for Inactive)
REMARK    1  A    between atoms: C_1  and  C_15
REMARK    2  A    between atoms: C_3  and  N_7
REMARK    3  A    between atoms: C_4  and  O_29
REMARK    4  A    between atoms: C_16  and  N_21
REMARK    5  A    between atoms: N_21  and  O_25
REMARK    6  A    between atoms: O_25  and  C_26
REMARK    7  A    between atoms: C_26  and  O_28
REMARK    8  A    between atoms: O_29  and  C_30
REMARK    9  A    between atoms: C_31  and  O_37
REMARK   10  A    between atoms: C_34  and  O_36
REMARK                            x       y       z     vdW  Elec       q    Type
REMARK                         _______ _______ _______ _____ _____    ______ ____
ROOT
ATOM      1  C   UNL     1       4.296  -8.114  23.728  0.00  0.00    +0.008 C 
ATOM      2  C   UNL     1       4.584  -6.954  24.377  0.00  0.00    +0.017 C 
ATOM      3  C   UNL     1       4.697  -5.751  23.659  0.00  0.00    +0.095 C 
ATOM      4  C   UNL     1       4.521  -5.699  22.289  0.00  0.00    +0.159 C 
ATOM      5  C   UNL     1       4.231  -6.880  21.646  0.00  0.00    +0.039 C 
ATOM      6  C   UNL     1       4.121  -8.062  22.347  0.00  0.00    +0.001 C 
ENDROOT
BRANCH   3   7
ATOM      7  N   UNL     1       4.999  -4.533  24.343  0.00  0.00    -0.205 N 
ATOM      8  C   UNL     1       6.356  -4.225  24.647  0.00  0.00    +0.235 C 
ATOM      9  O   UNL     1       7.203  -5.156  24.793  0.00  0.00    -0.274 OA
ATOM     10  C   UNL     1       6.730  -2.793  24.785  0.00  0.00    +0.087 C 
ATOM     11  C   UNL     1       5.757  -2.132  25.706  0.00  0.00    +0.019 C 
ATOM     12  C   UNL     1       4.365  -2.220  25.114  0.00  0.00    +0.087 C 
ATOM     13  C   UNL     1       4.007  -3.598  24.738  0.00  0.00    +0.235 C 
ATOM     14  O   UNL     1       2.810  -3.948  24.769  0.00  0.00    -0.274 OA
ENDBRANCH   3   7
BRANCH   1  15
ATOM     15  C   UNL     1       4.164  -9.447  24.381  0.00  0.00    +0.164 C 
ATOM     16  C   UNL     1       5.360  -9.992  25.022  0.00  0.00    +0.170 C 
ATOM     17  C   UNL     1       5.043 -10.925  26.158  0.00  0.00    -0.002 C 
ATOM     18  C   UNL     1       3.638 -11.362  26.319  0.00  0.00    +0.003 C 
ATOM     19  C   UNL     1       2.620 -10.661  25.475  0.00  0.00    +0.169 C 
ATOM     20  O   UNL     1       3.096  -9.359  25.308  0.00  0.00    -0.345 OA
BRANCH  16  21
ATOM     21  N   UNL     1       6.296 -10.661  24.101  0.00  0.00    -0.096 N 
ATOM     22  C   UNL     1       5.875 -11.625  23.164  0.00  0.00    +0.333 C 
ATOM     23  O   UNL     1       6.817 -12.113  22.422  0.00  0.00    -0.250 OA
ATOM     24  N   UNL     1       4.554 -12.089  22.974  0.00  0.00    -0.311 N 
ATOM     25  H   UNL     1       3.822 -11.731  23.527  0.00  0.00    +0.147 HD
ATOM     26  H   UNL     1       4.365 -12.770  22.288  0.00  0.00    +0.147 HD
BRANCH  21  27
ATOM     27  O   UNL     1       7.623 -10.334  24.190  0.00  0.00    -0.309 OA
BRANCH  27  28
ATOM     28  C   UNL     1       8.098  -9.077  24.441  0.00  0.00    +0.531 C 
ATOM     29  O   UNL     1       8.908  -8.568  23.614  0.00  0.00    -0.201 OA
BRANCH  28  30
ATOM     30  O   UNL     1       7.771  -8.291  25.534  0.00  0.00    -0.448 OA
ATOM     31  H   UNL     1       8.146  -7.437  25.626  0.00  0.00    +0.299 HD
ENDBRANCH  28  30
ENDBRANCH  27  28
ENDBRANCH  21  27
ENDBRANCH  16  21
ENDBRANCH   1  15
BRANCH   4  32
ATOM     32  O   UNL     1       4.647  -4.469  21.652  0.00  0.00    -0.449 OA
BRANCH  32  33
ATOM     33  C   UNL     1       3.806  -3.999  20.671  0.00  0.00    +0.182 C 
ATOM     34  C   UNL     1       2.519  -3.571  20.913  0.00  0.00    +0.169 C 
ATOM     35  C   UNL     1       1.705  -3.101  19.882  0.00  0.00    +0.043 C 
ATOM     36  C   UNL     1       2.203  -3.068  18.607  0.00  0.00    +0.040 C 
ATOM     37  C   UNL     1       3.488  -3.490  18.339  0.00  0.00    +0.137 C 
ATOM     38  C   UNL     1       4.265  -3.949  19.379  0.00  0.00    +0.077 C 
BRANCH  37  39
ATOM     39  O   UNL     1       3.999  -3.460  17.053  0.00  0.00    -0.505 OA
ATOM     40  H   UNL     1       3.470  -3.148  16.346  0.00  0.00    +0.292 HD
ENDBRANCH  37  39
BRANCH  34  41
ATOM     41  O   UNL     1       2.055  -3.622  22.227  0.00  0.00    -0.503 OA
ATOM     42  H   UNL     1       2.613  -3.940  22.909  0.00  0.00    +0.292 HD
ENDBRANCH  34  41
ENDBRANCH  32  33
ENDBRANCH   4  32
TORSDOF 10
