REMARK  Name = =
REMARK  7 active torsions:
REMARK  status: ('A' for Active; 'I' for Inactive)
REMARK    1  A    between atoms: C_1  and  N_24
REMARK    2  A    between atoms: C_7  and  O_23
REMARK    3  A    between atoms: C_15  and  O_22
REMARK    4  A    between atoms: C_18  and  O_21
REMARK    5  A    between atoms: N_24  and  C_25
REMARK    6  A    between atoms: N_24  and  C_32
REMARK    7  A    between atoms: C_35  and  C_38
REMARK                            x       y       z     vdW  Elec       q    Type
REMARK                         _______ _______ _______ _____ _____    ______ ____
ROOT
ATOM      1  C   UNL     1     -11.895 -44.007  28.131  0.00  0.00    +0.098 C 
ATOM      2  C   UNL     1     -10.835 -44.845  27.455  0.00  0.00    +0.025 C 
ATOM      3  C   UNL     1     -10.193 -45.773  28.446  0.00  0.00    +0.007 C 
ATOM      4  C   UNL     1      -9.360 -44.863  29.354  0.00  0.00    +0.026 C 
ATOM      5  C   UNL     1     -10.357 -44.001  30.079  0.00  0.00    -0.022 C 
ATOM      6  C   UNL     1     -11.559 -43.662  29.510  0.00  0.00    +0.026 C 
ATOM      7  C   UNL     1     -12.450 -42.924  30.292  0.00  0.00    +0.134 C 
ATOM      8  C   UNL     1     -12.170 -42.530  31.585  0.00  0.00    +0.075 C 
ATOM      9  C   UNL     1     -10.956 -42.880  32.128  0.00  0.00    +0.045 C 
ATOM     10  C   UNL     1     -10.060 -43.619  31.356  0.00  0.00    -0.001 C 
ATOM     11  C   UNL     1     -10.672 -42.457  33.498  0.00  0.00    +0.199 C 
ATOM     12  O   UNL     1      -9.566 -42.790  33.961  0.00  0.00    -0.286 OA
ATOM     13  C   UNL     1     -11.620 -41.686  34.299  0.00  0.00    +0.079 C 
ATOM     14  C   UNL     1     -12.856 -41.330  33.741  0.00  0.00    +0.079 C 
ATOM     15  C   UNL     1     -13.803 -40.597  34.447  0.00  0.00    +0.137 C 
ATOM     16  C   UNL     1     -13.521 -40.210  35.729  0.00  0.00    +0.040 C 
ATOM     17  C   UNL     1     -12.316 -40.541  36.309  0.00  0.00    +0.040 C 
ATOM     18  C   UNL     1     -11.363 -41.285  35.584  0.00  0.00    +0.137 C 
ATOM     19  C   UNL     1     -13.121 -41.762  32.374  0.00  0.00    +0.202 C 
ATOM     20  O   UNL     1     -14.252 -41.422  31.897  0.00  0.00    -0.286 OA
ENDROOT
BRANCH  18  21
ATOM     21  O   UNL     1     -10.209 -41.566  36.227  0.00  0.00    -0.505 OA
ATOM     22  H   UNL     1      -9.539 -42.058  35.794  0.00  0.00    +0.292 HD
ENDBRANCH  18  21
BRANCH  15  23
ATOM     23  O   UNL     1     -15.015 -40.259  33.878  0.00  0.00    -0.505 OA
ATOM     24  H   UNL     1     -15.210 -40.523  33.000  0.00  0.00    +0.292 HD
ENDBRANCH  15  23
BRANCH   7  25
ATOM     25  O   UNL     1     -13.715 -42.531  29.822  0.00  0.00    -0.506 OA
ATOM     26  H   UNL     1     -13.984 -42.758  28.954  0.00  0.00    +0.292 HD
ENDBRANCH   7  25
BRANCH   1  27
ATOM     27  N   UNL     1     -12.152 -42.838  27.284  0.00  0.00    -0.301 N 
BRANCH  27  28
ATOM     28  C   UNL     1     -11.184 -41.804  27.112  0.00  0.00    +0.131 C 
ATOM     29  C   UNL     1     -10.092 -42.247  26.120  0.00  0.00    +0.027 C 
ATOM     30  C   UNL     1      -8.882 -41.396  26.284  0.00  0.00    +0.003 C 
ATOM     31  C   UNL     1      -8.163 -41.567  27.594  0.00  0.00    +0.008 C 
ATOM     32  C   UNL     1      -9.153 -42.187  28.562  0.00  0.00    +0.066 C 
ATOM     33  C   UNL     1     -10.435 -41.416  28.333  0.00  0.00    +0.168 C 
ATOM     34  O   UNL     1     -10.727 -40.582  29.132  0.00  0.00    -0.294 OA
ENDBRANCH  27  28
BRANCH  27  35
ATOM     35  C   UNL     1     -13.391 -42.805  26.567  0.00  0.00    +0.048 C 
ATOM     36  C   UNL     1     -14.626 -42.542  27.085  0.00  0.00    +0.015 C 
ATOM     37  C   UNL     1     -15.776 -42.535  26.303  0.00  0.00    +0.006 C 
ATOM     38  C   UNL     1     -15.737 -42.793  24.958  0.00  0.00    +0.053 C 
ATOM     39  C   UNL     1     -14.504 -43.059  24.414  0.00  0.00    +0.006 C 
ATOM     40  C   UNL     1     -13.360 -43.068  25.182  0.00  0.00    +0.015 C 
BRANCH  38  41
ATOM     41  C   UNL     1     -16.938 -42.792  24.123  0.00  0.00    +0.243 C 
ATOM     42  O   UNL     1     -18.045 -42.549  24.648  0.00  0.00    -0.270 OA
ATOM     43  N   UNL     1     -16.872 -43.060  22.742  0.00  0.00    -0.325 N 
ATOM     44  H   UNL     1     -17.694 -43.054  22.200  0.00  0.00    +0.145 HD
ATOM     45  H   UNL     1     -16.004 -43.253  22.319  0.00  0.00    +0.145 HD
ENDBRANCH  38  41
ENDBRANCH  27  35
ENDBRANCH   1  27
TORSDOF 7
