REMARK  Name = =
REMARK  0 active torsions:
REMARK  status: ('A' for Active; 'I' for Inactive)
REMARK                            x       y       z     vdW  Elec       q    Type
REMARK                         _______ _______ _______ _____ _____    ______ ____
ROOT
ATOM      1  C   UNL     1      53.051 157.628  29.056  0.00  0.00    -0.000 C 
ATOM      2  C   UNL     1      52.309 158.792  29.229  0.00  0.00    -0.003 C 
ATOM      3  C   UNL     1      50.962 158.730  29.516  0.00  0.00    -0.008 C 
ATOM      4  C   UNL     1      50.364 157.496  29.627  0.00  0.00    +0.046 C 
ATOM      5  C   UNL     1      51.105 156.345  29.455  0.00  0.00    +0.014 C 
ATOM      6  C   UNL     1      52.467 156.384  29.165  0.00  0.00    +0.001 C 
ATOM      7  N   UNL     1      48.972 157.482  29.924  0.00  0.00    -0.284 N 
ATOM      8  C   UNL     1      48.246 158.691  30.094  0.00  0.00    +0.226 C 
ATOM      9  O   UNL     1      47.188 158.748  30.798  0.00  0.00    -0.275 OA
ATOM     10  C   UNL     1      48.770 159.907  29.413  0.00  0.00    +0.090 C 
ATOM     11  C   UNL     1      50.238 160.011  29.686  0.00  0.00    +0.037 C 
ATOM     12  H   UNL     1      48.505 156.620  30.013  0.00  0.00    +0.155 HD
ENDROOT
TORSDOF 0
