MODEL 1
REMARK VINA RESULT:    -7.312      0.000      0.000
REMARK INTER + INTRA:         -12.095
REMARK INTER:                 -10.305
REMARK INTRA:                  -1.790
REMARK UNBOUND:                -1.790
REMARK  Name = =
REMARK  7 active torsions:
REMARK  status: ('A' for Active; 'I' for Inactive)
REMARK    1  A    between atoms: N_1  and  N_7
REMARK    2  A    between atoms: N_1  and  N_24
REMARK    3  A    between atoms: N_7  and  C_10
REMARK    4  A    between atoms: C_8  and  C_12
REMARK    5  A    between atoms: C_12  and  C_14
REMARK    6  A    between atoms: N_24  and  C_25
REMARK    7  A    between atoms: N_24  and  N_39
REMARK                            x       y       z     vdW  Elec       q    Type
REMARK                         _______ _______ _______ _____ _____    ______ ____
ROOT
ATOM      1  N   UNL     1      61.149 163.888  39.960  0.00  0.00    -0.086 N 
ATOM      2  C   UNL     1      61.428 165.193  40.326  0.00  0.00    +0.345 C 
ATOM      3  O   UNL     1      61.113 165.578  41.512  0.00  0.00    -0.249 OA
ATOM      4  N   UNL     1      62.036 166.199  39.545  0.00  0.00    -0.230 N 
ATOM      5  C   UNL     1      62.272 167.512  40.038  0.00  0.00    +0.307 C 
ATOM      6  O   UNL     1      61.934 167.791  41.207  0.00  0.00    -0.265 OA
ATOM      7  H   UNL     1      62.307 165.985  38.623  0.00  0.00    +0.160 HD
ENDROOT
BRANCH   1   8
ATOM      8  N   UNL     1      60.512 163.038  40.981  0.00  0.00    -0.149 N 
ATOM      9  C   UNL     1      59.146 163.132  41.003  0.00  0.00    +0.305 C 
ATOM     10  O   UNL     1      58.597 163.960  40.141  0.00  0.00    -0.265 OA
BRANCH   8  11
ATOM     11  C   UNL     1      61.370 162.297  41.745  0.00  0.00    +0.132 C 
ATOM     12  S   UNL     1      61.535 160.710  41.786  0.00  0.00    -0.031 S 
ENDBRANCH   8  11
BRANCH   9  13
ATOM     13  C   UNL     1      58.202 162.461  41.826  0.00  0.00    +0.229 C 
ATOM     14  O   UNL     1      58.049 162.720  43.031  0.00  0.00    -0.286 OA
BRANCH  13  15
ATOM     15  C   UNL     1      57.302 161.375  41.303  0.00  0.00    +0.088 C 
ATOM     16  C   UNL     1      55.877 161.741  41.099  0.00  0.00    +0.042 C 
ATOM     17  C   UNL     1      55.153 160.463  41.490  0.00  0.00    +0.142 C 
ATOM     18  O   UNL     1      55.939 159.929  42.504  0.00  0.00    -0.358 OA
ATOM     19  C   UNL     1      57.263 160.135  42.117  0.00  0.00    +0.104 C 
ATOM     20  C   UNL     1      57.799 160.094  40.840  0.00  0.00    +0.042 C 
ATOM     21  C   UNL     1      58.460 159.741  39.688  0.00  0.00    +0.029 C 
ATOM     22  C   UNL     1      59.094 158.546  39.808  0.00  0.00    -0.031 C 
ATOM     23  C   UNL     1      58.821 158.082  41.147  0.00  0.00    -0.029 C 
ATOM     24  C   UNL     1      58.080 158.941  41.776  0.00  0.00    +0.050 C 
ENDBRANCH  13  15
ENDBRANCH   9  13
ENDBRANCH   1   8
BRANCH   1  25
ATOM     25  N   UNL     1      61.399 163.297  38.767  0.00  0.00    -0.114 N 
BRANCH  25  26
ATOM     26  C   UNL     1      60.528 163.021  37.694  0.00  0.00    +0.110 C 
ATOM     27  C   UNL     1      59.909 161.796  37.538  0.00  0.00    +0.020 C 
ATOM     28  C   UNL     1      59.057 161.548  36.467  0.00  0.00    +0.003 C 
ATOM     29  C   UNL     1      58.808 162.522  35.530  0.00  0.00    +0.021 C 
ATOM     30  C   UNL     1      59.423 163.772  35.664  0.00  0.00    +0.100 A 
ATOM     31  N   UNL     1      59.176 164.723  34.750  0.00  0.00    -0.242 NA
ATOM     32  C   UNL     1      59.798 165.925  34.930  0.00  0.00    +0.099 A 
ATOM     33  C   UNL     1      59.577 166.948  34.010  0.00  0.00    +0.021 C 
ATOM     34  C   UNL     1      60.200 168.153  34.194  0.00  0.00    +0.002 C 
ATOM     35  C   UNL     1      61.045 168.405  35.250  0.00  0.00    +0.002 C 
ATOM     36  C   UNL     1      61.269 167.401  36.161  0.00  0.00    +0.021 C 
ATOM     37  C   UNL     1      60.643 166.173  35.990  0.00  0.00    +0.099 A 
ATOM     38  N   UNL     1      60.870 165.181  36.899  0.00  0.00    -0.241 NA
ATOM     39  C   UNL     1      60.265 164.002  36.732  0.00  0.00    +0.116 A 
ENDBRANCH  25  26
BRANCH  25  40
ATOM     40  N   UNL     1      62.756 162.892  38.510  0.00  0.00    -0.156 NA
ATOM     41  C   UNL     1      63.083 161.650  38.609  0.00  0.00    +0.142 C 
ENDBRANCH  25  40
ENDBRANCH   1  25
TORSDOF 7
ENDMDL
