REMARK  Name = =
REMARK  4 active torsions:
REMARK  status: ('A' for Active; 'I' for Inactive)
REMARK    1  A    between atoms: C_11  and  N_15
REMARK    2  A    between atoms: N_15  and  O_19
REMARK    3  A    between atoms: O_19  and  C_20
REMARK    4  A    between atoms: C_20  and  O_22
REMARK                            x       y       z     vdW  Elec       q    Type
REMARK                         _______ _______ _______ _____ _____    ______ ____
ROOT
ATOM      1  C   UNL     1     -13.836 -45.292  31.917  0.00  0.00    -0.000 C 
ATOM      2  C   UNL     1     -12.845 -44.346  31.796  0.00  0.00    -0.004 C 
ATOM      3  C   UNL     1     -11.914 -44.404  30.634  0.00  0.00    -0.003 C 
ATOM      4  C   UNL     1     -11.015 -43.376  30.432  0.00  0.00    -0.005 C 
ATOM      5  C   UNL     1     -11.263 -42.103  31.149  0.00  0.00    +0.032 C 
ATOM      6  C   UNL     1     -11.601 -42.356  32.555  0.00  0.00    +0.031 C 
ATOM      7  C   UNL     1     -12.767 -43.269  32.661  0.00  0.00    -0.022 C 
ATOM      8  C   UNL     1     -13.704 -43.124  33.667  0.00  0.00    -0.004 C 
ATOM      9  C   UNL     1     -14.686 -44.073  33.774  0.00  0.00    -0.000 C 
ATOM     10  C   UNL     1     -14.770 -45.146  32.926  0.00  0.00    -0.000 C 
ATOM     11  C   UNL     1     -10.023 -43.496  29.487  0.00  0.00    +0.090 C 
ATOM     12  C   UNL     1      -9.937 -44.656  28.737  0.00  0.00    +0.018 C 
ATOM     13  C   UNL     1     -10.840 -45.667  28.944  0.00  0.00    +0.001 C 
ATOM     14  C   UNL     1     -11.841 -45.562  29.890  0.00  0.00    -0.000 C 
ENDROOT
BRANCH  11  15
ATOM     15  N   UNL     1      -9.077 -42.438  29.303  0.00  0.00    -0.079 N 
ATOM     16  C   UNL     1      -7.922 -42.252  30.104  0.00  0.00    +0.337 C 
ATOM     17  O   UNL     1      -7.151 -41.275  29.842  0.00  0.00    -0.249 OA
ATOM     18  N   UNL     1      -7.523 -43.064  31.186  0.00  0.00    -0.311 N 
ATOM     19  H   UNL     1      -8.070 -43.839  31.448  0.00  0.00    +0.147 HD
ATOM     20  H   UNL     1      -6.697 -42.855  31.680  0.00  0.00    +0.147 HD
BRANCH  15  21
ATOM     21  O   UNL     1      -9.301 -41.569  28.266  0.00  0.00    -0.305 OA
BRANCH  21  22
ATOM     22  C   UNL     1      -8.284 -41.414  27.292  0.00  0.00    +0.531 C 
ATOM     23  O   UNL     1      -7.884 -42.462  26.729  0.00  0.00    -0.201 OA
BRANCH  22  24
ATOM     24  O   UNL     1      -7.731 -40.216  26.947  0.00  0.00    -0.448 OA
ATOM     25  H   UNL     1      -7.060 -40.180  26.294  0.00  0.00    +0.299 HD
ENDBRANCH  22  24
ENDBRANCH  21  22
ENDBRANCH  15  21
ENDBRANCH  11  15
TORSDOF 4
