REMARK  Name = =
REMARK  8 active torsions:
REMARK  status: ('A' for Active; 'I' for Inactive)
REMARK    1  A    between atoms: C_1  and  C_16
REMARK    2  A    between atoms: C_11  and  N_25
REMARK    3  A    between atoms: C_15  and  O_21
REMARK    4  A    between atoms: O_21  and  C_24
REMARK    5  A    between atoms: S_22  and  C_24
REMARK    6  A    between atoms: N_25  and  O_29
REMARK    7  A    between atoms: O_29  and  C_30
REMARK    8  A    between atoms: C_30  and  O_32
REMARK                            x       y       z     vdW  Elec       q    Type
REMARK                         _______ _______ _______ _____ _____    ______ ____
ROOT
ATOM      1  C   UNL     1     -13.977 -44.205  32.189  0.00  0.00    +0.021 C 
ATOM      2  C   UNL     1     -12.681 -44.415  31.838  0.00  0.00    +0.002 C 
ATOM      3  C   UNL     1     -11.810 -43.288  31.492  0.00  0.00    +0.001 C 
ATOM      4  C   UNL     1     -10.521 -43.581  31.103  0.00  0.00    +0.017 C 
ATOM      5  C   UNL     1      -9.921 -44.927  31.018  0.00  0.00    +0.001 C 
ATOM      6  C   UNL     1     -10.771 -46.049  31.420  0.00  0.00    +0.000 C 
ATOM      7  C   UNL     1     -12.171 -45.722  31.740  0.00  0.00    +0.000 C 
ATOM      8  C   UNL     1     -13.026 -46.812  32.002  0.00  0.00    +0.000 C 
ATOM      9  C   UNL     1     -14.320 -46.601  32.345  0.00  0.00    +0.000 C 
ATOM     10  C   UNL     1     -14.791 -45.336  32.439  0.00  0.00    +0.002 C 
ATOM     11  C   UNL     1      -9.669 -42.551  30.711  0.00  0.00    +0.094 C 
ATOM     12  C   UNL     1     -10.114 -41.265  30.714  0.00  0.00    +0.018 C 
ATOM     13  C   UNL     1     -11.404 -40.982  31.100  0.00  0.00    +0.001 C 
ATOM     14  C   UNL     1     -12.273 -41.997  31.495  0.00  0.00    +0.000 C 
ENDROOT
BRANCH   1  16
ATOM     15  C   UNL     1     -15.446 -42.261  31.692  0.00  0.00    +0.158 C 
ATOM     16  C   UNL     1     -14.577 -42.943  32.545  0.00  0.00    +0.115 C 
ATOM     17  N   UNL     1     -14.357 -42.433  33.767  0.00  0.00    -0.241 NA
ATOM     18  C   UNL     1     -14.934 -41.299  34.205  0.00  0.00    +0.099 C 
ATOM     19  C   UNL     1     -15.802 -40.625  33.341  0.00  0.00    +0.024 C 
ATOM     20  C   UNL     1     -16.072 -41.093  32.072  0.00  0.00    +0.040 C 
BRANCH  15  21
ATOM     21  O   UNL     1     -15.654 -42.796  30.457  0.00  0.00    -0.459 OA
BRANCH  21  22
ATOM     22  C   UNL     1     -16.214 -42.260  29.349  0.00  0.00    +0.309 C 
BRANCH  22  23
ATOM     23  S   UNL     1     -17.625 -42.901  28.828  0.00  0.00    +0.170 S 
ATOM     24  O   UNL     1     -18.841 -42.200  29.538  0.00  0.00    -0.239 OA
ENDBRANCH  22  23
ENDBRANCH  21  22
ENDBRANCH  15  21
ENDBRANCH   1  16
BRANCH  11  25
ATOM     25  N   UNL     1      -8.330 -42.776  30.294  0.00  0.00    -0.079 N 
ATOM     26  C   UNL     1      -7.324 -42.978  31.257  0.00  0.00    +0.337 C 
ATOM     27  O   UNL     1      -6.108 -43.177  30.956  0.00  0.00    -0.249 OA
ATOM     28  N   UNL     1      -7.664 -42.962  32.623  0.00  0.00    -0.311 N 
ATOM     29  H   UNL     1      -8.598 -42.811  32.896  0.00  0.00    +0.147 HD
ATOM     30  H   UNL     1      -6.968 -43.102  33.305  0.00  0.00    +0.147 HD
BRANCH  25  31
ATOM     31  O   UNL     1      -7.970 -42.799  28.961  0.00  0.00    -0.305 OA
BRANCH  31  32
ATOM     32  C   UNL     1      -8.822 -42.332  27.968  0.00  0.00    +0.531 C 
ATOM     33  O   UNL     1     -10.023 -42.159  28.247  0.00  0.00    -0.201 OA
BRANCH  32  34
ATOM     34  O   UNL     1      -8.289 -42.081  26.698  0.00  0.00    -0.448 OA
ATOM     35  H   UNL     1      -7.378 -42.226  26.535  0.00  0.00    +0.299 HD
ENDBRANCH  32  34
ENDBRANCH  31  32
ENDBRANCH  25  31
ENDBRANCH  11  25
TORSDOF 8
