REMARK  Name = =
REMARK  9 active torsions:
REMARK  status: ('A' for Active; 'I' for Inactive)
REMARK    1  A    between atoms: C_1  and  C_16
REMARK    2  A    between atoms: C_11  and  N_27
REMARK    3  A    between atoms: C_15  and  O_21
REMARK    4  A    between atoms: O_21  and  C_24
REMARK    5  A    between atoms: S_22  and  C_24
REMARK    6  A    between atoms: S_22  and  C_25
REMARK    7  A    between atoms: N_27  and  O_31
REMARK    8  A    between atoms: O_31  and  C_32
REMARK    9  A    between atoms: C_32  and  O_34
REMARK                            x       y       z     vdW  Elec       q    Type
REMARK                         _______ _______ _______ _____ _____    ______ ____
ROOT
ATOM      1  C   UNL     1     -12.918 -44.216  29.269  0.00  0.00    +0.021 C 
ATOM      2  C   UNL     1     -13.347 -44.148  27.980  0.00  0.00    +0.002 C 
ATOM      3  C   UNL     1     -14.551 -43.397  27.622  0.00  0.00    +0.001 C 
ATOM      4  C   UNL     1     -14.935 -43.372  26.293  0.00  0.00    +0.017 C 
ATOM      5  C   UNL     1     -14.344 -44.195  25.213  0.00  0.00    +0.001 C 
ATOM      6  C   UNL     1     -13.027 -44.760  25.528  0.00  0.00    +0.000 C 
ATOM      7  C   UNL     1     -12.663 -44.768  26.949  0.00  0.00    +0.000 C 
ATOM      8  C   UNL     1     -11.505 -45.474  27.237  0.00  0.00    +0.000 C 
ATOM      9  C   UNL     1     -11.032 -45.567  28.505  0.00  0.00    +0.000 C 
ATOM     10  C   UNL     1     -11.730 -44.947  29.498  0.00  0.00    +0.002 C 
ATOM     11  C   UNL     1     -15.984 -42.571  25.902  0.00  0.00    +0.094 C 
ATOM     12  C   UNL     1     -16.642 -41.803  26.861  0.00  0.00    +0.018 C 
ATOM     13  C   UNL     1     -16.262 -41.833  28.166  0.00  0.00    +0.001 C 
ATOM     14  C   UNL     1     -15.187 -42.648  28.570  0.00  0.00    +0.000 C 
ENDROOT
BRANCH   1  16
ATOM     15  C   UNL     1     -12.908 -43.504  31.653  0.00  0.00    +0.157 C 
ATOM     16  C   UNL     1     -13.581 -43.808  30.462  0.00  0.00    +0.115 C 
ATOM     17  N   UNL     1     -14.950 -43.716  30.514  0.00  0.00    -0.241 NA
ATOM     18  C   UNL     1     -15.605 -43.361  31.615  0.00  0.00    +0.099 C 
ATOM     19  C   UNL     1     -14.936 -43.059  32.795  0.00  0.00    +0.024 C 
ATOM     20  C   UNL     1     -13.550 -43.138  32.796  0.00  0.00    +0.040 C 
BRANCH  15  21
ATOM     21  O   UNL     1     -11.527 -43.588  31.612  0.00  0.00    -0.461 OA
BRANCH  21  22
ATOM     22  C   UNL     1     -10.665 -42.714  32.172  0.00  0.00    +0.276 C 
BRANCH  22  23
ATOM     23  S   UNL     1      -9.295 -43.342  32.697  0.00  0.00    +0.007 S 
ATOM     24  O   UNL     1      -8.594 -43.544  31.351  0.00  0.00    -0.164 OA
ATOM     25  H   UNL     1      -9.389 -44.458  33.469  0.00  0.00    +0.124 HD
BRANCH  23  26
ATOM     26  C   UNL     1      -8.467 -42.174  33.662  0.00  0.00    +0.275 C 
ATOM     27  O   UNL     1      -8.464 -42.314  34.883  0.00  0.00    -0.275 OA
ENDBRANCH  23  26
ENDBRANCH  22  23
ENDBRANCH  21  22
ENDBRANCH  15  21
ENDBRANCH   1  16
BRANCH  11  28
ATOM     28  N   UNL     1     -16.448 -42.400  24.577  0.00  0.00    -0.079 N 
ATOM     29  C   UNL     1     -15.697 -41.718  23.584  0.00  0.00    +0.337 C 
ATOM     30  O   UNL     1     -14.578 -41.194  23.858  0.00  0.00    -0.249 OA
ATOM     31  N   UNL     1     -16.168 -41.592  22.245  0.00  0.00    -0.311 N 
ATOM     32  H   UNL     1     -15.627 -41.114  21.576  0.00  0.00    +0.147 HD
ATOM     33  H   UNL     1     -17.034 -41.983  21.989  0.00  0.00    +0.147 HD
BRANCH  28  34
ATOM     34  O   UNL     1     -17.682 -42.883  24.230  0.00  0.00    -0.305 OA
BRANCH  34  35
ATOM     35  C   UNL     1     -18.736 -41.949  24.308  0.00  0.00    +0.531 C 
ATOM     36  O   UNL     1     -18.465 -40.724  24.494  0.00  0.00    -0.201 OA
BRANCH  35  37
ATOM     37  O   UNL     1     -20.060 -42.314  24.189  0.00  0.00    -0.448 OA
ATOM     38  H   UNL     1     -20.732 -41.664  24.246  0.00  0.00    +0.299 HD
ENDBRANCH  35  37
ENDBRANCH  34  35
ENDBRANCH  28  34
ENDBRANCH  11  28
TORSDOF 9
