REMARK  Name = =
REMARK  0 active torsions:
REMARK  status: ('A' for Active; 'I' for Inactive)
REMARK                            x       y       z     vdW  Elec       q    Type
REMARK                         _______ _______ _______ _____ _____    ______ ____
ROOT
ATOM      1  C   UNL     1      -4.017  -3.925  30.886  0.00  0.00    +0.045 C 
ATOM      2  C   UNL     1      -3.135  -4.252  29.678  0.00  0.00    +0.107 C 
ATOM      3  S   UNL     1      -1.560  -3.309  29.690  0.00  0.00    -0.123 S 
ATOM      4  C   UNL     1      -0.502  -4.717  30.200  0.00  0.00    +0.076 C 
ATOM      5  C   UNL     1      -1.480  -5.840  30.202  0.00  0.00    +0.085 C 
ATOM      6  N   UNL     1      -2.785  -5.450  30.300  0.00  0.00    -0.264 NA
ATOM      7  C   UNL     1      -3.429  -5.182  31.532  0.00  0.00    +0.075 C 
ENDROOT
TORSDOF 0
