REMARK  Name = =
REMARK  1 active torsions:
REMARK  status: ('A' for Active; 'I' for Inactive)
REMARK    1  A    between atoms: C_1  and  C_19
REMARK                            x       y       z     vdW  Elec       q    Type
REMARK                         _______ _______ _______ _____ _____    ______ ____
ROOT
ATOM      1  C   UNL     1      -4.206  -2.767  31.376  0.00  0.00    -0.019 C 
ATOM      2  C   UNL     1      -4.157  -4.126  31.599  0.00  0.00    -0.004 C 
ATOM      3  C   UNL     1      -3.355  -5.001  30.901  0.00  0.00    -0.000 C 
ATOM      4  C   UNL     1      -2.533  -4.473  29.897  0.00  0.00    -0.000 C 
ATOM      5  C   UNL     1      -1.704  -5.331  29.167  0.00  0.00    -0.000 C 
ATOM      6  C   UNL     1      -1.696  -6.701  29.437  0.00  0.00    -0.000 C 
ATOM      7  C   UNL     1      -0.891  -7.597  28.741  0.00  0.00    +0.000 C 
ATOM      8  C   UNL     1      -0.068  -7.070  27.736  0.00  0.00    +0.000 C 
ATOM      9  C   UNL     1      -0.075  -5.726  27.470  0.00  0.00    +0.000 C 
ATOM     10  C   UNL     1      -0.887  -4.847  28.177  0.00  0.00    -0.000 C 
ATOM     11  C   UNL     1       0.761  -7.886  26.995  0.00  0.00    +0.000 C 
ATOM     12  C   UNL     1       0.767  -9.240  27.265  0.00  0.00    +0.000 C 
ATOM     13  C   UNL     1      -0.044  -9.768  28.256  0.00  0.00    +0.000 C 
ATOM     14  C   UNL     1      -0.861  -8.947  28.981  0.00  0.00    +0.000 C 
ATOM     15  C   UNL     1      -2.524  -7.176  30.436  0.00  0.00    -0.000 C 
ATOM     16  C   UNL     1      -3.343  -6.343  31.162  0.00  0.00    -0.000 C 
ATOM     17  C   UNL     1      -2.542  -3.126  29.633  0.00  0.00    -0.000 C 
ATOM     18  C   UNL     1      -3.387  -2.284  30.385  0.00  0.00    -0.004 C 
ENDROOT
BRANCH   1  19
ATOM     19  C   UNL     1      -5.102  -1.953  32.189  0.00  0.00    +0.063 C 
ATOM     20  C   UNL     1      -6.039  -1.123  31.301  0.00  0.00    +0.111 C 
ATOM     21  S   UNL     1      -5.690   0.649  31.642  0.00  0.00    -0.123 S 
ATOM     22  C   UNL     1      -6.685   0.662  33.189  0.00  0.00    +0.076 C 
ATOM     23  C   UNL     1      -7.588  -0.473  32.953  0.00  0.00    +0.085 C 
ATOM     24  N   UNL     1      -7.095  -1.468  32.154  0.00  0.00    -0.264 NA
ATOM     25  C   UNL     1      -6.369  -2.582  32.676  0.00  0.00    +0.079 C 
ENDBRANCH   1  19
TORSDOF 1
