REMARK  Name = =
REMARK  2 active torsions:
REMARK  status: ('A' for Active; 'I' for Inactive)
REMARK    1  A    between atoms: C_1  and  C_27
REMARK    2  A    between atoms: C_15  and  C_19
REMARK                            x       y       z     vdW  Elec       q    Type
REMARK                         _______ _______ _______ _____ _____    ______ ____
ROOT
ATOM      1  C   UNL     1      -6.421  -1.946  32.195  0.00  0.00    -0.019 C 
ATOM      2  C   UNL     1      -5.781  -3.165  32.270  0.00  0.00    -0.004 C 
ATOM      3  C   UNL     1      -4.621  -3.476  31.567  0.00  0.00    -0.000 C 
ATOM      4  C   UNL     1      -4.086  -2.510  30.750  0.00  0.00    -0.000 C 
ATOM      5  C   UNL     1      -2.940  -2.798  30.038  0.00  0.00    +0.000 C 
ATOM      6  C   UNL     1      -2.330  -4.084  30.151  0.00  0.00    +0.000 C 
ATOM      7  C   UNL     1      -1.188  -4.342  29.417  0.00  0.00    +0.000 C 
ATOM      8  C   UNL     1      -0.669  -3.342  28.611  0.00  0.00    +0.000 C 
ATOM      9  C   UNL     1      -1.270  -2.099  28.518  0.00  0.00    +0.000 C 
ATOM     10  C   UNL     1      -2.411  -1.829  29.233  0.00  0.00    +0.000 C 
ATOM     11  C   UNL     1       0.427  -3.599  27.832  0.00  0.00    +0.000 C 
ATOM     12  C   UNL     1       1.012  -4.843  27.836  0.00  0.00    +0.000 C 
ATOM     13  C   UNL     1       0.489  -5.833  28.626  0.00  0.00    +0.000 C 
ATOM     14  C   UNL     1      -0.630  -5.586  29.430  0.00  0.00    +0.000 C 
ATOM     15  C   UNL     1      -2.864  -5.013  30.973  0.00  0.00    +0.002 C 
ATOM     16  C   UNL     1      -4.043  -4.700  31.694  0.00  0.00    +0.000 C 
ATOM     17  C   UNL     1      -4.697  -1.261  30.639  0.00  0.00    -0.000 C 
ATOM     18  C   UNL     1      -5.852  -0.997  31.361  0.00  0.00    -0.004 C 
ENDROOT
BRANCH  15  19
ATOM     19  C   UNL     1      -2.228  -6.243  31.433  0.00  0.00    +0.030 C 
ATOM     20  C   UNL     1      -2.872  -7.471  31.241  0.00  0.00    +0.167 C 
ATOM     21  C   UNL     1      -2.349  -8.604  31.813  0.00  0.00    +0.167 C 
ATOM     22  C   UNL     1      -1.202  -8.585  32.579  0.00  0.00    +0.032 C 
ATOM     23  C   UNL     1      -0.555  -7.393  32.780  0.00  0.00    +0.002 C 
ATOM     24  C   UNL     1      -1.072  -6.266  32.212  0.00  0.00    +0.002 C 
ATOM     25  F   UNL     1      -2.967  -9.819  31.636  0.00  0.00    -0.202 F 
ATOM     26  F   UNL     1      -4.017  -7.535  30.486  0.00  0.00    -0.202 F 
ENDBRANCH  15  19
BRANCH   1  27
ATOM     27  C   UNL     1      -7.623  -1.719  32.987  0.00  0.00    +0.063 C 
ATOM     28  C   UNL     1      -8.781  -2.686  32.832  0.00  0.00    +0.111 C 
ATOM     29  S   UNL     1      -9.245  -2.920  31.097  0.00  0.00    -0.123 S 
ATOM     30  C   UNL     1     -10.754  -1.866  31.104  0.00  0.00    +0.076 C 
ATOM     31  C   UNL     1     -10.893  -1.681  32.600  0.00  0.00    +0.085 C 
ATOM     32  N   UNL     1      -9.624  -1.561  33.197  0.00  0.00    -0.264 NA
ATOM     33  C   UNL     1      -8.631  -0.722  32.552  0.00  0.00    +0.079 C 
ENDBRANCH   1  27
TORSDOF 2
