REMARK  Name = =
REMARK  3 active torsions:
REMARK  status: ('A' for Active; 'I' for Inactive)
REMARK    1  A    between atoms: C_1  and  C_27
REMARK    2  A    between atoms: C_15  and  C_19
REMARK    3  A    between atoms: C_16  and  C_34
REMARK                            x       y       z     vdW  Elec       q    Type
REMARK                         _______ _______ _______ _____ _____    ______ ____
ROOT
ATOM      1  C   UNL     1      -5.866  -2.627  32.200  0.00  0.00    -0.019 C 
ATOM      2  C   UNL     1      -5.145  -3.800  32.206  0.00  0.00    -0.004 C 
ATOM      3  C   UNL     1      -4.005  -3.969  31.422  0.00  0.00    +0.002 A 
ATOM      4  C   UNL     1      -3.610  -2.912  30.625  0.00  0.00    +0.000 A 
ATOM      5  C   UNL     1      -2.480  -3.060  29.839  0.00  0.00    +0.000 A 
ATOM      6  C   UNL     1      -1.757  -4.280  29.863  0.00  0.00    +0.000 A 
ATOM      7  C   UNL     1      -0.628  -4.376  29.054  0.00  0.00    +0.000 C 
ATOM      8  C   UNL     1      -0.247  -3.287  28.255  0.00  0.00    +0.000 C 
ATOM      9  C   UNL     1      -0.972  -2.125  28.260  0.00  0.00    +0.000 C 
ATOM     10  C   UNL     1      -2.081  -2.018  29.048  0.00  0.00    +0.000 C 
ATOM     11  C   UNL     1       0.873  -3.387  27.449  0.00  0.00    +0.000 C 
ATOM     12  C   UNL     1       1.597  -4.543  27.436  0.00  0.00    +0.000 C 
ATOM     13  C   UNL     1       1.241  -5.608  28.204  0.00  0.00    +0.000 C 
ATOM     14  C   UNL     1       0.102  -5.524  29.030  0.00  0.00    +0.000 C 
ATOM     15  C   UNL     1      -2.150  -5.308  30.648  0.00  0.00    +0.005 A 
ATOM     16  C   UNL     1      -3.312  -5.144  31.451  0.00  0.00    +0.035 A 
ATOM     17  C   UNL     1      -4.323  -1.729  30.608  0.00  0.00    -0.000 C 
ATOM     18  C   UNL     1      -5.467  -1.586  31.408  0.00  0.00    -0.004 C 
ENDROOT
BRANCH  15  19
ATOM     19  C   UNL     1      -1.576  -6.590  30.849  0.00  0.00    +0.030 C 
ATOM     20  C   UNL     1      -0.809  -6.905  31.979  0.00  0.00    +0.167 C 
ATOM     21  C   UNL     1      -0.386  -8.179  32.196  0.00  0.00    +0.167 C 
ATOM     22  C   UNL     1      -0.699  -9.193  31.311  0.00  0.00    +0.032 C 
ATOM     23  C   UNL     1      -1.452  -8.919  30.190  0.00  0.00    +0.002 C 
ATOM     24  C   UNL     1      -1.866  -7.629  29.992  0.00  0.00    +0.002 C 
ATOM     25  F   UNL     1       0.360  -8.472  33.299  0.00  0.00    -0.202 F 
ATOM     26  F   UNL     1      -0.477  -5.938  32.874  0.00  0.00    -0.202 F 
ENDBRANCH  15  19
BRANCH   1  27
ATOM     27  C   UNL     1      -7.036  -2.561  33.066  0.00  0.00    +0.063 C 
ATOM     28  C   UNL     1      -8.357  -3.086  32.479  0.00  0.00    +0.111 C 
ATOM     29  S   UNL     1      -8.711  -2.317  30.875  0.00  0.00    -0.123 S 
ATOM     30  C   UNL     1     -10.020  -1.156  31.444  0.00  0.00    +0.076 C 
ATOM     31  C   UNL     1     -10.219  -1.703  32.842  0.00  0.00    +0.085 C 
ATOM     32  N   UNL     1      -8.983  -2.106  33.383  0.00  0.00    -0.264 NA
ATOM     33  C   UNL     1      -7.817  -1.269  33.112  0.00  0.00    +0.079 C 
ENDBRANCH   1  27
BRANCH  16  34
ATOM     34  C   UNL     1      -3.801  -6.201  32.320  0.00  0.00    +0.173 C 
ATOM     35  O   UNL     1      -3.632  -6.129  33.581  0.00  0.00    -0.291 OA
ATOM     36  C   UNL     1      -4.510  -7.407  31.825  0.00  0.00    +0.077 C 
ENDBRANCH  16  34
TORSDOF 3
