REMARK  Name = =
REMARK  0 active torsions:
REMARK  status: ('A' for Active; 'I' for Inactive)
REMARK                            x       y       z     vdW  Elec       q    Type
REMARK                         _______ _______ _______ _____ _____    ______ ____
ROOT
ATOM      1  C   UNL     1      49.369 160.400  31.732  0.00  0.00    -0.026 C 
ATOM      2  C   UNL     1      49.768 159.489  30.777  0.00  0.00    -0.026 C 
ATOM      3  C   UNL     1      48.850 158.400  30.351  0.00  0.00    +0.026 C 
ATOM      4  C   UNL     1      47.455 158.986  30.345  0.00  0.00    +0.005 C 
ATOM      5  C   UNL     1      47.104 159.375  31.742  0.00  0.00    +0.005 C 
ATOM      6  C   UNL     1      48.023 160.351  32.384  0.00  0.00    +0.026 C 
ATOM      7  C   UNL     1      51.033 159.628  30.243  0.00  0.00    -0.009 C 
ATOM      8  C   UNL     1      51.886 160.631  30.631  0.00  0.00    -0.022 C 
ATOM      9  C   UNL     1      51.505 161.550  31.585  0.00  0.00    -0.022 C 
ATOM     10  C   UNL     1      50.244 161.414  32.119  0.00  0.00    -0.009 C 
ATOM     11  C   UNL     1      52.383 162.657  32.046  0.00  0.00    +0.052 C 
ATOM     12  C   UNL     1      53.800 162.430  31.777  0.00  0.00    -0.021 C 
ATOM     13  C   UNL     1      54.169 161.522  30.826  0.00  0.00    -0.021 C 
ATOM     14  C   UNL     1      53.223 160.727  30.024  0.00  0.00    +0.052 C 
ATOM     15  C   UNL     1      55.517 161.333  30.599  0.00  0.00    -0.004 C 
ATOM     16  C   UNL     1      56.467 162.055  31.327  0.00  0.00    -0.000 C 
ATOM     17  C   UNL     1      56.083 162.965  32.279  0.00  0.00    -0.000 C 
ATOM     18  C   UNL     1      54.732 163.150  32.502  0.00  0.00    -0.004 C 
ENDROOT
TORSDOF 0
