REMARK  Name = =
REMARK  1 active torsions:
REMARK  status: ('A' for Active; 'I' for Inactive)
REMARK    1  A    between atoms: C_1  and  C_8
REMARK                            x       y       z     vdW  Elec       q    Type
REMARK                         _______ _______ _______ _____ _____    ______ ____
ROOT
ATOM      1  C   UNL     1      49.973 158.691  30.286  0.00  0.00    +0.053 C 
ATOM      2  C   UNL     1      48.706 158.490  30.777  0.00  0.00    +0.005 C 
ATOM      3  C   UNL     1      47.872 159.504  31.192  0.00  0.00    +0.000 C 
ATOM      4  C   UNL     1      48.329 160.800  31.112  0.00  0.00    +0.000 C 
ATOM      5  C   UNL     1      49.607 161.026  30.617  0.00  0.00    +0.000 C 
ATOM      6  C   UNL     1      50.434 160.009  30.205  0.00  0.00    +0.005 C 
ENDROOT
BRANCH   1   8
ATOM      7  N   UNL     1      50.237 156.284  29.847  0.00  0.00    -0.325 N 
ATOM      8  C   UNL     1      50.786 157.570  29.872  0.00  0.00    +0.243 C 
ATOM      9  O   UNL     1      51.974 157.742  29.538  0.00  0.00    -0.270 OA
ATOM     10  H   UNL     1      49.299 156.144  30.110  0.00  0.00    +0.145 HD
ATOM     11  H   UNL     1      50.789 155.519  29.566  0.00  0.00    +0.145 HD
ENDBRANCH   1   8
TORSDOF 1
