REMARK  Name = =
REMARK  3 active torsions:
REMARK  status: ('A' for Active; 'I' for Inactive)
REMARK    1  A    between atoms: C_1  and  O_8
REMARK    2  A    between atoms: C_5  and  C_10
REMARK    3  A    between atoms: C_6  and  O_9
REMARK                            x       y       z     vdW  Elec       q    Type
REMARK                         _______ _______ _______ _____ _____    ______ ____
ROOT
ATOM      1  C   UNL     1      52.433 155.789  28.017  0.00  0.00    +0.122 C 
ATOM      2  C   UNL     1      52.988 156.315  26.946  0.00  0.00    +0.075 C 
ATOM      3  C   UNL     1      53.394 155.477  25.807  0.00  0.00    +0.204 C 
ATOM      4  O   UNL     1      53.923 156.001  24.792  0.00  0.00    -0.286 OA
ATOM      5  C   UNL     1      53.168 154.040  25.887  0.00  0.00    +0.111 C 
ATOM      6  C   UNL     1      52.610 153.560  26.976  0.00  0.00    +0.125 C 
ATOM      7  C   UNL     1      52.183 154.345  28.148  0.00  0.00    +0.127 C 
ENDROOT
BRANCH   1   8
ATOM      8  O   UNL     1      52.071 156.656  29.070  0.00  0.00    -0.509 OA
ATOM      9  H   UNL     1      51.674 156.311  29.845  0.00  0.00    +0.292 HD
ENDBRANCH   1   8
BRANCH   6  10
ATOM     10  O   UNL     1      52.406 152.184  27.025  0.00  0.00    -0.509 OA
ATOM     11  H   UNL     1      52.662 151.646  26.302  0.00  0.00    +0.292 HD
ENDBRANCH   6  10
BRANCH   5  12
ATOM     12  C   UNL     1      53.573 153.218  24.755  0.00  0.00    +0.240 C 
ATOM     13  O   UNL     1      53.944 153.656  23.663  0.00  0.00    -0.283 OA
ENDBRANCH   5  12
TORSDOF 3
