REMARK  Name = =
REMARK  6 active torsions:
REMARK  status: ('A' for Active; 'I' for Inactive)
REMARK    1  A    between atoms: C_1  and  O_11
REMARK    2  A    between atoms: C_5  and  C_9
REMARK    3  A    between atoms: C_6  and  O_8
REMARK    4  A    between atoms: O_11  and  N_12
REMARK    5  A    between atoms: C_13  and  C_15
REMARK    6  A    between atoms: C_15  and  O_17
REMARK                            x       y       z     vdW  Elec       q    Type
REMARK                         _______ _______ _______ _____ _____    ______ ____
ROOT
ATOM      1  C   UNL     1      53.621 155.580  26.200  0.00  0.00    +0.158 C 
ATOM      2  C   UNL     1      54.201 155.420  25.037  0.00  0.00    +0.078 C 
ATOM      3  C   UNL     1      54.368 154.097  24.447  0.00  0.00    +0.204 C 
ATOM      4  O   UNL     1      54.918 153.915  23.337  0.00  0.00    -0.286 OA
ATOM      5  C   UNL     1      53.851 152.987  25.236  0.00  0.00    +0.111 C 
ATOM      6  C   UNL     1      53.273 153.173  26.399  0.00  0.00    +0.125 C 
ATOM      7  C   UNL     1      53.105 154.494  26.992  0.00  0.00    +0.131 C 
ENDROOT
BRANCH   6   8
ATOM      8  O   UNL     1      52.790 152.021  27.112  0.00  0.00    -0.509 OA
ATOM      9  H   UNL     1      52.891 151.166  26.743  0.00  0.00    +0.292 HD
ENDBRANCH   6   8
BRANCH   5  10
ATOM     10  C   UNL     1      53.977 151.605  24.712  0.00  0.00    +0.240 C 
ATOM     11  O   UNL     1      53.615 150.649  25.433  0.00  0.00    -0.283 OA
ENDBRANCH   5  10
BRANCH   1  12
ATOM     12  O   UNL     1      53.542 156.926  26.623  0.00  0.00    -0.388 OA
BRANCH  12  13
ATOM     13  N   UNL     1      52.964 157.297  27.789  0.00  0.00    -0.139 N 
ATOM     14  C   UNL     1      51.796 156.612  28.222  0.00  0.00    +0.353 C 
ATOM     15  O   UNL     1      51.322 155.680  27.519  0.00  0.00    -0.260 OA
ATOM     16  H   UNL     1      53.345 158.028  28.327  0.00  0.00    +0.196 HD
BRANCH  14  17
ATOM     17  C   UNL     1      51.142 156.986  29.480  0.00  0.00    +0.395 C 
ATOM     18  O   UNL     1      51.565 157.970  30.130  0.00  0.00    -0.240 OA
BRANCH  17  19
ATOM     19  O   UNL     1      50.061 156.248  29.943  0.00  0.00    -0.474 OA
ATOM     20  H   UNL     1      49.750 155.513  29.451  0.00  0.00    +0.296 HD
ENDBRANCH  17  19
ENDBRANCH  14  17
ENDBRANCH  12  13
ENDBRANCH   1  12
TORSDOF 6
