REMARK  Name = =
REMARK  2 active torsions:
REMARK  status: ('A' for Active; 'I' for Inactive)
REMARK    1  A    between atoms: C_7  and  S_19
REMARK    2  A    between atoms: S_19  and  C_20
REMARK                            x       y       z     vdW  Elec       q    Type
REMARK                         _______ _______ _______ _____ _____    ______ ____
ROOT
ATOM      1  C   UNL     1      49.483 160.450  31.938  0.00  0.00    -0.026 C 
ATOM      2  C   UNL     1      49.800 159.680  30.842  0.00  0.00    -0.020 C 
ATOM      3  C   UNL     1      48.920 158.605  30.321  0.00  0.00    +0.027 C 
ATOM      4  C   UNL     1      47.605 158.507  31.017  0.00  0.00    +0.005 C 
ATOM      5  C   UNL     1      47.180 159.879  31.553  0.00  0.00    +0.005 C 
ATOM      6  C   UNL     1      48.210 160.210  32.641  0.00  0.00    +0.026 C 
ATOM      7  C   UNL     1      50.989 159.892  30.169  0.00  0.00    +0.025 C 
ATOM      8  C   UNL     1      51.815 160.884  30.640  0.00  0.00    -0.016 C 
ATOM      9  C   UNL     1      51.544 161.669  31.717  0.00  0.00    -0.021 C 
ATOM     10  C   UNL     1      50.332 161.430  32.376  0.00  0.00    -0.009 C 
ATOM     11  C   UNL     1      52.444 162.739  32.213  0.00  0.00    +0.052 C 
ATOM     12  C   UNL     1      53.839 162.441  31.898  0.00  0.00    -0.021 C 
ATOM     13  C   UNL     1      54.131 161.672  30.810  0.00  0.00    -0.021 C 
ATOM     14  C   UNL     1      53.093 161.105  29.915  0.00  0.00    +0.052 C 
ATOM     15  C   UNL     1      55.449 161.399  30.521  0.00  0.00    -0.004 C 
ATOM     16  C   UNL     1      56.459 161.901  31.325  0.00  0.00    -0.000 C 
ATOM     17  C   UNL     1      56.128 162.680  32.424  0.00  0.00    -0.000 C 
ATOM     18  C   UNL     1      54.823 162.959  32.724  0.00  0.00    -0.004 C 
ENDROOT
BRANCH   7  19
ATOM     19  S   UNL     1      51.416 158.908  28.752  0.00  0.00    -0.031 S 
BRANCH  19  20
ATOM     20  C   UNL     1      51.833 157.242  29.181  0.00  0.00    +0.274 C 
ATOM     21  O   UNL     1      51.363 156.720  30.208  0.00  0.00    -0.263 OA
ATOM     22  N   UNL     1      52.703 156.502  28.355  0.00  0.00    -0.320 N 
ATOM     23  H   UNL     1      53.077 156.912  27.542  0.00  0.00    +0.146 HD
ATOM     24  H   UNL     1      52.937 155.575  28.591  0.00  0.00    +0.146 HD
ENDBRANCH  19  20
ENDBRANCH   7  19
TORSDOF 2
