REMARK  Name = =
REMARK  6 active torsions:
REMARK  status: ('A' for Active; 'I' for Inactive)
REMARK    1  A    between atoms: C_7  and  S_19
REMARK    2  A    between atoms: S_19  and  C_21
REMARK    3  A    between atoms: P_24  and  O_25
REMARK    4  A    between atoms: P_24  and  O_27
REMARK    5  A    between atoms: P_24  and  O_28
REMARK    6  A    between atoms: O_25  and  O_26
REMARK                            x       y       z     vdW  Elec       q    Type
REMARK                         _______ _______ _______ _____ _____    ______ ____
ROOT
ATOM      1  C   UNL     1      49.216 160.789  30.798  0.00  0.00    -0.026 C 
ATOM      2  C   UNL     1      49.672 159.566  30.275  0.00  0.00    -0.020 C 
ATOM      3  C   UNL     1      48.581 158.710  29.791  0.00  0.00    +0.027 C 
ATOM      4  C   UNL     1      47.624 158.513  30.953  0.00  0.00    +0.005 C 
ATOM      5  C   UNL     1      47.008 159.832  31.315  0.00  0.00    +0.005 C 
ATOM      6  C   UNL     1      47.752 161.041  30.811  0.00  0.00    +0.026 C 
ATOM      7  C   UNL     1      51.019 159.246  30.231  0.00  0.00    +0.025 C 
ATOM      8  C   UNL     1      51.881 160.227  30.737  0.00  0.00    -0.016 C 
ATOM      9  C   UNL     1      51.452 161.433  31.254  0.00  0.00    -0.021 C 
ATOM     10  C   UNL     1      50.095 161.708  31.281  0.00  0.00    -0.009 C 
ATOM     11  C   UNL     1      52.415 162.447  31.811  0.00  0.00    +0.052 C 
ATOM     12  C   UNL     1      53.682 162.456  31.065  0.00  0.00    -0.021 C 
ATOM     13  C   UNL     1      54.104 161.268  30.517  0.00  0.00    -0.021 C 
ATOM     14  C   UNL     1      53.332 159.986  30.649  0.00  0.00    +0.052 C 
ATOM     15  C   UNL     1      55.311 161.315  29.817  0.00  0.00    -0.004 C 
ATOM     16  C   UNL     1      56.039 162.477  29.681  0.00  0.00    -0.000 C 
ATOM     17  C   UNL     1      55.581 163.648  30.245  0.00  0.00    -0.000 C 
ATOM     18  C   UNL     1      54.401 163.630  30.937  0.00  0.00    -0.004 C 
ENDROOT
BRANCH   7  19
ATOM     19  S   UNL     1      51.451 157.752  29.567  0.00  0.00    -0.031 S 
BRANCH  19  20
ATOM     20  C   UNL     1      50.184 156.552  29.953  0.00  0.00    +0.274 C 
ATOM     21  O   UNL     1      49.172 156.517  29.190  0.00  0.00    -0.263 OA
ATOM     22  N   UNL     1      50.225 155.654  31.024  0.00  0.00    -0.320 N 
ATOM     23  H   UNL     1      50.996 155.653  31.637  0.00  0.00    +0.146 HD
ATOM     24  H   UNL     1      49.483 155.022  31.165  0.00  0.00    +0.146 HD
ENDBRANCH  19  20
ENDBRANCH   7  19
TORSDOF 2
REMARK  Name = =
REMARK  6 active torsions:
REMARK  status: ('A' for Active; 'I' for Inactive)
REMARK    1  A    between atoms: C_7  and  S_19
REMARK    2  A    between atoms: S_19  and  C_21
REMARK    3  A    between atoms: P_24  and  O_25
REMARK    4  A    between atoms: P_24  and  O_27
REMARK    5  A    between atoms: P_24  and  O_28
REMARK    6  A    between atoms: O_25  and  O_26
REMARK                            x       y       z     vdW  Elec       q    Type
REMARK                         _______ _______ _______ _____ _____    ______ ____
ROOT
ATOM      1  H   UNK     1      52.229 157.254  31.306  0.00  0.00    +0.000 HD
ENDROOT
TORSDOF 0
REMARK  Name = =
REMARK  6 active torsions:
REMARK  status: ('A' for Active; 'I' for Inactive)
REMARK    1  A    between atoms: C_7  and  S_19
REMARK    2  A    between atoms: S_19  and  C_21
REMARK    3  A    between atoms: P_24  and  O_25
REMARK    4  A    between atoms: P_24  and  O_27
REMARK    5  A    between atoms: P_24  and  O_28
REMARK    6  A    between atoms: O_25  and  O_26
REMARK                            x       y       z     vdW  Elec       q    Type
REMARK                         _______ _______ _______ _____ _____    ______ ____
ROOT
ATOM      1  P   UNL     1      52.516 157.275  28.628  0.00  0.00    +0.249 P 
ATOM      2  H   UNL     1      51.377 157.341  29.405  0.00  0.00    +0.144 HD
ENDROOT
BRANCH   1   3
ATOM      3  O   UNL     1      51.644 156.924  27.243  0.00  0.00    -0.336 OA
ATOM      4  H   UNL     1      52.253 156.821  26.495  0.00  0.00    +0.218 HD
ENDBRANCH   1   3
BRANCH   1   5
ATOM      5  O   UNL     1      53.850 158.027  28.041  0.00  0.00    -0.336 OA
ATOM      6  H   UNL     1      54.345 157.413  27.476  0.00  0.00    +0.218 HD
ENDBRANCH   1   5
BRANCH   1   7
ATOM      7  O   UNL     1      53.836 156.791  29.239  0.00  0.00    -0.169 OA
BRANCH   7   8
ATOM      8  O   UNL     1      52.856 155.667  29.111  0.00  0.00    -0.243 OA
ATOM      9  H   UNL     1      53.257 154.849  29.444  0.00  0.00    +0.254 HD
ENDBRANCH   7   8
ENDBRANCH   1   7
TORSDOF 4
