REMARK  Name = =
REMARK  6 active torsions:
REMARK  status: ('A' for Active; 'I' for Inactive)
REMARK    1  A    between atoms: S_1  and  C_9
REMARK    2  A    between atoms: S_1  and  C_21
REMARK    3  A    between atoms: O_25  and  O_28
REMARK    4  A    between atoms: O_27  and  O_28
REMARK    5  A    between atoms: S_29  and  S_30
REMARK    6  A    between atoms: S_29  and  S_31
REMARK                            x       y       z     vdW  Elec       q    Type
REMARK                         _______ _______ _______ _____ _____    ______ ____
ROOT
ATOM      1  C   UNL     1      49.933 161.356  33.384  0.00  0.00    -0.026 C 
ATOM      2  C   UNL     1      49.816 160.411  32.400  0.00  0.00    -0.020 C 
ATOM      3  C   UNL     1      48.681 159.495  32.530  0.00  0.00    +0.027 C 
ATOM      4  C   UNL     1      47.449 160.378  32.620  0.00  0.00    +0.005 C 
ATOM      5  C   UNL     1      47.498 161.217  33.859  0.00  0.00    +0.005 C 
ATOM      6  C   UNL     1      48.877 161.350  34.465  0.00  0.00    +0.026 C 
ATOM      7  C   UNL     1      50.722 160.302  31.327  0.00  0.00    +0.024 C 
ATOM      8  C   UNL     1      51.742 161.227  31.353  0.00  0.00    +0.005 C 
ATOM      9  C   UNL     1      51.877 162.188  32.337  0.00  0.00    +0.000 C 
ATOM     10  C   UNL     1      50.950 162.250  33.372  0.00  0.00    -0.005 C 
ATOM     11  C   UNL     1      52.941 163.221  32.405  0.00  0.00    +0.000 C 
ATOM     12  C   UNL     1      54.121 162.918  31.601  0.00  0.00    +0.000 C 
ATOM     13  C   UNL     1      54.005 161.964  30.640  0.00  0.00    +0.000 C 
ATOM     14  C   UNL     1      52.785 161.187  30.321  0.00  0.00    +0.000 C 
ATOM     15  C   UNL     1      55.150 161.698  29.888  0.00  0.00    +0.000 C 
ATOM     16  C   UNL     1      56.342 162.357  30.094  0.00  0.00    +0.000 C 
ATOM     17  C   UNL     1      56.432 163.318  31.072  0.00  0.00    +0.000 C 
ATOM     18  C   UNL     1      55.302 163.593  31.827  0.00  0.00    +0.000 C 
ENDROOT
BRANCH   7  19
ATOM     19  S   UNL     1      50.448 159.118  30.223  0.00  0.00    -0.058 S 
ATOM     20  P   UNL     1      51.461 157.864  29.888  0.00  0.00    +0.039 P 
BRANCH  19  21
ATOM     21  C   UNL     1      48.964 159.104  29.430  0.00  0.00    +0.269 C 
ATOM     22  O   UNL     1      47.919 158.933  30.115  0.00  0.00    -0.263 OA
ATOM     23  N   UNL     1      48.670 159.260  28.037  0.00  0.00    -0.320 N 
ATOM     24  H   UNL     1      47.737 159.227  27.724  0.00  0.00    +0.146 HD
ATOM     25  H   UNL     1      49.401 159.400  27.392  0.00  0.00    +0.146 HD
ENDBRANCH  19  21
ENDBRANCH   7  19
TORSDOF 2
REMARK  Name = =
REMARK  6 active torsions:
REMARK  status: ('A' for Active; 'I' for Inactive)
REMARK    1  A    between atoms: S_1  and  C_9
REMARK    2  A    between atoms: S_1  and  C_21
REMARK    3  A    between atoms: O_25  and  O_28
REMARK    4  A    between atoms: O_27  and  O_28
REMARK    5  A    between atoms: S_29  and  S_30
REMARK    6  A    between atoms: S_29  and  S_31
REMARK                            x       y       z     vdW  Elec       q    Type
REMARK                         _______ _______ _______ _____ _____    ______ ____
ROOT
ATOM      1  H   UNK     1      51.223 160.173  28.734  0.00  0.00    +0.000 HD
ENDROOT
TORSDOF 0
REMARK  Name = =
REMARK  6 active torsions:
REMARK  status: ('A' for Active; 'I' for Inactive)
REMARK    1  A    between atoms: S_1  and  C_9
REMARK    2  A    between atoms: S_1  and  C_21
REMARK    3  A    between atoms: O_25  and  O_28
REMARK    4  A    between atoms: O_27  and  O_28
REMARK    5  A    between atoms: S_29  and  S_30
REMARK    6  A    between atoms: S_29  and  S_31
REMARK                            x       y       z     vdW  Elec       q    Type
REMARK                         _______ _______ _______ _____ _____    ______ ____
ROOT
ATOM      1  O   UNL     1      51.119 156.469  29.067  0.00  0.00    -0.072 OA
ENDROOT
BRANCH   1   2
ATOM      2  O   UNL     1      50.371 157.070  29.308  0.00  0.00    -0.220 OA
ATOM      3  H   UNL     1      49.784 156.620  29.935  0.00  0.00    +0.256 HD
ENDBRANCH   1   2
BRANCH   1   4
ATOM      4  O   UNL     1      51.468 157.751  28.213  0.00  0.00    -0.220 OA
ATOM      5  H   UNL     1      52.284 157.594  27.713  0.00  0.00    +0.256 HD
ENDBRANCH   1   4
TORSDOF 2
REMARK  Name = =
REMARK  6 active torsions:
REMARK  status: ('A' for Active; 'I' for Inactive)
REMARK    1  A    between atoms: S_1  and  C_9
REMARK    2  A    between atoms: S_1  and  C_21
REMARK    3  A    between atoms: O_25  and  O_28
REMARK    4  A    between atoms: O_27  and  O_28
REMARK    5  A    between atoms: S_29  and  S_30
REMARK    6  A    between atoms: S_29  and  S_31
REMARK                            x       y       z     vdW  Elec       q    Type
REMARK                         _______ _______ _______ _____ _____    ______ ____
ROOT
ATOM      1  O   HOH     1      53.114 157.704  29.454  0.00  0.00    -0.253 OA
ATOM      2  H   HOH     0      54.084 157.704  29.454  0.00  0.00    +0.253 HD
ENDROOT
TORSDOF 0
REMARK  Name = =
REMARK  6 active torsions:
REMARK  status: ('A' for Active; 'I' for Inactive)
REMARK    1  A    between atoms: S_1  and  C_9
REMARK    2  A    between atoms: S_1  and  C_21
REMARK    3  A    between atoms: O_25  and  O_28
REMARK    4  A    between atoms: O_27  and  O_28
REMARK    5  A    between atoms: S_29  and  S_30
REMARK    6  A    between atoms: S_29  and  S_31
REMARK                            x       y       z     vdW  Elec       q    Type
REMARK                         _______ _______ _______ _____ _____    ______ ____
ROOT
ATOM      1  S   UNL     1      52.014 155.117  29.700  0.00  0.00    -0.114 S 
ATOM      2  H   UNL     1      53.255 155.104  30.255  0.00  0.00    +0.114 HD
ENDROOT
BRANCH   1   3
ATOM      3  S   UNL     1      50.972 154.732  30.956  0.00  0.00    -0.114 S 
ATOM      4  H   UNL     1      49.692 154.719  30.496  0.00  0.00    +0.114 HD
ENDBRANCH   1   3
BRANCH   1   5
ATOM      5  S   UNL     1      52.181 154.286  28.233  0.00  0.00    -0.114 S 
ATOM      6  H   UNL     1      50.980 154.245  27.596  0.00  0.00    +0.114 HD
ENDBRANCH   1   5
TORSDOF 2
