# Name:          No_6_154
# Creation time: Thu Mar 21 14:28:23 2024


@<TRIPOS>MOLECULE
000001_000001
   43    45     1     1     1
SMALL
USER_CHARGES


@<TRIPOS>ATOM
      1 C9         51.5330  156.6540   29.1670 C.ar       1 <1>        0.170
      2 C10        51.0810  155.3840   29.3060 C.ar       1 <1>        0.240
      3 C11        51.5320  154.3980   28.4740 C.ar       1 <1>        0.240
      4 C14        52.4340  156.8960   28.1560 C.ar       1 <1>        0.230
      5 C13        52.8680  155.8980   27.2900 C.ar       1 <1>        0.220
      6 C12        52.4150  154.6130   27.4780 C.ar       1 <1>        0.210
      7 H          50.3592  155.1490   30.0798 H          1 <1>        0.000
      8 H          51.1599  153.3908   28.6230 H          1 <1>        0.000
      9 H          52.8200  157.9011   28.0300 H          1 <1>        0.000
     10 H          53.5512  156.1291   26.4808 H          1 <1>        0.000
     11 O1         52.6970  152.2820   27.1620 O.2        1 <1>        0.540
     12 C1         52.7940  153.3950   26.6700 C.2        1 <1>        0.100
     13 N1         53.8980  154.3850   23.4100 N.pl3      1 <1>       -0.010
     14 N2         53.4320  154.6340   24.6520 N.2        1 <1>        0.210
     15 C1         53.2800  153.5490   25.2920 C.2        1 <1>        0.090
     16 C2         53.6900  152.4830   24.3680 C.2        1 <1>        0.090
     17 C3         54.0520  153.1030   23.2410 C.2        1 <1>        0.100
     18 H1         54.1010  155.1060   22.7030 H          1 <1>        0.000
     19 H3         53.6960  151.4122   24.5660 H          1 <1>        0.000
     20 C          54.5390  152.4430   22.0210 C.2        1 <1>        0.050
     21 O          54.3710  151.2390   21.9050 O.2        1 <1>        0.030
     22 O          55.1460  153.1950   21.0900 O.3        1 <1>        0.110
     23 C5         55.5880  152.4590   19.9330 C.3        1 <1>        0.040
     24 H1         56.3263  151.6907   20.2061 H          1 <1>        0.000
     25 H2         56.0660  153.1710   19.2440 H          1 <1>        0.000
     26 C1         52.4740  151.9880   17.7720 C.ar       1 <1>        0.260
     27 C2         52.2600  150.6110   17.8870 C.ar       1 <1>        0.100
     28 C3         53.1230  149.8320   18.6640 C.ar       1 <1>        0.110
     29 C4         54.2000  150.4300   19.3260 C.ar       1 <1>        0.090
     30 C5         54.4130  151.8070   19.2110 C.ar       1 <1>        0.080
     31 C6         53.5510  152.5860   18.4340 C.ar       1 <1>        0.200
     32 H1         51.8049  152.5921   17.1699 H          1 <1>        0.000
     33 H2         51.4252  150.1471   17.3741 H          1 <1>        0.000
     34 H3         52.9571  148.7645   18.7530 H          1 <1>        0.000
     35 H6         53.7161  153.6536   18.3449 H          1 <1>        0.000
     36 C1         50.9980  157.7530   30.0790 C.3        1 <1>        0.050
     37 H2         50.9670  157.3867   31.1158 H          1 <1>        0.000
     38 O3         51.8540  158.8960   30.0010 O.3        1 <1>        0.750
     39 H4         49.9834  158.0329   29.7591 H          1 <1>        0.000
     40 H6         51.8860  159.2181   29.1078 H          1 <1>        0.000
     41 N1         55.0330  149.6780   20.0760 N.pl3      1 <1>        0.090
     42 H1         56.0159  149.5590   19.7920 H          1 <1>        0.000
     43 H2         54.6850  149.2230   20.9320 H          1 <1>        0.000
@<TRIPOS>BOND
     1    5    6 ar 
     2    5    4 ar 
     3    6    3 ar 
     4    4    1 ar 
     5    3    2 ar 
     6    1    2 ar 
     7    2    7 1  
     8    3    8 1  
     9    4    9 1  
    10    5   10 1  
    11   12   11 2  
    12    6   12 1  
    13   13   14 1  
    14   13   17 1  
    15   14   15 2  
    16   15   16 1  
    17   16   17 2  
    18   13   18 1  
    19   16   19 1  
    20   12   15 1  
    21   20   21 2  
    22   20   22 1  
    23   22   23 1  
    24   23   24 1  
    25   23   25 1  
    26   17   20 1  
    27   26   27 ar 
    28   26   31 ar 
    29   27   28 ar 
    30   28   29 ar 
    31   29   30 ar 
    32   30   31 ar 
    33   26   32 1  
    34   27   33 1  
    35   28   34 1  
    36   31   35 1  
    37   23   30 1  
    38   36   37 1  
    39   36   38 1  
    40   36   39 1  
    41   38   40 1  
    42    1   36 1  
    43   41   42 1  
    44   41   43 1  
    45   29   41 1  
# Name:          No_6_155
# Creation time: Thu Mar 21 14:28:23 2024


@<TRIPOS>MOLECULE
000001_000002
   43    45     1     1     1
SMALL
USER_CHARGES


@<TRIPOS>ATOM
      1 C9         51.5330  156.6540   29.1670 C.ar       1 <1>        0.170
      2 C10        51.0810  155.3840   29.3060 C.ar       1 <1>        0.240
      3 C11        51.5320  154.3980   28.4740 C.ar       1 <1>        0.240
      4 C14        52.4340  156.8960   28.1560 C.ar       1 <1>        0.230
      5 C13        52.8680  155.8980   27.2900 C.ar       1 <1>        0.220
      6 C12        52.4150  154.6130   27.4780 C.ar       1 <1>        0.210
      7 H          50.3592  155.1490   30.0798 H          1 <1>        0.000
      8 H          51.1599  153.3908   28.6230 H          1 <1>        0.000
      9 H          52.8200  157.9011   28.0300 H          1 <1>        0.000
     10 H          53.5512  156.1291   26.4808 H          1 <1>        0.000
     11 O1         52.6970  152.2820   27.1620 O.2        1 <1>        0.540
     12 C1         52.7940  153.3950   26.6700 C.2        1 <1>        0.100
     13 N1         53.8980  154.3850   23.4100 N.pl3      1 <1>       -0.010
     14 N2         53.4320  154.6340   24.6520 N.2        1 <1>        0.210
     15 C1         53.2800  153.5490   25.2920 C.2        1 <1>        0.090
     16 C2         53.6900  152.4830   24.3680 C.2        1 <1>        0.090
     17 C3         54.0520  153.1030   23.2410 C.2        1 <1>        0.100
     18 H1         54.1010  155.1060   22.7030 H          1 <1>        0.000
     19 H3         53.6960  151.4122   24.5660 H          1 <1>        0.000
     20 C          54.5390  152.4430   22.0210 C.2        1 <1>        0.050
     21 O          54.3710  151.2390   21.9050 O.2        1 <1>        0.030
     22 O          55.1460  153.1950   21.0900 O.3        1 <1>        0.110
     23 C5         55.5880  152.4590   19.9330 C.3        1 <1>        0.040
     24 H1         56.3263  151.6907   20.2061 H          1 <1>        0.000
     25 H2         56.0660  153.1710   19.2440 H          1 <1>        0.000
     26 C1         52.4740  151.9880   17.7720 C.ar       1 <1>        0.260
     27 C2         52.2600  150.6110   17.8870 C.ar       1 <1>        0.100
     28 C3         53.1230  149.8320   18.6640 C.ar       1 <1>        0.110
     29 C4         54.2000  150.4300   19.3260 C.ar       1 <1>        0.090
     30 C5         54.4130  151.8070   19.2110 C.ar       1 <1>        0.080
     31 C6         53.5510  152.5860   18.4340 C.ar       1 <1>        0.200
     32 H1         51.8049  152.5921   17.1699 H          1 <1>        0.000
     33 H2         51.4252  150.1471   17.3741 H          1 <1>        0.000
     34 H3         52.9571  148.7645   18.7530 H          1 <1>        0.000
     35 H6         53.7161  153.6536   18.3449 H          1 <1>        0.000
     36 C1         50.9980  157.7530   30.0790 C.3        1 <1>        0.050
     37 H2         50.9670  157.3867   31.1158 H          1 <1>        0.000
     38 O3         51.8540  158.8960   30.0010 O.3        1 <1>        0.750
     39 H4         49.9834  158.0329   29.7591 H          1 <1>        0.000
     40 H6         51.8860  159.2181   29.1078 H          1 <1>        0.000
     41 N1         55.0330  149.6780   20.0760 N.pl3      1 <1>        0.090
     42 H1         56.0206  149.9512   20.1801 H          1 <1>        0.000
     43 H2         54.6811  148.8311   20.5449 H          1 <1>        0.000
@<TRIPOS>BOND
     1    5    6 ar 
     2    5    4 ar 
     3    6    3 ar 
     4    4    1 ar 
     5    3    2 ar 
     6    1    2 ar 
     7    2    7 1  
     8    3    8 1  
     9    4    9 1  
    10    5   10 1  
    11   12   11 2  
    12    6   12 1  
    13   13   14 1  
    14   13   17 1  
    15   14   15 2  
    16   15   16 1  
    17   16   17 2  
    18   13   18 1  
    19   16   19 1  
    20   12   15 1  
    21   20   21 2  
    22   20   22 1  
    23   22   23 1  
    24   23   24 1  
    25   23   25 1  
    26   17   20 1  
    27   26   27 ar 
    28   26   31 ar 
    29   27   28 ar 
    30   28   29 ar 
    31   29   30 ar 
    32   30   31 ar 
    33   26   32 1  
    34   27   33 1  
    35   28   34 1  
    36   31   35 1  
    37   23   30 1  
    38   36   37 1  
    39   36   38 1  
    40   36   39 1  
    41   38   40 1  
    42    1   36 1  
    43   41   42 1  
    44   41   43 1  
    45   29   41 1  
# Name:          No_6_181
# Creation time: Thu Mar 21 14:28:23 2024


@<TRIPOS>MOLECULE
000001_000003
   42    44     1     1     1
SMALL
USER_CHARGES


@<TRIPOS>ATOM
      1 C9         51.5330  156.6540   29.1670 C.ar       1 <1>        0.170
      2 C10        51.0810  155.3840   29.3060 C.ar       1 <1>        0.240
      3 C11        51.5320  154.3980   28.4740 C.ar       1 <1>        0.240
      4 C14        52.4340  156.8960   28.1560 C.ar       1 <1>        0.230
      5 C13        52.8680  155.8980   27.2900 C.ar       1 <1>        0.220
      6 C12        52.4150  154.6130   27.4780 C.ar       1 <1>        0.210
      7 H          50.3592  155.1490   30.0798 H          1 <1>        0.000
      8 H          51.1599  153.3908   28.6230 H          1 <1>        0.000
      9 H          52.8200  157.9011   28.0300 H          1 <1>        0.000
     10 H          53.5512  156.1291   26.4808 H          1 <1>        0.000
     11 O1         52.6970  152.2820   27.1620 O.2        1 <1>        0.540
     12 C1         52.7940  153.3950   26.6700 C.2        1 <1>        0.100
     13 N1         53.8980  154.3850   23.4100 N.pl3      1 <1>       -0.010
     14 N2         53.4320  154.6340   24.6520 N.2        1 <1>        0.210
     15 C1         53.2800  153.5490   25.2920 C.2        1 <1>        0.090
     16 C2         53.6900  152.4830   24.3680 C.2        1 <1>        0.090
     17 C3         54.0520  153.1030   23.2410 C.2        1 <1>        0.100
     18 H1         54.1010  155.1060   22.7030 H          1 <1>        0.000
     19 H3         53.6960  151.4122   24.5660 H          1 <1>        0.000
     20 C          54.5390  152.4430   22.0210 C.2        1 <1>        0.050
     21 O          54.3710  151.2390   21.9050 O.2        1 <1>        0.030
     22 O          55.1460  153.1950   21.0900 O.3        1 <1>        0.110
     23 C5         55.5880  152.4590   19.9330 C.3        1 <1>        0.040
     24 H1         56.3263  151.6907   20.2061 H          1 <1>        0.000
     25 H2         56.0660  153.1710   19.2440 H          1 <1>        0.000
     26 C1         52.4740  151.9880   17.7720 C.ar       1 <1>        0.260
     27 C2         52.2600  150.6110   17.8870 C.ar       1 <1>        0.100
     28 C3         53.1230  149.8320   18.6640 C.ar       1 <1>        0.110
     29 C4         54.2000  150.4300   19.3260 C.ar       1 <1>        0.090
     30 C5         54.4130  151.8070   19.2110 C.ar       1 <1>        0.080
     31 C6         53.5510  152.5860   18.4340 C.ar       1 <1>        0.200
     32 H1         51.8049  152.5921   17.1699 H          1 <1>        0.000
     33 H2         51.4252  150.1471   17.3741 H          1 <1>        0.000
     34 H3         52.9571  148.7645   18.7530 H          1 <1>        0.000
     35 H6         53.7161  153.6536   18.3449 H          1 <1>        0.000
     36 C1         50.9980  157.7530   30.0790 C.3        1 <1>        0.050
     37 H2         50.9670  157.3867   31.1158 H          1 <1>        0.000
     38 O3         51.8540  158.8960   30.0010 O.3        1 <1>        0.750
     39 H4         49.9834  158.0329   29.7591 H          1 <1>        0.000
     40 H6         51.8860  159.2181   29.1078 H          1 <1>        0.000
     41 O1         55.0570  149.6550   20.0980 O.3        1 <1>        0.080
     42 H2         54.8350  148.7589   19.8740 H          1 <1>        0.000
@<TRIPOS>BOND
     1    5    6 ar 
     2    5    4 ar 
     3    6    3 ar 
     4    4    1 ar 
     5    3    2 ar 
     6    1    2 ar 
     7    2    7 1  
     8    3    8 1  
     9    4    9 1  
    10    5   10 1  
    11   12   11 2  
    12    6   12 1  
    13   13   14 1  
    14   13   17 1  
    15   14   15 2  
    16   15   16 1  
    17   16   17 2  
    18   13   18 1  
    19   16   19 1  
    20   12   15 1  
    21   20   21 2  
    22   20   22 1  
    23   22   23 1  
    24   23   24 1  
    25   23   25 1  
    26   17   20 1  
    27   26   27 ar 
    28   26   31 ar 
    29   27   28 ar 
    30   28   29 ar 
    31   29   30 ar 
    32   30   31 ar 
    33   26   32 1  
    34   27   33 1  
    35   28   34 1  
    36   31   35 1  
    37   23   30 1  
    38   36   37 1  
    39   36   38 1  
    40   36   39 1  
    41   38   40 1  
    42    1   36 1  
    43   41   42 1  
    44   29   41 1  
# Name:          No_6_182
# Creation time: Thu Mar 21 14:28:23 2024


@<TRIPOS>MOLECULE
000001_000004
   42    44     1     1     1
SMALL
USER_CHARGES


@<TRIPOS>ATOM
      1 C9         51.5330  156.6540   29.1670 C.ar       1 <1>        0.170
      2 C10        51.0810  155.3840   29.3060 C.ar       1 <1>        0.240
      3 C11        51.5320  154.3980   28.4740 C.ar       1 <1>        0.240
      4 C14        52.4340  156.8960   28.1560 C.ar       1 <1>        0.230
      5 C13        52.8680  155.8980   27.2900 C.ar       1 <1>        0.220
      6 C12        52.4150  154.6130   27.4780 C.ar       1 <1>        0.210
      7 H          50.3592  155.1490   30.0798 H          1 <1>        0.000
      8 H          51.1599  153.3908   28.6230 H          1 <1>        0.000
      9 H          52.8200  157.9011   28.0300 H          1 <1>        0.000
     10 H          53.5512  156.1291   26.4808 H          1 <1>        0.000
     11 O1         52.6970  152.2820   27.1620 O.2        1 <1>        0.540
     12 C1         52.7940  153.3950   26.6700 C.2        1 <1>        0.100
     13 N1         53.8980  154.3850   23.4100 N.pl3      1 <1>       -0.010
     14 N2         53.4320  154.6340   24.6520 N.2        1 <1>        0.210
     15 C1         53.2800  153.5490   25.2920 C.2        1 <1>        0.090
     16 C2         53.6900  152.4830   24.3680 C.2        1 <1>        0.090
     17 C3         54.0520  153.1030   23.2410 C.2        1 <1>        0.100
     18 H1         54.1010  155.1060   22.7030 H          1 <1>        0.000
     19 H3         53.6960  151.4122   24.5660 H          1 <1>        0.000
     20 C          54.5390  152.4430   22.0210 C.2        1 <1>        0.050
     21 O          54.3710  151.2390   21.9050 O.2        1 <1>        0.030
     22 O          55.1460  153.1950   21.0900 O.3        1 <1>        0.110
     23 C5         55.5880  152.4590   19.9330 C.3        1 <1>        0.040
     24 H1         56.3263  151.6907   20.2061 H          1 <1>        0.000
     25 H2         56.0660  153.1710   19.2440 H          1 <1>        0.000
     26 C1         52.4740  151.9880   17.7720 C.ar       1 <1>        0.260
     27 C2         52.2600  150.6110   17.8870 C.ar       1 <1>        0.100
     28 C3         53.1230  149.8320   18.6640 C.ar       1 <1>        0.110
     29 C4         54.2000  150.4300   19.3260 C.ar       1 <1>        0.090
     30 C5         54.4130  151.8070   19.2110 C.ar       1 <1>        0.080
     31 C6         53.5510  152.5860   18.4340 C.ar       1 <1>        0.200
     32 H1         51.8049  152.5921   17.1699 H          1 <1>        0.000
     33 H2         51.4252  150.1471   17.3741 H          1 <1>        0.000
     34 H3         52.9571  148.7645   18.7530 H          1 <1>        0.000
     35 H6         53.7161  153.6536   18.3449 H          1 <1>        0.000
     36 C1         50.9980  157.7530   30.0790 C.3        1 <1>        0.050
     37 H2         50.9670  157.3867   31.1158 H          1 <1>        0.000
     38 O3         51.8540  158.8960   30.0010 O.3        1 <1>        0.750
     39 H4         49.9834  158.0329   29.7591 H          1 <1>        0.000
     40 H6         51.8860  159.2181   29.1078 H          1 <1>        0.000
     41 O1         55.0570  149.6550   20.0980 O.3        1 <1>        0.080
     42 H2         55.2341  148.8905   19.5626 H          1 <1>        0.000
@<TRIPOS>BOND
     1    5    6 ar 
     2    5    4 ar 
     3    6    3 ar 
     4    4    1 ar 
     5    3    2 ar 
     6    1    2 ar 
     7    2    7 1  
     8    3    8 1  
     9    4    9 1  
    10    5   10 1  
    11   12   11 2  
    12    6   12 1  
    13   13   14 1  
    14   13   17 1  
    15   14   15 2  
    16   15   16 1  
    17   16   17 2  
    18   13   18 1  
    19   16   19 1  
    20   12   15 1  
    21   20   21 2  
    22   20   22 1  
    23   22   23 1  
    24   23   24 1  
    25   23   25 1  
    26   17   20 1  
    27   26   27 ar 
    28   26   31 ar 
    29   27   28 ar 
    30   28   29 ar 
    31   29   30 ar 
    32   30   31 ar 
    33   26   32 1  
    34   27   33 1  
    35   28   34 1  
    36   31   35 1  
    37   23   30 1  
    38   36   37 1  
    39   36   38 1  
    40   36   39 1  
    41   38   40 1  
    42    1   36 1  
    43   41   42 1  
    44   29   41 1  
# Name:          No_6_183
# Creation time: Thu Mar 21 14:28:23 2024


@<TRIPOS>MOLECULE
000001_000005
   42    44     1     1     1
SMALL
USER_CHARGES


@<TRIPOS>ATOM
      1 C9         51.5330  156.6540   29.1670 C.ar       1 <1>        0.170
      2 C10        51.0810  155.3840   29.3060 C.ar       1 <1>        0.240
      3 C11        51.5320  154.3980   28.4740 C.ar       1 <1>        0.240
      4 C14        52.4340  156.8960   28.1560 C.ar       1 <1>        0.230
      5 C13        52.8680  155.8980   27.2900 C.ar       1 <1>        0.220
      6 C12        52.4150  154.6130   27.4780 C.ar       1 <1>        0.210
      7 H          50.3592  155.1490   30.0798 H          1 <1>        0.000
      8 H          51.1599  153.3908   28.6230 H          1 <1>        0.000
      9 H          52.8200  157.9011   28.0300 H          1 <1>        0.000
     10 H          53.5512  156.1291   26.4808 H          1 <1>        0.000
     11 O1         52.6970  152.2820   27.1620 O.2        1 <1>        0.540
     12 C1         52.7940  153.3950   26.6700 C.2        1 <1>        0.100
     13 N1         53.8980  154.3850   23.4100 N.pl3      1 <1>       -0.010
     14 N2         53.4320  154.6340   24.6520 N.2        1 <1>        0.210
     15 C1         53.2800  153.5490   25.2920 C.2        1 <1>        0.090
     16 C2         53.6900  152.4830   24.3680 C.2        1 <1>        0.090
     17 C3         54.0520  153.1030   23.2410 C.2        1 <1>        0.100
     18 H1         54.1010  155.1060   22.7030 H          1 <1>        0.000
     19 H3         53.6960  151.4122   24.5660 H          1 <1>        0.000
     20 C          54.5390  152.4430   22.0210 C.2        1 <1>        0.050
     21 O          54.3710  151.2390   21.9050 O.2        1 <1>        0.030
     22 O          55.1460  153.1950   21.0900 O.3        1 <1>        0.110
     23 C5         55.5880  152.4590   19.9330 C.3        1 <1>        0.040
     24 H1         56.3263  151.6907   20.2061 H          1 <1>        0.000
     25 H2         56.0660  153.1710   19.2440 H          1 <1>        0.000
     26 C1         52.4740  151.9880   17.7720 C.ar       1 <1>        0.260
     27 C2         52.2600  150.6110   17.8870 C.ar       1 <1>        0.100
     28 C3         53.1230  149.8320   18.6640 C.ar       1 <1>        0.110
     29 C4         54.2000  150.4300   19.3260 C.ar       1 <1>        0.090
     30 C5         54.4130  151.8070   19.2110 C.ar       1 <1>        0.080
     31 C6         53.5510  152.5860   18.4340 C.ar       1 <1>        0.200
     32 H1         51.8049  152.5921   17.1699 H          1 <1>        0.000
     33 H2         51.4252  150.1471   17.3741 H          1 <1>        0.000
     34 H3         52.9571  148.7645   18.7530 H          1 <1>        0.000
     35 H6         53.7161  153.6536   18.3449 H          1 <1>        0.000
     36 C1         50.9980  157.7530   30.0790 C.3        1 <1>        0.050
     37 H2         50.9670  157.3867   31.1158 H          1 <1>        0.000
     38 O3         51.8540  158.8960   30.0010 O.3        1 <1>        0.750
     39 H4         49.9834  158.0329   29.7591 H          1 <1>        0.000
     40 H6         51.8860  159.2181   29.1078 H          1 <1>        0.000
     41 O1         55.0570  149.6550   20.0980 O.3        1 <1>        0.080
     42 H2         54.4946  149.0005   20.4953 H          1 <1>        0.000
@<TRIPOS>BOND
     1    5    6 ar 
     2    5    4 ar 
     3    6    3 ar 
     4    4    1 ar 
     5    3    2 ar 
     6    1    2 ar 
     7    2    7 1  
     8    3    8 1  
     9    4    9 1  
    10    5   10 1  
    11   12   11 2  
    12    6   12 1  
    13   13   14 1  
    14   13   17 1  
    15   14   15 2  
    16   15   16 1  
    17   16   17 2  
    18   13   18 1  
    19   16   19 1  
    20   12   15 1  
    21   20   21 2  
    22   20   22 1  
    23   22   23 1  
    24   23   24 1  
    25   23   25 1  
    26   17   20 1  
    27   26   27 ar 
    28   26   31 ar 
    29   27   28 ar 
    30   28   29 ar 
    31   29   30 ar 
    32   30   31 ar 
    33   26   32 1  
    34   27   33 1  
    35   28   34 1  
    36   31   35 1  
    37   23   30 1  
    38   36   37 1  
    39   36   38 1  
    40   36   39 1  
    41   38   40 1  
    42    1   36 1  
    43   41   42 1  
    44   29   41 1  
# Name:          No_6_2
# Creation time: Thu Mar 21 14:28:23 2024


@<TRIPOS>MOLECULE
000001_000006
   41    43     1     1     1
SMALL
USER_CHARGES


@<TRIPOS>ATOM
      1 C9         51.5330  156.6540   29.1670 C.ar       1 <1>        0.170
      2 C10        51.0810  155.3840   29.3060 C.ar       1 <1>        0.240
      3 C11        51.5320  154.3980   28.4740 C.ar       1 <1>        0.240
      4 C14        52.4340  156.8960   28.1560 C.ar       1 <1>        0.230
      5 C13        52.8680  155.8980   27.2900 C.ar       1 <1>        0.220
      6 C12        52.4150  154.6130   27.4780 C.ar       1 <1>        0.210
      7 H          50.3592  155.1490   30.0798 H          1 <1>        0.000
      8 H          51.1599  153.3908   28.6230 H          1 <1>        0.000
      9 H          52.8200  157.9011   28.0300 H          1 <1>        0.000
     10 H          53.5512  156.1291   26.4808 H          1 <1>        0.000
     11 O1         52.6970  152.2820   27.1620 O.2        1 <1>        0.540
     12 C1         52.7940  153.3950   26.6700 C.2        1 <1>        0.100
     13 N1         53.8980  154.3850   23.4100 N.pl3      1 <1>       -0.010
     14 N2         53.4320  154.6340   24.6520 N.2        1 <1>        0.210
     15 C1         53.2800  153.5490   25.2920 C.2        1 <1>        0.090
     16 C2         53.6900  152.4830   24.3680 C.2        1 <1>        0.090
     17 C3         54.0520  153.1030   23.2410 C.2        1 <1>        0.100
     18 H1         54.1010  155.1060   22.7030 H          1 <1>        0.000
     19 H3         53.6960  151.4122   24.5660 H          1 <1>        0.000
     20 C          54.5390  152.4430   22.0210 C.2        1 <1>        0.050
     21 O          54.3710  151.2390   21.9050 O.2        1 <1>        0.030
     22 O          55.1460  153.1950   21.0900 O.3        1 <1>        0.110
     23 C5         55.5880  152.4590   19.9330 C.3        1 <1>        0.040
     24 H1         56.3263  151.6907   20.2061 H          1 <1>        0.000
     25 H2         56.0660  153.1710   19.2440 H          1 <1>        0.000
     26 C1         52.4740  151.9880   17.7720 C.ar       1 <1>        0.260
     27 C2         52.2600  150.6110   17.8870 C.ar       1 <1>        0.100
     28 C3         53.1230  149.8320   18.6640 C.ar       1 <1>        0.110
     29 C4         54.2000  150.4300   19.3260 C.ar       1 <1>        0.210
     30 C5         54.4130  151.8070   19.2110 C.ar       1 <1>        0.080
     31 C6         53.5510  152.5860   18.4340 C.ar       1 <1>        0.200
     32 H1         51.8049  152.5921   17.1699 H          1 <1>        0.000
     33 H2         51.4252  150.1471   17.3741 H          1 <1>        0.000
     34 H3         52.9571  148.7645   18.7530 H          1 <1>        0.000
     35 H4         54.8691  149.8259   19.9281 H          1 <1>        0.000
     36 H6         53.7161  153.6536   18.3449 H          1 <1>        0.000
     37 C1         50.9980  157.7530   30.0790 C.3        1 <1>        0.050
     38 H2         50.9670  157.3867   31.1158 H          1 <1>        0.000
     39 O3         51.8540  158.8960   30.0010 O.3        1 <1>        0.750
     40 H4         49.9834  158.0329   29.7591 H          1 <1>        0.000
     41 H6         51.8860  159.2181   29.1078 H          1 <1>        0.000
@<TRIPOS>BOND
     1    5    6 ar 
     2    5    4 ar 
     3    6    3 ar 
     4    4    1 ar 
     5    3    2 ar 
     6    1    2 ar 
     7    2    7 1  
     8    3    8 1  
     9    4    9 1  
    10    5   10 1  
    11   12   11 2  
    12    6   12 1  
    13   13   14 1  
    14   13   17 1  
    15   14   15 2  
    16   15   16 1  
    17   16   17 2  
    18   13   18 1  
    19   16   19 1  
    20   12   15 1  
    21   20   21 2  
    22   20   22 1  
    23   22   23 1  
    24   23   24 1  
    25   23   25 1  
    26   17   20 1  
    27   26   27 ar 
    28   26   31 ar 
    29   27   28 ar 
    30   28   29 ar 
    31   29   30 ar 
    32   30   31 ar 
    33   26   32 1  
    34   27   33 1  
    35   28   34 1  
    36   29   35 1  
    37   31   36 1  
    38   23   30 1  
    39   37   38 1  
    40   37   39 1  
    41   37   40 1  
    42   39   41 1  
    43    1   37 1  
# Name:          No_5_198
# Creation time: Thu Mar 21 14:28:23 2024


@<TRIPOS>MOLECULE
000001_000007
   41    43     1     1     1
SMALL
USER_CHARGES


@<TRIPOS>ATOM
      1 C9         51.5330  156.6540   29.1670 C.ar       1 <1>        0.170
      2 C10        51.0810  155.3840   29.3060 C.ar       1 <1>        0.240
      3 C11        51.5320  154.3980   28.4740 C.ar       1 <1>        0.240
      4 C14        52.4340  156.8960   28.1560 C.ar       1 <1>        0.230
      5 C13        52.8680  155.8980   27.2900 C.ar       1 <1>        0.220
      6 C12        52.4150  154.6130   27.4780 C.ar       1 <1>        0.210
      7 H          50.3592  155.1490   30.0798 H          1 <1>        0.000
      8 H          51.1599  153.3908   28.6230 H          1 <1>        0.000
      9 H          52.8200  157.9011   28.0300 H          1 <1>        0.000
     10 H          53.5512  156.1291   26.4808 H          1 <1>        0.000
     11 O1         52.6970  152.2820   27.1620 O.2        1 <1>        0.540
     12 C1         52.7940  153.3950   26.6700 C.2        1 <1>        0.100
     13 N1         53.8980  154.3850   23.4100 N.pl3      1 <1>       -0.010
     14 N2         53.4320  154.6340   24.6520 N.2        1 <1>        0.210
     15 C1         53.2800  153.5490   25.2920 C.2        1 <1>        0.090
     16 C2         53.6900  152.4830   24.3680 C.2        1 <1>        0.090
     17 C3         54.0520  153.1030   23.2410 C.2        1 <1>        0.100
     18 H1         54.1010  155.1060   22.7030 H          1 <1>        0.000
     19 H3         53.6960  151.4122   24.5660 H          1 <1>        0.000
     20 C          54.5390  152.4430   22.0210 C.2        1 <1>        0.050
     21 O          54.3710  151.2390   21.9050 O.2        1 <1>        0.030
     22 O          55.1460  153.1950   21.0900 O.3        1 <1>        0.110
     23 C5         55.5880  152.4590   19.9330 C.3        1 <1>        0.040
     24 H1         56.3263  151.6907   20.2061 H          1 <1>        0.000
     25 H2         56.0660  153.1710   19.2440 H          1 <1>        0.000
     26 C1         52.4740  151.9880   17.7720 C.ar       1 <1>        0.260
     27 C2         52.2600  150.6110   17.8870 C.ar       1 <1>        0.100
     28 C3         53.1230  149.8320   18.6640 C.ar       1 <1>        0.110
     29 C4         54.2000  150.4300   19.3260 C.ar       1 <1>        0.210
     30 C5         54.4130  151.8070   19.2110 C.ar       1 <1>        0.080
     31 C6         53.5510  152.5860   18.4340 C.ar       1 <1>        0.200
     32 H1         51.8049  152.5921   17.1699 H          1 <1>        0.000
     33 H2         51.4252  150.1471   17.3741 H          1 <1>        0.000
     34 H3         52.9571  148.7645   18.7530 H          1 <1>        0.000
     35 H4         54.8691  149.8259   19.9281 H          1 <1>        0.000
     36 H6         53.7161  153.6536   18.3449 H          1 <1>        0.000
     37 C1         50.9980  157.7530   30.0790 C.3        1 <1>        0.050
     38 H2         50.9670  157.3867   31.1158 H          1 <1>        0.000
     39 O3         51.8540  158.8960   30.0010 O.3        1 <1>        0.750
     40 H4         49.9834  158.0329   29.7591 H          1 <1>        0.000
     41 H6         51.8860  159.2181   29.1078 H          1 <1>        0.000
@<TRIPOS>BOND
     1    5    6 ar 
     2    5    4 ar 
     3    6    3 ar 
     4    4    1 ar 
     5    3    2 ar 
     6    1    2 ar 
     7    2    7 1  
     8    3    8 1  
     9    4    9 1  
    10    5   10 1  
    11   12   11 2  
    12    6   12 1  
    13   13   14 1  
    14   13   17 1  
    15   14   15 2  
    16   15   16 1  
    17   16   17 2  
    18   13   18 1  
    19   16   19 1  
    20   12   15 1  
    21   20   21 2  
    22   20   22 1  
    23   22   23 1  
    24   23   24 1  
    25   23   25 1  
    26   17   20 1  
    27   26   27 ar 
    28   26   31 ar 
    29   27   28 ar 
    30   28   29 ar 
    31   29   30 ar 
    32   30   31 ar 
    33   26   32 1  
    34   27   33 1  
    35   28   34 1  
    36   29   35 1  
    37   31   36 1  
    38   23   30 1  
    39   37   38 1  
    40   37   39 1  
    41   37   40 1  
    42   39   41 1  
    43    1   37 1  
# Name:          No_7_19
# Creation time: Thu Mar 21 14:28:23 2024


@<TRIPOS>MOLECULE
000001_000008
   41    43     1     1     1
SMALL
USER_CHARGES


@<TRIPOS>ATOM
      1 C9         51.5330  156.6540   29.1670 C.ar       1 <1>        0.170
      2 C10        51.0810  155.3840   29.3060 C.ar       1 <1>        0.240
      3 C11        51.5320  154.3980   28.4740 C.ar       1 <1>        0.240
      4 C14        52.4340  156.8960   28.1560 C.ar       1 <1>        0.230
      5 C13        52.8680  155.8980   27.2900 C.ar       1 <1>        0.220
      6 C12        52.4150  154.6130   27.4780 C.ar       1 <1>        0.210
      7 H          50.3592  155.1490   30.0798 H          1 <1>        0.000
      8 H          51.1599  153.3908   28.6230 H          1 <1>        0.000
      9 H          52.8200  157.9011   28.0300 H          1 <1>        0.000
     10 H          53.5512  156.1291   26.4808 H          1 <1>        0.000
     11 O1         52.6970  152.2820   27.1620 O.2        1 <1>        0.540
     12 C1         52.7940  153.3950   26.6700 C.2        1 <1>        0.100
     13 N1         53.8980  154.3850   23.4100 N.pl3      1 <1>       -0.010
     14 N2         53.4320  154.6340   24.6520 N.2        1 <1>        0.210
     15 C1         53.2800  153.5490   25.2920 C.2        1 <1>        0.090
     16 C2         53.6900  152.4830   24.3680 C.2        1 <1>        0.090
     17 C3         54.0520  153.1030   23.2410 C.2        1 <1>        0.100
     18 H1         54.1010  155.1060   22.7030 H          1 <1>        0.000
     19 H3         53.6960  151.4122   24.5660 H          1 <1>        0.000
     20 C          54.5390  152.4430   22.0210 C.2        1 <1>        0.050
     21 O          54.3710  151.2390   21.9050 O.2        1 <1>        0.030
     22 O          55.1460  153.1950   21.0900 O.3        1 <1>        0.110
     23 C5         55.5880  152.4590   19.9330 C.3        1 <1>        0.040
     24 H1         56.3263  151.6907   20.2061 H          1 <1>        0.000
     25 H2         56.0660  153.1710   19.2440 H          1 <1>        0.000
     26 C1         52.4740  151.9880   17.7720 C.ar       1 <1>        0.260
     27 C2         52.2600  150.6110   17.8870 C.ar       1 <1>        0.100
     28 C3         53.1230  149.8320   18.6640 C.ar       1 <1>        0.110
     29 C4         54.2000  150.4300   19.3260 C.ar       1 <1>        0.210
     30 C5         54.4130  151.8070   19.2110 C.ar       1 <1>        0.080
     31 C6         53.5510  152.5860   18.4340 C.ar       1 <1>        0.200
     32 H1         51.8049  152.5921   17.1699 H          1 <1>        0.000
     33 H2         51.4252  150.1471   17.3741 H          1 <1>        0.000
     34 H3         52.9571  148.7645   18.7530 H          1 <1>        0.000
     35 H4         54.8691  149.8259   19.9281 H          1 <1>        0.000
     36 H6         53.7161  153.6536   18.3449 H          1 <1>        0.000
     37 C1         50.9980  157.7530   30.0790 C.3        1 <1>        0.050
     38 H2         50.9670  157.3867   31.1158 H          1 <1>        0.000
     39 O3         51.8540  158.8960   30.0010 O.3        1 <1>        0.750
     40 H4         49.9834  158.0329   29.7591 H          1 <1>        0.000
     41 H6         51.8860  159.2181   29.1078 H          1 <1>        0.000
@<TRIPOS>BOND
     1    5    6 ar 
     2    5    4 ar 
     3    6    3 ar 
     4    4    1 ar 
     5    3    2 ar 
     6    1    2 ar 
     7    2    7 1  
     8    3    8 1  
     9    4    9 1  
    10    5   10 1  
    11   12   11 2  
    12    6   12 1  
    13   13   14 1  
    14   13   17 1  
    15   14   15 2  
    16   15   16 1  
    17   16   17 2  
    18   13   18 1  
    19   16   19 1  
    20   12   15 1  
    21   20   21 2  
    22   20   22 1  
    23   22   23 1  
    24   23   24 1  
    25   23   25 1  
    26   17   20 1  
    27   26   27 ar 
    28   26   31 ar 
    29   27   28 ar 
    30   28   29 ar 
    31   29   30 ar 
    32   30   31 ar 
    33   26   32 1  
    34   27   33 1  
    35   28   34 1  
    36   29   35 1  
    37   31   36 1  
    38   23   30 1  
    39   37   38 1  
    40   37   39 1  
    41   37   40 1  
    42   39   41 1  
    43    1   37 1  
# Name:          No_5_197
# Creation time: Thu Mar 21 14:28:23 2024


@<TRIPOS>MOLECULE
000001_000009
   41    43     1     1     1
SMALL
USER_CHARGES


@<TRIPOS>ATOM
      1 C9         51.5330  156.6540   29.1670 C.ar       1 <1>        0.170
      2 C10        51.0810  155.3840   29.3060 C.ar       1 <1>        0.240
      3 C11        51.5320  154.3980   28.4740 C.ar       1 <1>        0.240
      4 C14        52.4340  156.8960   28.1560 C.ar       1 <1>        0.230
      5 C13        52.8680  155.8980   27.2900 C.ar       1 <1>        0.220
      6 C12        52.4150  154.6130   27.4780 C.ar       1 <1>        0.210
      7 H          50.3592  155.1490   30.0798 H          1 <1>        0.000
      8 H          51.1599  153.3908   28.6230 H          1 <1>        0.000
      9 H          52.8200  157.9011   28.0300 H          1 <1>        0.000
     10 H          53.5512  156.1291   26.4808 H          1 <1>        0.000
     11 O1         52.6970  152.2820   27.1620 O.2        1 <1>        0.540
     12 C1         52.7940  153.3950   26.6700 C.2        1 <1>        0.100
     13 N1         53.8980  154.3850   23.4100 N.pl3      1 <1>       -0.010
     14 N2         53.4320  154.6340   24.6520 N.2        1 <1>        0.210
     15 C1         53.2800  153.5490   25.2920 C.2        1 <1>        0.090
     16 C2         53.6900  152.4830   24.3680 C.2        1 <1>        0.090
     17 C3         54.0520  153.1030   23.2410 C.2        1 <1>        0.100
     18 H1         54.1010  155.1060   22.7030 H          1 <1>        0.000
     19 H3         53.6960  151.4122   24.5660 H          1 <1>        0.000
     20 C          54.5390  152.4430   22.0210 C.2        1 <1>        0.050
     21 O          54.3710  151.2390   21.9050 O.2        1 <1>        0.030
     22 O          55.1460  153.1950   21.0900 O.3        1 <1>        0.110
     23 C5         55.5880  152.4590   19.9330 C.3        1 <1>        0.040
     24 H1         56.3263  151.6907   20.2061 H          1 <1>        0.000
     25 H2         56.0660  153.1710   19.2440 H          1 <1>        0.000
     26 C1         52.4740  151.9880   17.7720 C.ar       1 <1>        0.260
     27 C2         52.2600  150.6110   17.8870 C.ar       1 <1>        0.100
     28 C3         53.1230  149.8320   18.6640 C.ar       1 <1>        0.110
     29 C4         54.2000  150.4300   19.3260 C.ar       1 <1>        0.210
     30 C5         54.4130  151.8070   19.2110 C.ar       1 <1>        0.080
     31 C6         53.5510  152.5860   18.4340 C.ar       1 <1>        0.200
     32 H1         51.8049  152.5921   17.1699 H          1 <1>        0.000
     33 H2         51.4252  150.1471   17.3741 H          1 <1>        0.000
     34 H3         52.9571  148.7645   18.7530 H          1 <1>        0.000
     35 H4         54.8691  149.8259   19.9281 H          1 <1>        0.000
     36 H6         53.7161  153.6536   18.3449 H          1 <1>        0.000
     37 C1         50.9980  157.7530   30.0790 C.3        1 <1>        0.050
     38 H2         50.5178  157.2988   30.9583 H          1 <1>        0.000
     39 O3         52.0780  158.5880   30.5030 O.3        1 <1>        0.460
     40 H4         50.2612  158.3578   29.5301 H          1 <1>        0.000
     41 H6         52.4980  158.9850   29.7490 H          1 <1>        0.000
@<TRIPOS>BOND
     1    5    6 ar 
     2    5    4 ar 
     3    6    3 ar 
     4    4    1 ar 
     5    3    2 ar 
     6    1    2 ar 
     7    2    7 1  
     8    3    8 1  
     9    4    9 1  
    10    5   10 1  
    11   12   11 2  
    12    6   12 1  
    13   13   14 1  
    14   13   17 1  
    15   14   15 2  
    16   15   16 1  
    17   16   17 2  
    18   13   18 1  
    19   16   19 1  
    20   12   15 1  
    21   20   21 2  
    22   20   22 1  
    23   22   23 1  
    24   23   24 1  
    25   23   25 1  
    26   17   20 1  
    27   26   27 ar 
    28   26   31 ar 
    29   27   28 ar 
    30   28   29 ar 
    31   29   30 ar 
    32   30   31 ar 
    33   26   32 1  
    34   27   33 1  
    35   28   34 1  
    36   29   35 1  
    37   31   36 1  
    38   23   30 1  
    39   37   38 1  
    40   37   39 1  
    41   37   40 1  
    42   39   41 1  
    43    1   37 1  
# Name:          No_6_14
# Creation time: Thu Mar 21 14:28:23 2024


@<TRIPOS>MOLECULE
000001_000010
   41    43     1     1     1
SMALL
USER_CHARGES


@<TRIPOS>ATOM
      1 C9         51.5330  156.6540   29.1670 C.ar       1 <1>        0.170
      2 C10        51.0810  155.3840   29.3060 C.ar       1 <1>        0.240
      3 C11        51.5320  154.3980   28.4740 C.ar       1 <1>        0.240
      4 C14        52.4340  156.8960   28.1560 C.ar       1 <1>        0.230
      5 C13        52.8680  155.8980   27.2900 C.ar       1 <1>        0.220
      6 C12        52.4150  154.6130   27.4780 C.ar       1 <1>        0.210
      7 H          50.3592  155.1490   30.0798 H          1 <1>        0.000
      8 H          51.1599  153.3908   28.6230 H          1 <1>        0.000
      9 H          52.8200  157.9011   28.0300 H          1 <1>        0.000
     10 H          53.5512  156.1291   26.4808 H          1 <1>        0.000
     11 O1         52.6970  152.2820   27.1620 O.2        1 <1>        0.540
     12 C1         52.7940  153.3950   26.6700 C.2        1 <1>        0.100
     13 N1         53.8980  154.3850   23.4100 N.pl3      1 <1>       -0.010
     14 N2         53.4320  154.6340   24.6520 N.2        1 <1>        0.210
     15 C1         53.2800  153.5490   25.2920 C.2        1 <1>        0.090
     16 C2         53.6900  152.4830   24.3680 C.2        1 <1>        0.090
     17 C3         54.0520  153.1030   23.2410 C.2        1 <1>        0.100
     18 H1         54.1010  155.1060   22.7030 H          1 <1>        0.000
     19 H3         53.6960  151.4122   24.5660 H          1 <1>        0.000
     20 C          54.5390  152.4430   22.0210 C.2        1 <1>        0.050
     21 O          54.3710  151.2390   21.9050 O.2        1 <1>        0.030
     22 O          55.1460  153.1950   21.0900 O.3        1 <1>        0.110
     23 C5         55.5880  152.4590   19.9330 C.3        1 <1>        0.040
     24 H1         56.3263  151.6907   20.2061 H          1 <1>        0.000
     25 H2         56.0660  153.1710   19.2440 H          1 <1>        0.000
     26 C1         52.4740  151.9880   17.7720 C.ar       1 <1>        0.260
     27 C2         52.2600  150.6110   17.8870 C.ar       1 <1>        0.100
     28 C3         53.1230  149.8320   18.6640 C.ar       1 <1>        0.110
     29 C4         54.2000  150.4300   19.3260 C.ar       1 <1>        0.210
     30 C5         54.4130  151.8070   19.2110 C.ar       1 <1>        0.080
     31 C6         53.5510  152.5860   18.4340 C.ar       1 <1>        0.200
     32 H1         51.8049  152.5921   17.1699 H          1 <1>        0.000
     33 H2         51.4252  150.1471   17.3741 H          1 <1>        0.000
     34 H3         52.9571  148.7645   18.7530 H          1 <1>        0.000
     35 H4         54.8691  149.8259   19.9281 H          1 <1>        0.000
     36 H6         53.7161  153.6536   18.3449 H          1 <1>        0.000
     37 C1         50.9980  157.7530   30.0790 C.3        1 <1>        0.050
     38 H2         50.5178  157.2988   30.9583 H          1 <1>        0.000
     39 O3         52.0780  158.5880   30.5030 O.3        1 <1>        0.460
     40 H4         50.2612  158.3578   29.5301 H          1 <1>        0.000
     41 H6         52.4980  158.9850   29.7490 H          1 <1>        0.000
@<TRIPOS>BOND
     1    5    6 ar 
     2    5    4 ar 
     3    6    3 ar 
     4    4    1 ar 
     5    3    2 ar 
     6    1    2 ar 
     7    2    7 1  
     8    3    8 1  
     9    4    9 1  
    10    5   10 1  
    11   12   11 2  
    12    6   12 1  
    13   13   14 1  
    14   13   17 1  
    15   14   15 2  
    16   15   16 1  
    17   16   17 2  
    18   13   18 1  
    19   16   19 1  
    20   12   15 1  
    21   20   21 2  
    22   20   22 1  
    23   22   23 1  
    24   23   24 1  
    25   23   25 1  
    26   17   20 1  
    27   26   27 ar 
    28   26   31 ar 
    29   27   28 ar 
    30   28   29 ar 
    31   29   30 ar 
    32   30   31 ar 
    33   26   32 1  
    34   27   33 1  
    35   28   34 1  
    36   29   35 1  
    37   31   36 1  
    38   23   30 1  
    39   37   38 1  
    40   37   39 1  
    41   37   40 1  
    42   39   41 1  
    43    1   37 1  
# Name:          No_7_23
# Creation time: Thu Mar 21 14:34:36 2024


@<TRIPOS>MOLECULE
000001_000001
   37    38     1     1     1
SMALL
USER_CHARGES


@<TRIPOS>ATOM
      1 C9         51.5330  156.6540   29.1670 C.ar       1 <1>        0.170
      2 C10        51.0810  155.3840   29.3060 C.ar       1 <1>        0.240
      3 C11        51.5320  154.3980   28.4740 C.ar       1 <1>        0.240
      4 C14        52.4340  156.8960   28.1560 C.ar       1 <1>        0.230
      5 C13        52.8680  155.8980   27.2900 C.ar       1 <1>        0.220
      6 C12        52.4150  154.6130   27.4780 C.ar       1 <1>        0.210
      7 H          50.3592  155.1490   30.0798 H          1 <1>        0.000
      8 H          51.1599  153.3908   28.6230 H          1 <1>        0.000
      9 H          52.8200  157.9011   28.0300 H          1 <1>        0.000
     10 H          53.5512  156.1291   26.4808 H          1 <1>        0.000
     11 N1         53.3350  153.4110   25.4920 N.am       1 <1>        0.080
     12 N2         53.5030  152.1040   25.1460 N.2        1 <1>        0.210
     13 C1         53.0930  151.2910   26.0490 C.2        1 <1>        0.090
     14 N3         52.6270  152.2100   27.0510 N.2        1 <1>        0.550
     15 C2         52.7940  153.3950   26.6700 C.2        1 <1>        0.100
     16 C1         53.0990  149.8210   26.0570 C.2        1 <1>       -0.010
     17 O1         52.4180  149.2350   26.8840 O.2        1 <1>        0.370
     18 O2         53.8490  149.1740   25.1600 O.3        1 <1>        0.120
     19 H2         53.7940  148.2286   25.2350 H          1 <1>        0.000
     20 C1         50.9980  157.7530   30.0790 C.3        1 <1>        0.010
     21 N2         51.8700  158.9520   30.0170 N.4        1 <1>        0.460
     22 C3         51.3980  160.0580   30.8860 C.3        1 <1>        0.020
     23 H1         52.8096  158.6969   30.2782 H          1 <1>        0.000
     24 H6         50.9530  157.3557   31.1038 H          1 <1>        0.000
     25 H7         49.9754  157.9979   29.7561 H          1 <1>        0.000
     26 H9         51.3670  159.7401   31.9386 H          1 <1>        0.000
     27 H10        50.3890  160.3820   30.5910 H          1 <1>        0.000
     28 H2         51.9290  159.2750   29.0640 H          1 <1>        0.000
     29 C1         52.3420  161.2700   30.7790 C.3        1 <1>        0.070
     30 H2         53.3863  160.9279   30.8290 H          1 <1>        0.000
     31 O3         52.0840  162.1720   31.8580 O.3        1 <1>        0.540
     32 H5         52.1710  161.7849   29.8221 H          1 <1>        0.000
     33 H6         51.1836  162.4728   31.8210 H          1 <1>        0.000
     34 C1         53.6640  154.4910   24.7600 C.2        1 <1>        0.100
     35 O1         54.8220  154.6210   24.3910 O.2        1 <1>        0.080
     36 O2         52.7140  155.3830   24.4640 O.3        1 <1>        0.640
     37 H2         53.0318  156.1126   23.9453 H          1 <1>        0.000
@<TRIPOS>BOND
     1    5    6 ar 
     2    5    4 ar 
     3    6    3 ar 
     4    4    1 ar 
     5    3    2 ar 
     6    1    2 ar 
     7    2    7 1  
     8    3    8 1  
     9    4    9 1  
    10    5   10 1  
    11   11   12 1  
    12   11   15 1  
    13   12   13 2  
    14   13   14 1  
    15   14   15 2  
    16    6   15 1  
    17   16   17 2  
    18   16   18 1  
    19   18   19 1  
    20   13   16 1  
    21   21   20 1  
    22   21   22 1  
    23   21   23 1  
    24   20   24 1  
    25   20   25 1  
    26   22   26 1  
    27   22   27 1  
    28   21   28 1  
    29    1   20 1  
    30   29   30 1  
    31   29   31 1  
    32   29   32 1  
    33   31   33 1  
    34   22   29 1  
    35   34   35 2  
    36   34   36 1  
    37   36   37 1  
    38   11   34 am 
# Name:          No_7_28
# Creation time: Thu Mar 21 14:34:36 2024


@<TRIPOS>MOLECULE
000001_000002
   40    41     1     1     1
SMALL
USER_CHARGES


@<TRIPOS>ATOM
      1 C9         51.5330  156.6540   29.1670 C.ar       1 <1>        0.170
      2 C10        51.0810  155.3840   29.3060 C.ar       1 <1>        0.240
      3 C11        51.5320  154.3980   28.4740 C.ar       1 <1>        0.240
      4 C14        52.4340  156.8960   28.1560 C.ar       1 <1>        0.230
      5 C13        52.8680  155.8980   27.2900 C.ar       1 <1>        0.220
      6 C12        52.4150  154.6130   27.4780 C.ar       1 <1>        0.210
      7 H          50.3592  155.1490   30.0798 H          1 <1>        0.000
      8 H          51.1599  153.3908   28.6230 H          1 <1>        0.000
      9 H          52.8200  157.9011   28.0300 H          1 <1>        0.000
     10 H          53.5512  156.1291   26.4808 H          1 <1>        0.000
     11 N1         53.3350  153.4110   25.4920 N.am       1 <1>        0.080
     12 N2         53.5030  152.1040   25.1460 N.2        1 <1>        0.210
     13 C1         53.0930  151.2910   26.0490 C.2        1 <1>        0.090
     14 N3         52.6270  152.2100   27.0510 N.2        1 <1>        0.550
     15 C2         52.7940  153.3950   26.6700 C.2        1 <1>        0.100
     16 C1         53.0990  149.8210   26.0570 C.2        1 <1>       -0.010
     17 O1         52.4180  149.2350   26.8840 O.2        1 <1>        0.370
     18 O2         53.8490  149.1740   25.1600 O.3        1 <1>        0.120
     19 H2         53.7940  148.2286   25.2350 H          1 <1>        0.000
     20 C1         50.9980  157.7530   30.0790 C.3        1 <1>        0.010
     21 N2         51.8700  158.9520   30.0170 N.4        1 <1>        0.030
     22 C3         51.3980  160.0580   30.8860 C.3        1 <1>        0.020
     23 H1         52.8096  158.6969   30.2782 H          1 <1>        0.000
     24 H6         50.9530  157.3557   31.1038 H          1 <1>        0.000
     25 H7         49.9754  157.9979   29.7561 H          1 <1>        0.000
     26 H9         51.3670  159.7401   31.9386 H          1 <1>        0.000
     27 H10        50.3890  160.3820   30.5910 H          1 <1>        0.000
     28 H2         51.9290  159.2750   29.0640 H          1 <1>        0.000
     29 N1         53.3760  161.2160   31.8360 N.4        1 <1>        1.020
     30 C1         52.3420  161.2700   30.7790 C.3        1 <1>        0.070
     31 H2         53.9340  160.3799   31.7610 H          1 <1>        0.000
     32 H3         54.0020  162.0040   31.7790 H          1 <1>        0.000
     33 H5         51.7431  162.1878   30.8740 H          1 <1>        0.000
     34 H7         52.8090  161.2610   29.7831 H          1 <1>        0.000
     35 H1         52.9620  161.2230   32.7550 H          1 <1>        0.000
     36 C1         53.6640  154.4910   24.7600 C.2        1 <1>        0.100
     37 O1         52.7720  155.2840   24.5090 O.2        1 <1>        0.080
     38 N1         54.9360  154.6590   24.3390 N.am       1 <1>        0.090
     39 H2         55.6379  153.9841   24.5670 H          1 <1>        0.000
     40 H3         55.1830  155.4609   23.7950 H          1 <1>        0.000
@<TRIPOS>BOND
     1    5    6 ar 
     2    5    4 ar 
     3    6    3 ar 
     4    4    1 ar 
     5    3    2 ar 
     6    1    2 ar 
     7    2    7 1  
     8    3    8 1  
     9    4    9 1  
    10    5   10 1  
    11   11   12 1  
    12   11   15 1  
    13   12   13 2  
    14   13   14 1  
    15   14   15 2  
    16    6   15 1  
    17   16   17 2  
    18   16   18 1  
    19   18   19 1  
    20   13   16 1  
    21   21   20 1  
    22   21   22 1  
    23   21   23 1  
    24   20   24 1  
    25   20   25 1  
    26   22   26 1  
    27   22   27 1  
    28   21   28 1  
    29    1   20 1  
    30   29   30 1  
    31   29   31 1  
    32   29   32 1  
    33   30   33 1  
    34   30   34 1  
    35   29   35 1  
    36   22   30 1  
    37   36   37 2  
    38   36   38 am 
    39   38   39 1  
    40   38   40 1  
    41   11   36 am 
# Name:          No_7_29
# Creation time: Thu Mar 21 14:34:36 2024


@<TRIPOS>MOLECULE
000001_000003
   40    41     1     1     1
SMALL
USER_CHARGES


@<TRIPOS>ATOM
      1 C9         51.5330  156.6540   29.1670 C.ar       1 <1>        0.170
      2 C10        51.0810  155.3840   29.3060 C.ar       1 <1>        0.240
      3 C11        51.5320  154.3980   28.4740 C.ar       1 <1>        0.240
      4 C14        52.4340  156.8960   28.1560 C.ar       1 <1>        0.230
      5 C13        52.8680  155.8980   27.2900 C.ar       1 <1>        0.220
      6 C12        52.4150  154.6130   27.4780 C.ar       1 <1>        0.210
      7 H          50.3592  155.1490   30.0798 H          1 <1>        0.000
      8 H          51.1599  153.3908   28.6230 H          1 <1>        0.000
      9 H          52.8200  157.9011   28.0300 H          1 <1>        0.000
     10 H          53.5512  156.1291   26.4808 H          1 <1>        0.000
     11 N1         53.3350  153.4110   25.4920 N.am       1 <1>        0.080
     12 N2         53.5030  152.1040   25.1460 N.2        1 <1>        0.210
     13 C1         53.0930  151.2910   26.0490 C.2        1 <1>        0.090
     14 N3         52.6270  152.2100   27.0510 N.2        1 <1>        0.550
     15 C2         52.7940  153.3950   26.6700 C.2        1 <1>        0.100
     16 C1         53.0990  149.8210   26.0570 C.2        1 <1>       -0.010
     17 O1         52.4180  149.2350   26.8840 O.2        1 <1>        0.370
     18 O2         53.8490  149.1740   25.1600 O.3        1 <1>        0.120
     19 H2         53.7940  148.2286   25.2350 H          1 <1>        0.000
     20 C1         50.9980  157.7530   30.0790 C.3        1 <1>        0.010
     21 N2         51.8700  158.9520   30.0170 N.4        1 <1>        0.030
     22 C3         51.3980  160.0580   30.8860 C.3        1 <1>        0.020
     23 H1         52.8096  158.6969   30.2782 H          1 <1>        0.000
     24 H6         50.9530  157.3557   31.1038 H          1 <1>        0.000
     25 H7         49.9754  157.9979   29.7561 H          1 <1>        0.000
     26 H9         51.3670  159.7401   31.9386 H          1 <1>        0.000
     27 H10        50.3890  160.3820   30.5910 H          1 <1>        0.000
     28 H2         51.9290  159.2750   29.0640 H          1 <1>        0.000
     29 N1         53.3760  161.2160   31.8360 N.4        1 <1>        1.020
     30 C1         52.3420  161.2700   30.7790 C.3        1 <1>        0.070
     31 H2         53.9340  160.3799   31.7610 H          1 <1>        0.000
     32 H3         54.0020  162.0040   31.7790 H          1 <1>        0.000
     33 H5         51.7431  162.1878   30.8740 H          1 <1>        0.000
     34 H7         52.8090  161.2610   29.7831 H          1 <1>        0.000
     35 H1         52.9620  161.2230   32.7550 H          1 <1>        0.000
     36 C1         53.6640  154.4910   24.7600 C.2        1 <1>        0.100
     37 O1         54.8290  154.5890   24.4080 O.2        1 <1>        0.080
     38 N1         52.7240  155.4060   24.4470 N.am       1 <1>        0.070
     39 H2         51.7803  155.2880   24.7559 H          1 <1>        0.000
     40 H3         52.9660  156.2101   23.9040 H          1 <1>        0.000
@<TRIPOS>BOND
     1    5    6 ar 
     2    5    4 ar 
     3    6    3 ar 
     4    4    1 ar 
     5    3    2 ar 
     6    1    2 ar 
     7    2    7 1  
     8    3    8 1  
     9    4    9 1  
    10    5   10 1  
    11   11   12 1  
    12   11   15 1  
    13   12   13 2  
    14   13   14 1  
    15   14   15 2  
    16    6   15 1  
    17   16   17 2  
    18   16   18 1  
    19   18   19 1  
    20   13   16 1  
    21   21   20 1  
    22   21   22 1  
    23   21   23 1  
    24   20   24 1  
    25   20   25 1  
    26   22   26 1  
    27   22   27 1  
    28   21   28 1  
    29    1   20 1  
    30   29   30 1  
    31   29   31 1  
    32   29   32 1  
    33   30   33 1  
    34   30   34 1  
    35   29   35 1  
    36   22   30 1  
    37   36   37 2  
    38   36   38 am 
    39   38   39 1  
    40   38   40 1  
    41   11   36 am 
# Name:          No_7_32
# Creation time: Thu Mar 21 14:34:36 2024


@<TRIPOS>MOLECULE
000002_000001
   42    43     1     1     1
SMALL
USER_CHARGES


@<TRIPOS>ATOM
      1 C9         51.5330  156.6540   29.1670 C.ar       1 <1>        0.170
      2 C10        51.0810  155.3840   29.3060 C.ar       1 <1>        0.240
      3 C11        51.5320  154.3980   28.4740 C.ar       1 <1>        0.240
      4 C14        52.4340  156.8960   28.1560 C.ar       1 <1>        0.230
      5 C13        52.8680  155.8980   27.2900 C.ar       1 <1>        0.220
      6 C12        52.4150  154.6130   27.4780 C.ar       1 <1>        0.210
      7 H          50.3592  155.1490   30.0798 H          1 <1>        0.000
      8 H          51.1599  153.3908   28.6230 H          1 <1>        0.000
      9 H          52.8200  157.9011   28.0300 H          1 <1>        0.000
     10 H          53.5512  156.1291   26.4808 H          1 <1>        0.000
     11 N1         53.3350  153.4110   25.4920 N.pl3      1 <1>        0.080
     12 N2         53.5030  152.1040   25.1460 N.2        1 <1>        0.210
     13 C1         53.0930  151.2910   26.0490 C.2        1 <1>        0.090
     14 N3         52.6270  152.2100   27.0510 N.2        1 <1>        0.550
     15 C2         52.7940  153.3950   26.6700 C.2        1 <1>        0.100
     16 H1         53.5870  154.2379   24.9320 H          1 <1>        0.000
     17 C1         53.0990  149.8210   26.0570 C.2        1 <1>       -0.010
     18 O1         52.4180  149.2350   26.8840 O.2        1 <1>        0.370
     19 O2         53.8490  149.1740   25.1600 O.3        1 <1>        0.120
     20 H2         53.7940  148.2286   25.2350 H          1 <1>        0.000
     21 C1         50.9980  157.7530   30.0790 C.3        1 <1>        0.010
     22 N2         51.8700  158.9520   30.0170 N.4        1 <1>        0.030
     23 C3         51.3980  160.0580   30.8860 C.3        1 <1>        0.020
     24 H1         52.8096  158.6969   30.2782 H          1 <1>        0.000
     25 H6         50.9530  157.3557   31.1038 H          1 <1>        0.000
     26 H7         49.9754  157.9979   29.7561 H          1 <1>        0.000
     27 H9         51.3670  159.7401   31.9386 H          1 <1>        0.000
     28 H10        50.3890  160.3820   30.5910 H          1 <1>        0.000
     29 H2         51.9290  159.2750   29.0640 H          1 <1>        0.000
     30 N1         53.3760  161.2160   31.8360 N.4        1 <1>        0.890
     31 C1         52.3420  161.2700   30.7790 C.3        1 <1>        0.030
     32 H2         53.9340  160.3799   31.7610 H          1 <1>        0.000
     33 H5         51.7431  162.1878   30.8740 H          1 <1>        0.000
     34 H7         52.8090  161.2610   29.7831 H          1 <1>        0.000
     35 H1         52.9620  161.2230   32.7550 H          1 <1>        0.000
     36 C1         54.2890  162.3650   31.7520 C.3        1 <1>        0.060
     37 C2         55.5470  161.9650   30.9600 C.3        1 <1>        0.320
     38 H1         54.5780  162.6780   32.7661 H          1 <1>        0.000
     39 H3         53.7832  163.1976   31.2412 H          1 <1>        0.000
     40 H4         56.0520  161.1320   31.4710 H          1 <1>        0.000
     41 H5         56.2300  162.8250   30.8980 H          1 <1>        0.000
     42 H6         55.2580  161.6510   29.9461 H          1 <1>        0.000
@<TRIPOS>BOND
     1    5    6 ar 
     2    5    4 ar 
     3    6    3 ar 
     4    4    1 ar 
     5    3    2 ar 
     6    1    2 ar 
     7    2    7 1  
     8    3    8 1  
     9    4    9 1  
    10    5   10 1  
    11   11   12 1  
    12   11   15 1  
    13   12   13 2  
    14   13   14 1  
    15   14   15 2  
    16   11   16 1  
    17    6   15 1  
    18   17   18 2  
    19   17   19 1  
    20   19   20 1  
    21   13   17 1  
    22   22   21 1  
    23   22   23 1  
    24   22   24 1  
    25   21   25 1  
    26   21   26 1  
    27   23   27 1  
    28   23   28 1  
    29   22   29 1  
    30    1   21 1  
    31   30   31 1  
    32   30   32 1  
    33   31   33 1  
    34   31   34 1  
    35   30   35 1  
    36   23   31 1  
    37   37   36 1  
    38   36   38 1  
    39   36   39 1  
    40   37   40 1  
    41   37   41 1  
    42   37   42 1  
    43   30   36 1  
# Name:          No_7_30
# Creation time: Thu Mar 21 14:34:36 2024


@<TRIPOS>MOLECULE
000002_000002
   42    43     1     1     1
SMALL
USER_CHARGES


@<TRIPOS>ATOM
      1 C9         51.5330  156.6540   29.1670 C.ar       1 <1>        0.170
      2 C10        51.0810  155.3840   29.3060 C.ar       1 <1>        0.240
      3 C11        51.5320  154.3980   28.4740 C.ar       1 <1>        0.240
      4 C14        52.4340  156.8960   28.1560 C.ar       1 <1>        0.230
      5 C13        52.8680  155.8980   27.2900 C.ar       1 <1>        0.220
      6 C12        52.4150  154.6130   27.4780 C.ar       1 <1>        0.210
      7 H          50.3592  155.1490   30.0798 H          1 <1>        0.000
      8 H          51.1599  153.3908   28.6230 H          1 <1>        0.000
      9 H          52.8200  157.9011   28.0300 H          1 <1>        0.000
     10 H          53.5512  156.1291   26.4808 H          1 <1>        0.000
     11 N1         53.3350  153.4110   25.4920 N.pl3      1 <1>        0.080
     12 N2         53.5030  152.1040   25.1460 N.2        1 <1>        0.210
     13 C1         53.0930  151.2910   26.0490 C.2        1 <1>        0.090
     14 N3         52.6270  152.2100   27.0510 N.2        1 <1>        0.550
     15 C2         52.7940  153.3950   26.6700 C.2        1 <1>        0.100
     16 H1         53.5870  154.2379   24.9320 H          1 <1>        0.000
     17 C1         53.0990  149.8210   26.0570 C.2        1 <1>       -0.010
     18 O1         52.4180  149.2350   26.8840 O.2        1 <1>        0.370
     19 O2         53.8490  149.1740   25.1600 O.3        1 <1>        0.120
     20 H2         53.7940  148.2286   25.2350 H          1 <1>        0.000
     21 C1         50.9980  157.7530   30.0790 C.3        1 <1>        0.010
     22 N2         51.8700  158.9520   30.0170 N.4        1 <1>        0.030
     23 C3         51.3980  160.0580   30.8860 C.3        1 <1>        0.020
     24 H1         52.8096  158.6969   30.2782 H          1 <1>        0.000
     25 H6         50.9530  157.3557   31.1038 H          1 <1>        0.000
     26 H7         49.9754  157.9979   29.7561 H          1 <1>        0.000
     27 H9         51.3670  159.7401   31.9386 H          1 <1>        0.000
     28 H10        50.3890  160.3820   30.5910 H          1 <1>        0.000
     29 H2         51.9290  159.2750   29.0640 H          1 <1>        0.000
     30 N1         53.3760  161.2160   31.8360 N.4        1 <1>        0.890
     31 C1         52.3420  161.2700   30.7790 C.3        1 <1>        0.030
     32 H2         53.9340  160.3799   31.7610 H          1 <1>        0.000
     33 H5         51.7431  162.1878   30.8740 H          1 <1>        0.000
     34 H7         52.8090  161.2610   29.7831 H          1 <1>        0.000
     35 H1         52.9620  161.2230   32.7550 H          1 <1>        0.000
     36 C1         54.2890  162.3650   31.7520 C.3        1 <1>        0.060
     37 C2         55.6790  161.9550   32.2720 C.3        1 <1>        0.340
     38 H1         53.8970  163.1900   32.3650 H          1 <1>        0.000
     39 H3         54.3700  162.6929   30.7052 H          1 <1>        0.000
     40 H4         55.5970  161.6271   33.3188 H          1 <1>        0.000
     41 H5         56.3620  162.8150   32.2090 H          1 <1>        0.000
     42 H6         56.0710  161.1300   31.6590 H          1 <1>        0.000
@<TRIPOS>BOND
     1    5    6 ar 
     2    5    4 ar 
     3    6    3 ar 
     4    4    1 ar 
     5    3    2 ar 
     6    1    2 ar 
     7    2    7 1  
     8    3    8 1  
     9    4    9 1  
    10    5   10 1  
    11   11   12 1  
    12   11   15 1  
    13   12   13 2  
    14   13   14 1  
    15   14   15 2  
    16   11   16 1  
    17    6   15 1  
    18   17   18 2  
    19   17   19 1  
    20   19   20 1  
    21   13   17 1  
    22   22   21 1  
    23   22   23 1  
    24   22   24 1  
    25   21   25 1  
    26   21   26 1  
    27   23   27 1  
    28   23   28 1  
    29   22   29 1  
    30    1   21 1  
    31   30   31 1  
    32   30   32 1  
    33   31   33 1  
    34   31   34 1  
    35   30   35 1  
    36   23   31 1  
    37   37   36 1  
    38   36   38 1  
    39   36   39 1  
    40   37   40 1  
    41   37   41 1  
    42   37   42 1  
    43   30   36 1  
# Name:          No_7_31
# Creation time: Thu Mar 21 14:34:36 2024


@<TRIPOS>MOLECULE
000002_000003
   42    43     1     1     1
SMALL
USER_CHARGES


@<TRIPOS>ATOM
      1 C9         51.5330  156.6540   29.1670 C.ar       1 <1>        0.170
      2 C10        51.0810  155.3840   29.3060 C.ar       1 <1>        0.240
      3 C11        51.5320  154.3980   28.4740 C.ar       1 <1>        0.240
      4 C14        52.4340  156.8960   28.1560 C.ar       1 <1>        0.230
      5 C13        52.8680  155.8980   27.2900 C.ar       1 <1>        0.220
      6 C12        52.4150  154.6130   27.4780 C.ar       1 <1>        0.210
      7 H          50.3592  155.1490   30.0798 H          1 <1>        0.000
      8 H          51.1599  153.3908   28.6230 H          1 <1>        0.000
      9 H          52.8200  157.9011   28.0300 H          1 <1>        0.000
     10 H          53.5512  156.1291   26.4808 H          1 <1>        0.000
     11 N1         53.3350  153.4110   25.4920 N.pl3      1 <1>        0.080
     12 N2         53.5030  152.1040   25.1460 N.2        1 <1>        0.210
     13 C1         53.0930  151.2910   26.0490 C.2        1 <1>        0.090
     14 N3         52.6270  152.2100   27.0510 N.2        1 <1>        0.550
     15 C2         52.7940  153.3950   26.6700 C.2        1 <1>        0.100
     16 H1         53.5870  154.2379   24.9320 H          1 <1>        0.000
     17 C1         53.0990  149.8210   26.0570 C.2        1 <1>       -0.010
     18 O1         52.4180  149.2350   26.8840 O.2        1 <1>        0.370
     19 O2         53.8490  149.1740   25.1600 O.3        1 <1>        0.120
     20 H2         53.7940  148.2286   25.2350 H          1 <1>        0.000
     21 C1         50.9980  157.7530   30.0790 C.3        1 <1>        0.010
     22 N2         51.8700  158.9520   30.0170 N.4        1 <1>        0.030
     23 C3         51.3980  160.0580   30.8860 C.3        1 <1>        0.020
     24 H1         52.8096  158.6969   30.2782 H          1 <1>        0.000
     25 H6         50.9530  157.3557   31.1038 H          1 <1>        0.000
     26 H7         49.9754  157.9979   29.7561 H          1 <1>        0.000
     27 H9         51.3670  159.7401   31.9386 H          1 <1>        0.000
     28 H10        50.3890  160.3820   30.5910 H          1 <1>        0.000
     29 H2         51.9290  159.2750   29.0640 H          1 <1>        0.000
     30 N1         53.3760  161.2160   31.8360 N.4        1 <1>        0.890
     31 C1         52.3420  161.2700   30.7790 C.3        1 <1>        0.030
     32 H2         53.9340  160.3799   31.7610 H          1 <1>        0.000
     33 H5         51.7431  162.1878   30.8740 H          1 <1>        0.000
     34 H7         52.8090  161.2610   29.7831 H          1 <1>        0.000
     35 H1         52.9620  161.2230   32.7550 H          1 <1>        0.000
     36 C1         54.2890  162.3650   31.7520 C.3        1 <1>        0.060
     37 C2         55.7360  161.8610   31.6030 C.3        1 <1>        0.330
     38 H1         54.2030  162.9687   32.6675 H          1 <1>        0.000
     39 H3         54.0229  162.9813   30.8806 H          1 <1>        0.000
     40 H4         56.0021  161.2447   32.4744 H          1 <1>        0.000
     41 H5         56.4190  162.7210   31.5400 H          1 <1>        0.000
     42 H6         55.8220  161.2580   30.6870 H          1 <1>        0.000
@<TRIPOS>BOND
     1    5    6 ar 
     2    5    4 ar 
     3    6    3 ar 
     4    4    1 ar 
     5    3    2 ar 
     6    1    2 ar 
     7    2    7 1  
     8    3    8 1  
     9    4    9 1  
    10    5   10 1  
    11   11   12 1  
    12   11   15 1  
    13   12   13 2  
    14   13   14 1  
    15   14   15 2  
    16   11   16 1  
    17    6   15 1  
    18   17   18 2  
    19   17   19 1  
    20   19   20 1  
    21   13   17 1  
    22   22   21 1  
    23   22   23 1  
    24   22   24 1  
    25   21   25 1  
    26   21   26 1  
    27   23   27 1  
    28   23   28 1  
    29   22   29 1  
    30    1   21 1  
    31   30   31 1  
    32   30   32 1  
    33   31   33 1  
    34   31   34 1  
    35   30   35 1  
    36   23   31 1  
    37   37   36 1  
    38   36   38 1  
    39   36   39 1  
    40   37   40 1  
    41   37   41 1  
    42   37   42 1  
    43   30   36 1  
# Name:          No_7_33
# Creation time: Thu Mar 21 14:34:36 2024


@<TRIPOS>MOLECULE
000002_000004
   42    43     1     1     1
SMALL
USER_CHARGES


@<TRIPOS>ATOM
      1 C9         51.5330  156.6540   29.1670 C.ar       1 <1>        0.170
      2 C10        51.0810  155.3840   29.3060 C.ar       1 <1>        0.240
      3 C11        51.5320  154.3980   28.4740 C.ar       1 <1>        0.240
      4 C14        52.4340  156.8960   28.1560 C.ar       1 <1>        0.230
      5 C13        52.8680  155.8980   27.2900 C.ar       1 <1>        0.220
      6 C12        52.4150  154.6130   27.4780 C.ar       1 <1>        0.210
      7 H          50.3592  155.1490   30.0798 H          1 <1>        0.000
      8 H          51.1599  153.3908   28.6230 H          1 <1>        0.000
      9 H          52.8200  157.9011   28.0300 H          1 <1>        0.000
     10 H          53.5512  156.1291   26.4808 H          1 <1>        0.000
     11 N1         53.3350  153.4110   25.4920 N.pl3      1 <1>        0.080
     12 N2         53.5030  152.1040   25.1460 N.2        1 <1>        0.210
     13 C1         53.0930  151.2910   26.0490 C.2        1 <1>        0.090
     14 N3         52.6270  152.2100   27.0510 N.2        1 <1>        0.550
     15 C2         52.7940  153.3950   26.6700 C.2        1 <1>        0.100
     16 H1         53.5870  154.2379   24.9320 H          1 <1>        0.000
     17 C1         53.0990  149.8210   26.0570 C.2        1 <1>       -0.010
     18 O1         52.4180  149.2350   26.8840 O.2        1 <1>        0.370
     19 O2         53.8490  149.1740   25.1600 O.3        1 <1>        0.120
     20 H2         53.7940  148.2286   25.2350 H          1 <1>        0.000
     21 C1         50.9980  157.7530   30.0790 C.3        1 <1>        0.010
     22 N2         51.8700  158.9520   30.0170 N.4        1 <1>        0.030
     23 C3         51.3980  160.0580   30.8860 C.3        1 <1>        0.020
     24 H1         52.8096  158.6969   30.2782 H          1 <1>        0.000
     25 H6         50.9530  157.3557   31.1038 H          1 <1>        0.000
     26 H7         49.9754  157.9979   29.7561 H          1 <1>        0.000
     27 H9         51.3670  159.7401   31.9386 H          1 <1>        0.000
     28 H10        50.3890  160.3820   30.5910 H          1 <1>        0.000
     29 H2         51.9290  159.2750   29.0640 H          1 <1>        0.000
     30 N1         53.3760  161.2160   31.8360 N.4        1 <1>        0.890
     31 C1         52.3420  161.2700   30.7790 C.3        1 <1>        0.030
     32 H2         53.9340  160.3799   31.7610 H          1 <1>        0.000
     33 H5         51.7431  162.1878   30.8740 H          1 <1>        0.000
     34 H7         52.8090  161.2610   29.7831 H          1 <1>        0.000
     35 H1         52.9620  161.2230   32.7550 H          1 <1>        0.000
     36 C1         54.2890  162.3650   31.7520 C.3        1 <1>        0.060
     37 C2         55.2550  162.1680   30.5690 C.3        1 <1>        0.310
     38 H1         54.8641  162.4450   32.6862 H          1 <1>        0.000
     39 H3         53.7062  163.2856   31.6011 H          1 <1>        0.000
     40 H4         55.8374  161.2473   30.7211 H          1 <1>        0.000
     41 H5         55.9380  163.0280   30.5060 H          1 <1>        0.000
     42 H6         54.6791  162.0880   29.6352 H          1 <1>        0.000
@<TRIPOS>BOND
     1    5    6 ar 
     2    5    4 ar 
     3    6    3 ar 
     4    4    1 ar 
     5    3    2 ar 
     6    1    2 ar 
     7    2    7 1  
     8    3    8 1  
     9    4    9 1  
    10    5   10 1  
    11   11   12 1  
    12   11   15 1  
    13   12   13 2  
    14   13   14 1  
    15   14   15 2  
    16   11   16 1  
    17    6   15 1  
    18   17   18 2  
    19   17   19 1  
    20   19   20 1  
    21   13   17 1  
    22   22   21 1  
    23   22   23 1  
    24   22   24 1  
    25   21   25 1  
    26   21   26 1  
    27   23   27 1  
    28   23   28 1  
    29   22   29 1  
    30    1   21 1  
    31   30   31 1  
    32   30   32 1  
    33   31   33 1  
    34   31   34 1  
    35   30   35 1  
    36   23   31 1  
    37   37   36 1  
    38   36   38 1  
    39   36   39 1  
    40   37   40 1  
    41   37   41 1  
    42   37   42 1  
    43   30   36 1  
# Name:          No_7_48
# Creation time: Thu Mar 21 14:34:36 2024


@<TRIPOS>MOLECULE
000002_000005
   42    43     1     1     1
SMALL
USER_CHARGES


@<TRIPOS>ATOM
      1 C9         51.5330  156.6540   29.1670 C.ar       1 <1>        0.170
      2 C10        51.0810  155.3840   29.3060 C.ar       1 <1>        0.240
      3 C11        51.5320  154.3980   28.4740 C.ar       1 <1>        0.240
      4 C14        52.4340  156.8960   28.1560 C.ar       1 <1>        0.230
      5 C13        52.8680  155.8980   27.2900 C.ar       1 <1>        0.220
      6 C12        52.4150  154.6130   27.4780 C.ar       1 <1>        0.210
      7 H          50.3592  155.1490   30.0798 H          1 <1>        0.000
      8 H          51.1599  153.3908   28.6230 H          1 <1>        0.000
      9 H          52.8200  157.9011   28.0300 H          1 <1>        0.000
     10 H          53.5512  156.1291   26.4808 H          1 <1>        0.000
     11 N1         53.3350  153.4110   25.4920 N.pl3      1 <1>        0.080
     12 N2         53.5030  152.1040   25.1460 N.2        1 <1>        0.210
     13 C1         53.0930  151.2910   26.0490 C.2        1 <1>        0.090
     14 N3         52.6270  152.2100   27.0510 N.2        1 <1>        0.550
     15 C2         52.7940  153.3950   26.6700 C.2        1 <1>        0.100
     16 H1         53.5870  154.2379   24.9320 H          1 <1>        0.000
     17 C1         53.0990  149.8210   26.0570 C.2        1 <1>       -0.010
     18 O1         52.4180  149.2350   26.8840 O.2        1 <1>        0.370
     19 O2         53.8490  149.1740   25.1600 O.3        1 <1>        0.120
     20 H2         53.7940  148.2286   25.2350 H          1 <1>        0.000
     21 C1         50.9980  157.7530   30.0790 C.3        1 <1>        0.010
     22 N2         51.8700  158.9520   30.0170 N.4        1 <1>        0.460
     23 C3         51.3980  160.0580   30.8860 C.3        1 <1>        0.020
     24 H1         52.8096  158.6969   30.2782 H          1 <1>        0.000
     25 H6         50.9530  157.3557   31.1038 H          1 <1>        0.000
     26 H7         49.9754  157.9979   29.7561 H          1 <1>        0.000
     27 H9         51.3670  159.7401   31.9386 H          1 <1>        0.000
     28 H10        50.3890  160.3820   30.5910 H          1 <1>        0.000
     29 H2         51.9290  159.2750   29.0640 H          1 <1>        0.000
     30 N1         53.1370  161.4180   32.0180 N.4        1 <1>        0.450
     31 C1         52.3420  161.2700   30.7790 C.3        1 <1>        0.030
     32 H2         53.6998  160.6003   32.1929 H          1 <1>        0.000
     33 H5         51.7349  162.1701   30.6020 H          1 <1>        0.000
     34 H7         53.0039  161.1210   29.9131 H          1 <1>        0.000
     35 H1         52.5438  161.5551   32.8213 H          1 <1>        0.000
     36 C1         54.0460  162.5700   31.9370 C.3        1 <1>       -0.040
     37 C2         55.4940  162.1000   32.1670 C.3        1 <1>        0.330
     38 H1         53.7732  163.3064   32.7073 H          1 <1>        0.000
     39 H3         53.9640  163.0332   30.9426 H          1 <1>        0.000
     40 H4         55.5760  161.6368   33.1614 H          1 <1>        0.000
     41 H5         56.1742  162.9623   32.1060 H          1 <1>        0.000
     42 H6         55.7658  161.3635   31.3965 H          1 <1>        0.000
@<TRIPOS>BOND
     1    5    6 ar 
     2    5    4 ar 
     3    6    3 ar 
     4    4    1 ar 
     5    3    2 ar 
     6    1    2 ar 
     7    2    7 1  
     8    3    8 1  
     9    4    9 1  
    10    5   10 1  
    11   11   12 1  
    12   11   15 1  
    13   12   13 2  
    14   13   14 1  
    15   14   15 2  
    16   11   16 1  
    17    6   15 1  
    18   17   18 2  
    19   17   19 1  
    20   19   20 1  
    21   13   17 1  
    22   22   21 1  
    23   22   23 1  
    24   22   24 1  
    25   21   25 1  
    26   21   26 1  
    27   23   27 1  
    28   23   28 1  
    29   22   29 1  
    30    1   21 1  
    31   30   31 1  
    32   30   32 1  
    33   31   33 1  
    34   31   34 1  
    35   30   35 1  
    36   23   31 1  
    37   37   36 1  
    38   36   38 1  
    39   36   39 1  
    40   37   40 1  
    41   37   41 1  
    42   37   42 1  
    43   30   36 1  
# Name:          No_7_49
# Creation time: Thu Mar 21 14:34:36 2024


@<TRIPOS>MOLECULE
000002_000006
   42    43     1     1     1
SMALL
USER_CHARGES


@<TRIPOS>ATOM
      1 C9         51.5330  156.6540   29.1670 C.ar       1 <1>        0.170
      2 C10        51.0810  155.3840   29.3060 C.ar       1 <1>        0.240
      3 C11        51.5320  154.3980   28.4740 C.ar       1 <1>        0.240
      4 C14        52.4340  156.8960   28.1560 C.ar       1 <1>        0.230
      5 C13        52.8680  155.8980   27.2900 C.ar       1 <1>        0.220
      6 C12        52.4150  154.6130   27.4780 C.ar       1 <1>        0.210
      7 H          50.3592  155.1490   30.0798 H          1 <1>        0.000
      8 H          51.1599  153.3908   28.6230 H          1 <1>        0.000
      9 H          52.8200  157.9011   28.0300 H          1 <1>        0.000
     10 H          53.5512  156.1291   26.4808 H          1 <1>        0.000
     11 N1         53.3350  153.4110   25.4920 N.pl3      1 <1>        0.080
     12 N2         53.5030  152.1040   25.1460 N.2        1 <1>        0.210
     13 C1         53.0930  151.2910   26.0490 C.2        1 <1>        0.090
     14 N3         52.6270  152.2100   27.0510 N.2        1 <1>        0.550
     15 C2         52.7940  153.3950   26.6700 C.2        1 <1>        0.100
     16 H1         53.5870  154.2379   24.9320 H          1 <1>        0.000
     17 C1         53.0990  149.8210   26.0570 C.2        1 <1>       -0.010
     18 O1         52.4180  149.2350   26.8840 O.2        1 <1>        0.370
     19 O2         53.8490  149.1740   25.1600 O.3        1 <1>        0.120
     20 H2         53.7940  148.2286   25.2350 H          1 <1>        0.000
     21 C1         50.9980  157.7530   30.0790 C.3        1 <1>        0.010
     22 N2         51.8700  158.9520   30.0170 N.4        1 <1>        0.460
     23 C3         51.3980  160.0580   30.8860 C.3        1 <1>        0.020
     24 H1         52.8096  158.6969   30.2782 H          1 <1>        0.000
     25 H6         50.9530  157.3557   31.1038 H          1 <1>        0.000
     26 H7         49.9754  157.9979   29.7561 H          1 <1>        0.000
     27 H9         51.3670  159.7401   31.9386 H          1 <1>        0.000
     28 H10        50.3890  160.3820   30.5910 H          1 <1>        0.000
     29 H2         51.9290  159.2750   29.0640 H          1 <1>        0.000
     30 N1         53.1370  161.4180   32.0180 N.4        1 <1>        0.450
     31 C1         52.3420  161.2700   30.7790 C.3        1 <1>        0.030
     32 H2         53.6998  160.6003   32.1929 H          1 <1>        0.000
     33 H5         51.7349  162.1701   30.6020 H          1 <1>        0.000
     34 H7         53.0039  161.1210   29.9131 H          1 <1>        0.000
     35 H1         52.5438  161.5551   32.8213 H          1 <1>        0.000
     36 C1         54.0460  162.5700   31.9370 C.3        1 <1>       -0.040
     37 C2         55.4410  162.0940   31.4910 C.3        1 <1>        0.320
     38 H1         54.1200  163.0488   32.9246 H          1 <1>        0.000
     39 H3         53.6550  163.2950   31.2080 H          1 <1>        0.000
     40 H4         55.8322  161.3696   32.2205 H          1 <1>        0.000
     41 H5         56.1208  162.9567   31.4310 H          1 <1>        0.000
     42 H6         55.3660  161.6160   30.5031 H          1 <1>        0.000
@<TRIPOS>BOND
     1    5    6 ar 
     2    5    4 ar 
     3    6    3 ar 
     4    4    1 ar 
     5    3    2 ar 
     6    1    2 ar 
     7    2    7 1  
     8    3    8 1  
     9    4    9 1  
    10    5   10 1  
    11   11   12 1  
    12   11   15 1  
    13   12   13 2  
    14   13   14 1  
    15   14   15 2  
    16   11   16 1  
    17    6   15 1  
    18   17   18 2  
    19   17   19 1  
    20   19   20 1  
    21   13   17 1  
    22   22   21 1  
    23   22   23 1  
    24   22   24 1  
    25   21   25 1  
    26   21   26 1  
    27   23   27 1  
    28   23   28 1  
    29   22   29 1  
    30    1   21 1  
    31   30   31 1  
    32   30   32 1  
    33   31   33 1  
    34   31   34 1  
    35   30   35 1  
    36   23   31 1  
    37   37   36 1  
    38   36   38 1  
    39   36   39 1  
    40   37   40 1  
    41   37   41 1  
    42   37   42 1  
    43   30   36 1  
# Name:          No_7_50
# Creation time: Thu Mar 21 14:34:36 2024


@<TRIPOS>MOLECULE
000002_000007
   42    43     1     1     1
SMALL
USER_CHARGES


@<TRIPOS>ATOM
      1 C9         51.5330  156.6540   29.1670 C.ar       1 <1>        0.170
      2 C10        51.0810  155.3840   29.3060 C.ar       1 <1>        0.240
      3 C11        51.5320  154.3980   28.4740 C.ar       1 <1>        0.240
      4 C14        52.4340  156.8960   28.1560 C.ar       1 <1>        0.230
      5 C13        52.8680  155.8980   27.2900 C.ar       1 <1>        0.220
      6 C12        52.4150  154.6130   27.4780 C.ar       1 <1>        0.210
      7 H          50.3592  155.1490   30.0798 H          1 <1>        0.000
      8 H          51.1599  153.3908   28.6230 H          1 <1>        0.000
      9 H          52.8200  157.9011   28.0300 H          1 <1>        0.000
     10 H          53.5512  156.1291   26.4808 H          1 <1>        0.000
     11 N1         53.3350  153.4110   25.4920 N.pl3      1 <1>        0.080
     12 N2         53.5030  152.1040   25.1460 N.2        1 <1>        0.210
     13 C1         53.0930  151.2910   26.0490 C.2        1 <1>        0.090
     14 N3         52.6270  152.2100   27.0510 N.2        1 <1>        0.550
     15 C2         52.7940  153.3950   26.6700 C.2        1 <1>        0.100
     16 H1         53.5870  154.2379   24.9320 H          1 <1>        0.000
     17 C1         53.0990  149.8210   26.0570 C.2        1 <1>       -0.010
     18 O1         52.4180  149.2350   26.8840 O.2        1 <1>        0.370
     19 O2         53.8490  149.1740   25.1600 O.3        1 <1>        0.120
     20 H2         53.7940  148.2286   25.2350 H          1 <1>        0.000
     21 C1         50.9980  157.7530   30.0790 C.3        1 <1>        0.010
     22 N2         51.8700  158.9520   30.0170 N.4        1 <1>        0.460
     23 C3         51.3980  160.0580   30.8860 C.3        1 <1>        0.020
     24 H1         52.8096  158.6969   30.2782 H          1 <1>        0.000
     25 H6         50.9530  157.3557   31.1038 H          1 <1>        0.000
     26 H7         49.9754  157.9979   29.7561 H          1 <1>        0.000
     27 H9         51.3670  159.7401   31.9386 H          1 <1>        0.000
     28 H10        50.3890  160.3820   30.5910 H          1 <1>        0.000
     29 H2         51.9290  159.2750   29.0640 H          1 <1>        0.000
     30 N1         53.1370  161.4180   32.0180 N.4        1 <1>        0.450
     31 C1         52.3420  161.2700   30.7790 C.3        1 <1>        0.030
     32 H2         53.6998  160.6003   32.1929 H          1 <1>        0.000
     33 H5         51.7349  162.1701   30.6020 H          1 <1>        0.000
     34 H7         53.0039  161.1210   29.9131 H          1 <1>        0.000
     35 H1         52.5438  161.5551   32.8213 H          1 <1>        0.000
     36 C1         54.0460  162.5700   31.9370 C.3        1 <1>       -0.040
     37 C2         55.2340  162.2240   31.0210 C.3        1 <1>        0.310
     38 H1         54.4170  162.8160   32.9429 H          1 <1>        0.000
     39 H3         53.5051  163.4348   31.5251 H          1 <1>        0.000
     40 H4         55.7749  161.3592   31.4329 H          1 <1>        0.000
     41 H5         55.9138  163.0867   30.9610 H          1 <1>        0.000
     42 H6         54.8630  161.9790   30.0149 H          1 <1>        0.000
@<TRIPOS>BOND
     1    5    6 ar 
     2    5    4 ar 
     3    6    3 ar 
     4    4    1 ar 
     5    3    2 ar 
     6    1    2 ar 
     7    2    7 1  
     8    3    8 1  
     9    4    9 1  
    10    5   10 1  
    11   11   12 1  
    12   11   15 1  
    13   12   13 2  
    14   13   14 1  
    15   14   15 2  
    16   11   16 1  
    17    6   15 1  
    18   17   18 2  
    19   17   19 1  
    20   19   20 1  
    21   13   17 1  
    22   22   21 1  
    23   22   23 1  
    24   22   24 1  
    25   21   25 1  
    26   21   26 1  
    27   23   27 1  
    28   23   28 1  
    29   22   29 1  
    30    1   21 1  
    31   30   31 1  
    32   30   32 1  
    33   31   33 1  
    34   31   34 1  
    35   30   35 1  
    36   23   31 1  
    37   37   36 1  
    38   36   38 1  
    39   36   39 1  
    40   37   40 1  
    41   37   41 1  
    42   37   42 1  
    43   30   36 1  
# Name:          No_5_31
# Creation time: Thu Mar 21 15:18:37 2024


@<TRIPOS>MOLECULE
000001_000001
   47    48     1     1     1
SMALL
USER_CHARGES


@<TRIPOS>ATOM
      1 C9         51.5330  156.6540   29.1670 C.ar       1 <1>        0.170
      2 C10        51.0810  155.3840   29.3060 C.ar       1 <1>        0.240
      3 C11        51.5320  154.3980   28.4740 C.ar       1 <1>        0.240
      4 C14        52.4340  156.8960   28.1560 C.ar       1 <1>        0.230
      5 C13        52.8680  155.8980   27.2900 C.ar       1 <1>        0.220
      6 C12        52.4150  154.6130   27.4780 C.ar       1 <1>        0.210
      7 H          50.3592  155.1490   30.0798 H          1 <1>        0.000
      8 H          51.1599  153.3908   28.6230 H          1 <1>        0.000
      9 H          52.8200  157.9011   28.0300 H          1 <1>        0.000
     10 H          53.5512  156.1291   26.4808 H          1 <1>        0.000
     11 O1         52.5890  152.1440   27.1330 O.3        1 <1>        0.690
     12 C1         53.0460  151.3440   26.1510 C.2        1 <1>        0.040
     13 N1         53.4710  152.0800   25.2140 N.2        1 <1>        0.090
     14 C2         53.3490  153.4850   25.4610 C.2        1 <1>        0.090
     15 C3         52.7940  153.3950   26.6700 C.2        1 <1>        0.100
     16 C1         48.9420  159.1700   30.6490 C.3        1 <1>        0.020
     17 C2         49.5150  158.0540   29.7380 C.3        1 <1>        0.040
     18 C3         50.9980  157.7530   30.0790 C.3        1 <1>        0.010
     19 H1         47.8912  159.3670   30.3901 H          1 <1>        0.000
     20 H3         48.9910  158.8660   31.7050 H          1 <1>        0.000
     21 H4         49.4411  158.3697   28.6869 H          1 <1>        0.000
     22 H5         48.9193  157.1380   29.8651 H          1 <1>        0.000
     23 H7         51.0911  157.4187   31.1228 H          1 <1>        0.000
     24 H8         51.6139  158.6538   29.9400 H          1 <1>        0.000
     25 O1         50.6950  160.4630   29.7400 O.2        1 <1>        0.080
     26 C1         49.7230  160.4400   30.4760 C.2        1 <1>        0.010
     27 N1         51.6690  149.3240   26.2990 N.4        1 <1>        1.330
     28 C1         53.0490  149.8430   26.1650 C.3        1 <1>       -0.100
     29 H2         51.6550  148.3162   26.3100 H          1 <1>        0.000
     30 H3         51.2378  149.6432   27.1524 H          1 <1>        0.000
     31 H6         53.5049  149.4871   25.2293 H          1 <1>        0.000
     32 H7         53.6701  149.5039   27.0072 H          1 <1>        0.000
     33 H1         51.0873  149.6268   25.5335 H          1 <1>        0.000
     34 C1         53.7190  154.6460   24.6390 C.2        1 <1>        0.100
     35 O1         54.9030  154.8820   24.4520 O.2        1 <1>        0.080
     36 O2         52.7480  155.4070   24.1230 O.3        1 <1>        0.680
     37 H2         53.0747  156.1343   23.6065 H          1 <1>        0.000
     38 C1         49.3070  161.6820   31.2100 C.3        1 <1>       -0.010
     39 C2         48.5610  161.3130   32.5180 C.3        1 <1>        0.190
     40 C3         49.4600  160.4770   33.4650 C.3        1 <1>        0.310
     41 H1         48.6516  162.2733   30.5536 H          1 <1>        0.000
     42 H3         50.2051  162.2760   31.4350 H          1 <1>        0.000
     43 H4         47.6584  160.7352   32.2701 H          1 <1>        0.000
     44 H5         48.2491  162.2348   33.0309 H          1 <1>        0.000
     45 H6         48.9111  160.2270   34.3849 H          1 <1>        0.000
     46 H7         50.3610  161.0460   33.7380 H          1 <1>        0.000
     47 H8         49.7681  159.5417   32.9748 H          1 <1>        0.000
@<TRIPOS>BOND
     1    5    6 ar 
     2    5    4 ar 
     3    6    3 ar 
     4    4    1 ar 
     5    3    2 ar 
     6    1    2 ar 
     7    2    7 1  
     8    3    8 1  
     9    4    9 1  
    10    5   10 1  
    11   11   12 1  
    12   11   15 1  
    13   12   13 2  
    14   13   14 1  
    15   14   15 2  
    16    6   15 1  
    17   17   16 1  
    18   17   18 1  
    19   16   19 1  
    20   16   20 1  
    21   17   21 1  
    22   17   22 1  
    23   18   23 1  
    24   18   24 1  
    25    1   18 1  
    26   26   25 2  
    27   16   26 1  
    28   27   28 1  
    29   27   29 1  
    30   27   30 1  
    31   28   31 1  
    32   28   32 1  
    33   27   33 1  
    34   12   28 1  
    35   34   35 2  
    36   34   36 1  
    37   36   37 1  
    38   14   34 1  
    39   39   38 1  
    40   39   40 1  
    41   38   41 1  
    42   38   42 1  
    43   39   43 1  
    44   39   44 1  
    45   40   45 1  
    46   40   46 1  
    47   40   47 1  
    48   26   38 1  
# Name:          No_6_3
# Creation time: Thu Mar 21 15:18:37 2024


@<TRIPOS>MOLECULE
000001_000002
   47    48     1     1     1
SMALL
USER_CHARGES


@<TRIPOS>ATOM
      1 C9         51.5330  156.6540   29.1670 C.ar       1 <1>        0.170
      2 C10        51.0810  155.3840   29.3060 C.ar       1 <1>        0.240
      3 C11        51.5320  154.3980   28.4740 C.ar       1 <1>        0.240
      4 C14        52.4340  156.8960   28.1560 C.ar       1 <1>        0.230
      5 C13        52.8680  155.8980   27.2900 C.ar       1 <1>        0.220
      6 C12        52.4150  154.6130   27.4780 C.ar       1 <1>        0.210
      7 H          50.3592  155.1490   30.0798 H          1 <1>        0.000
      8 H          51.1599  153.3908   28.6230 H          1 <1>        0.000
      9 H          52.8200  157.9011   28.0300 H          1 <1>        0.000
     10 H          53.5512  156.1291   26.4808 H          1 <1>        0.000
     11 O1         52.5890  152.1440   27.1330 O.3        1 <1>        0.690
     12 C1         53.0460  151.3440   26.1510 C.2        1 <1>        0.040
     13 N1         53.4710  152.0800   25.2140 N.2        1 <1>        0.090
     14 C2         53.3490  153.4850   25.4610 C.2        1 <1>        0.090
     15 C3         52.7940  153.3950   26.6700 C.2        1 <1>        0.100
     16 C1         48.9420  159.1700   30.6490 C.3        1 <1>        0.020
     17 C2         49.5150  158.0540   29.7380 C.3        1 <1>        0.040
     18 C3         50.9980  157.7530   30.0790 C.3        1 <1>        0.010
     19 H1         47.8912  159.3670   30.3901 H          1 <1>        0.000
     20 H3         48.9910  158.8660   31.7050 H          1 <1>        0.000
     21 H4         49.4411  158.3697   28.6869 H          1 <1>        0.000
     22 H5         48.9193  157.1380   29.8651 H          1 <1>        0.000
     23 H7         51.0911  157.4187   31.1228 H          1 <1>        0.000
     24 H8         51.6139  158.6538   29.9400 H          1 <1>        0.000
     25 O1         50.6950  160.4630   29.7400 O.2        1 <1>        0.080
     26 C1         49.7230  160.4400   30.4760 C.2        1 <1>        0.010
     27 N1         51.6690  149.3240   26.2990 N.4        1 <1>        1.330
     28 C1         53.0490  149.8430   26.1650 C.3        1 <1>       -0.100
     29 H2         51.6550  148.3162   26.3100 H          1 <1>        0.000
     30 H3         51.2378  149.6432   27.1524 H          1 <1>        0.000
     31 H6         53.5049  149.4871   25.2293 H          1 <1>        0.000
     32 H7         53.6701  149.5039   27.0072 H          1 <1>        0.000
     33 H1         51.0873  149.6268   25.5335 H          1 <1>        0.000
     34 C1         53.7190  154.6460   24.6390 C.2        1 <1>        0.100
     35 O1         54.9030  154.8820   24.4520 O.2        1 <1>        0.080
     36 O2         52.7480  155.4070   24.1230 O.3        1 <1>        0.680
     37 H2         53.0747  156.1343   23.6065 H          1 <1>        0.000
     38 C1         49.3070  161.6820   31.2100 C.3        1 <1>       -0.010
     39 C2         48.5610  161.3130   32.5180 C.3        1 <1>        0.190
     40 C3         49.4600  160.4770   33.4650 C.3        1 <1>        0.310
     41 H1         48.6516  162.2733   30.5536 H          1 <1>        0.000
     42 H3         50.2051  162.2760   31.4350 H          1 <1>        0.000
     43 H4         47.6584  160.7352   32.2701 H          1 <1>        0.000
     44 H5         48.2491  162.2348   33.0309 H          1 <1>        0.000
     45 H6         48.9111  160.2270   34.3849 H          1 <1>        0.000
     46 H7         50.3610  161.0460   33.7380 H          1 <1>        0.000
     47 H8         49.7681  159.5417   32.9748 H          1 <1>        0.000
@<TRIPOS>BOND
     1    5    6 ar 
     2    5    4 ar 
     3    6    3 ar 
     4    4    1 ar 
     5    3    2 ar 
     6    1    2 ar 
     7    2    7 1  
     8    3    8 1  
     9    4    9 1  
    10    5   10 1  
    11   11   12 1  
    12   11   15 1  
    13   12   13 2  
    14   13   14 1  
    15   14   15 2  
    16    6   15 1  
    17   17   16 1  
    18   17   18 1  
    19   16   19 1  
    20   16   20 1  
    21   17   21 1  
    22   17   22 1  
    23   18   23 1  
    24   18   24 1  
    25    1   18 1  
    26   26   25 2  
    27   16   26 1  
    28   27   28 1  
    29   27   29 1  
    30   27   30 1  
    31   28   31 1  
    32   28   32 1  
    33   27   33 1  
    34   12   28 1  
    35   34   35 2  
    36   34   36 1  
    37   36   37 1  
    38   14   34 1  
    39   39   38 1  
    40   39   40 1  
    41   38   41 1  
    42   38   42 1  
    43   39   43 1  
    44   39   44 1  
    45   40   45 1  
    46   40   46 1  
    47   40   47 1  
    48   26   38 1  
# Name:          No_7_4
# Creation time: Thu Mar 21 15:18:37 2024


@<TRIPOS>MOLECULE
000001_000003
   47    48     1     1     1
SMALL
USER_CHARGES


@<TRIPOS>ATOM
      1 C9         51.5330  156.6540   29.1670 C.ar       1 <1>        0.170
      2 C10        51.0810  155.3840   29.3060 C.ar       1 <1>        0.240
      3 C11        51.5320  154.3980   28.4740 C.ar       1 <1>        0.240
      4 C14        52.4340  156.8960   28.1560 C.ar       1 <1>        0.230
      5 C13        52.8680  155.8980   27.2900 C.ar       1 <1>        0.220
      6 C12        52.4150  154.6130   27.4780 C.ar       1 <1>        0.210
      7 H          50.3592  155.1490   30.0798 H          1 <1>        0.000
      8 H          51.1599  153.3908   28.6230 H          1 <1>        0.000
      9 H          52.8200  157.9011   28.0300 H          1 <1>        0.000
     10 H          53.5512  156.1291   26.4808 H          1 <1>        0.000
     11 O1         52.5890  152.1440   27.1330 O.3        1 <1>        0.690
     12 C1         53.0460  151.3440   26.1510 C.2        1 <1>        0.040
     13 N1         53.4710  152.0800   25.2140 N.2        1 <1>        0.090
     14 C2         53.3490  153.4850   25.4610 C.2        1 <1>        0.090
     15 C3         52.7940  153.3950   26.6700 C.2        1 <1>        0.100
     16 C1         48.9420  159.1700   30.6490 C.3        1 <1>        0.020
     17 C2         49.5150  158.0540   29.7380 C.3        1 <1>        0.040
     18 C3         50.9980  157.7530   30.0790 C.3        1 <1>        0.010
     19 H1         47.8912  159.3670   30.3901 H          1 <1>        0.000
     20 H3         48.9910  158.8660   31.7050 H          1 <1>        0.000
     21 H4         49.4411  158.3697   28.6869 H          1 <1>        0.000
     22 H5         48.9193  157.1380   29.8651 H          1 <1>        0.000
     23 H7         51.0911  157.4187   31.1228 H          1 <1>        0.000
     24 H8         51.6139  158.6538   29.9400 H          1 <1>        0.000
     25 O1         50.6950  160.4630   29.7400 O.2        1 <1>        0.080
     26 C1         49.7230  160.4400   30.4760 C.2        1 <1>        0.010
     27 N1         51.6690  149.3240   26.2990 N.4        1 <1>        1.330
     28 C1         53.0490  149.8430   26.1650 C.3        1 <1>       -0.100
     29 H2         51.6550  148.3162   26.3100 H          1 <1>        0.000
     30 H3         51.2378  149.6432   27.1524 H          1 <1>        0.000
     31 H6         53.5049  149.4871   25.2293 H          1 <1>        0.000
     32 H7         53.6701  149.5039   27.0072 H          1 <1>        0.000
     33 H1         51.0873  149.6268   25.5335 H          1 <1>        0.000
     34 C1         53.7190  154.6460   24.6390 C.2        1 <1>        0.100
     35 O1         54.9030  154.8820   24.4520 O.2        1 <1>        0.080
     36 O2         52.7480  155.4070   24.1230 O.3        1 <1>        0.680
     37 H2         53.0747  156.1343   23.6065 H          1 <1>        0.000
     38 C1         49.3070  161.6820   31.2100 C.3        1 <1>       -0.010
     39 C2         48.5610  161.3130   32.5180 C.3        1 <1>        0.190
     40 C3         49.4600  160.4770   33.4650 C.3        1 <1>        0.310
     41 H1         48.6516  162.2733   30.5536 H          1 <1>        0.000
     42 H3         50.2051  162.2760   31.4350 H          1 <1>        0.000
     43 H4         47.6584  160.7352   32.2701 H          1 <1>        0.000
     44 H5         48.2491  162.2348   33.0309 H          1 <1>        0.000
     45 H6         48.9111  160.2270   34.3849 H          1 <1>        0.000
     46 H7         50.3610  161.0460   33.7380 H          1 <1>        0.000
     47 H8         49.7681  159.5417   32.9748 H          1 <1>        0.000
@<TRIPOS>BOND
     1    5    6 ar 
     2    5    4 ar 
     3    6    3 ar 
     4    4    1 ar 
     5    3    2 ar 
     6    1    2 ar 
     7    2    7 1  
     8    3    8 1  
     9    4    9 1  
    10    5   10 1  
    11   11   12 1  
    12   11   15 1  
    13   12   13 2  
    14   13   14 1  
    15   14   15 2  
    16    6   15 1  
    17   17   16 1  
    18   17   18 1  
    19   16   19 1  
    20   16   20 1  
    21   17   21 1  
    22   17   22 1  
    23   18   23 1  
    24   18   24 1  
    25    1   18 1  
    26   26   25 2  
    27   16   26 1  
    28   27   28 1  
    29   27   29 1  
    30   27   30 1  
    31   28   31 1  
    32   28   32 1  
    33   27   33 1  
    34   12   28 1  
    35   34   35 2  
    36   34   36 1  
    37   36   37 1  
    38   14   34 1  
    39   39   38 1  
    40   39   40 1  
    41   38   41 1  
    42   38   42 1  
    43   39   43 1  
    44   39   44 1  
    45   40   45 1  
    46   40   46 1  
    47   40   47 1  
    48   26   38 1  
# Name:          No_6_6
# Creation time: Thu Mar 21 15:18:37 2024


@<TRIPOS>MOLECULE
000001_000004
   47    48     1     1     1
SMALL
USER_CHARGES


@<TRIPOS>ATOM
      1 C9         51.5330  156.6540   29.1670 C.ar       1 <1>        0.170
      2 C10        51.0810  155.3840   29.3060 C.ar       1 <1>        0.240
      3 C11        51.5320  154.3980   28.4740 C.ar       1 <1>        0.240
      4 C14        52.4340  156.8960   28.1560 C.ar       1 <1>        0.230
      5 C13        52.8680  155.8980   27.2900 C.ar       1 <1>        0.220
      6 C12        52.4150  154.6130   27.4780 C.ar       1 <1>        0.210
      7 H          50.3592  155.1490   30.0798 H          1 <1>        0.000
      8 H          51.1599  153.3908   28.6230 H          1 <1>        0.000
      9 H          52.8200  157.9011   28.0300 H          1 <1>        0.000
     10 H          53.5512  156.1291   26.4808 H          1 <1>        0.000
     11 O1         52.5890  152.1440   27.1330 O.3        1 <1>        0.690
     12 C1         53.0460  151.3440   26.1510 C.2        1 <1>        0.040
     13 N1         53.4710  152.0800   25.2140 N.2        1 <1>        0.090
     14 C2         53.3490  153.4850   25.4610 C.2        1 <1>        0.090
     15 C3         52.7940  153.3950   26.6700 C.2        1 <1>        0.100
     16 C1         48.9420  159.1700   30.6490 C.3        1 <1>        0.020
     17 C2         49.5150  158.0540   29.7380 C.3        1 <1>        0.040
     18 C3         50.9980  157.7530   30.0790 C.3        1 <1>        0.010
     19 H1         47.8912  159.3670   30.3901 H          1 <1>        0.000
     20 H3         48.9910  158.8660   31.7050 H          1 <1>        0.000
     21 H4         49.4411  158.3697   28.6869 H          1 <1>        0.000
     22 H5         48.9193  157.1380   29.8651 H          1 <1>        0.000
     23 H7         51.0911  157.4187   31.1228 H          1 <1>        0.000
     24 H8         51.6139  158.6538   29.9400 H          1 <1>        0.000
     25 O1         50.6950  160.4630   29.7400 O.2        1 <1>        0.080
     26 C1         49.7230  160.4400   30.4760 C.2        1 <1>        0.010
     27 N1         51.6690  149.3240   26.2990 N.4        1 <1>        1.330
     28 C1         53.0490  149.8430   26.1650 C.3        1 <1>       -0.100
     29 H2         51.6550  148.3162   26.3100 H          1 <1>        0.000
     30 H3         51.2378  149.6432   27.1524 H          1 <1>        0.000
     31 H6         53.5049  149.4871   25.2293 H          1 <1>        0.000
     32 H7         53.6701  149.5039   27.0072 H          1 <1>        0.000
     33 H1         51.0873  149.6268   25.5335 H          1 <1>        0.000
     34 C1         53.7190  154.6460   24.6390 C.2        1 <1>        0.100
     35 O1         54.9030  154.8820   24.4520 O.2        1 <1>        0.080
     36 O2         52.7480  155.4070   24.1230 O.3        1 <1>        0.680
     37 H2         53.0747  156.1343   23.6065 H          1 <1>        0.000
     38 C1         49.3070  161.6820   31.2100 C.3        1 <1>       -0.010
     39 C2         48.9080  161.3400   32.6680 C.3        1 <1>        0.190
     40 C3         50.0900  160.7010   33.4430 C.3        1 <1>        0.230
     41 H1         48.4551  162.1330   30.6800 H          1 <1>        0.000
     42 H3         50.1438  162.3959   31.1990 H          1 <1>        0.000
     43 H4         48.0593  160.6403   32.6590 H          1 <1>        0.000
     44 H5         48.5901  162.2587   33.1828 H          1 <1>        0.000
     45 H6         49.7839  160.4669   34.4733 H          1 <1>        0.000
     46 H7         50.9433  161.3942   33.4790 H          1 <1>        0.000
     47 H8         50.4110  159.7700   32.9530 H          1 <1>        0.000
@<TRIPOS>BOND
     1    5    6 ar 
     2    5    4 ar 
     3    6    3 ar 
     4    4    1 ar 
     5    3    2 ar 
     6    1    2 ar 
     7    2    7 1  
     8    3    8 1  
     9    4    9 1  
    10    5   10 1  
    11   11   12 1  
    12   11   15 1  
    13   12   13 2  
    14   13   14 1  
    15   14   15 2  
    16    6   15 1  
    17   17   16 1  
    18   17   18 1  
    19   16   19 1  
    20   16   20 1  
    21   17   21 1  
    22   17   22 1  
    23   18   23 1  
    24   18   24 1  
    25    1   18 1  
    26   26   25 2  
    27   16   26 1  
    28   27   28 1  
    29   27   29 1  
    30   27   30 1  
    31   28   31 1  
    32   28   32 1  
    33   27   33 1  
    34   12   28 1  
    35   34   35 2  
    36   34   36 1  
    37   36   37 1  
    38   14   34 1  
    39   39   38 1  
    40   39   40 1  
    41   38   41 1  
    42   38   42 1  
    43   39   43 1  
    44   39   44 1  
    45   40   45 1  
    46   40   46 1  
    47   40   47 1  
    48   26   38 1  
# Name:          No_5_32
# Creation time: Thu Mar 21 15:18:37 2024


@<TRIPOS>MOLECULE
000001_000005
   47    48     1     1     1
SMALL
USER_CHARGES


@<TRIPOS>ATOM
      1 C9         51.5330  156.6540   29.1670 C.ar       1 <1>        0.170
      2 C10        51.0810  155.3840   29.3060 C.ar       1 <1>        0.240
      3 C11        51.5320  154.3980   28.4740 C.ar       1 <1>        0.240
      4 C14        52.4340  156.8960   28.1560 C.ar       1 <1>        0.230
      5 C13        52.8680  155.8980   27.2900 C.ar       1 <1>        0.220
      6 C12        52.4150  154.6130   27.4780 C.ar       1 <1>        0.210
      7 H          50.3592  155.1490   30.0798 H          1 <1>        0.000
      8 H          51.1599  153.3908   28.6230 H          1 <1>        0.000
      9 H          52.8200  157.9011   28.0300 H          1 <1>        0.000
     10 H          53.5512  156.1291   26.4808 H          1 <1>        0.000
     11 O1         52.5890  152.1440   27.1330 O.3        1 <1>        0.690
     12 C1         53.0460  151.3440   26.1510 C.2        1 <1>        0.040
     13 N1         53.4710  152.0800   25.2140 N.2        1 <1>        0.090
     14 C2         53.3490  153.4850   25.4610 C.2        1 <1>        0.090
     15 C3         52.7940  153.3950   26.6700 C.2        1 <1>        0.100
     16 C1         48.9420  159.1700   30.6490 C.3        1 <1>        0.020
     17 C2         49.5150  158.0540   29.7380 C.3        1 <1>        0.040
     18 C3         50.9980  157.7530   30.0790 C.3        1 <1>        0.010
     19 H1         47.8912  159.3670   30.3901 H          1 <1>        0.000
     20 H3         48.9910  158.8660   31.7050 H          1 <1>        0.000
     21 H4         49.4411  158.3697   28.6869 H          1 <1>        0.000
     22 H5         48.9193  157.1380   29.8651 H          1 <1>        0.000
     23 H7         51.0911  157.4187   31.1228 H          1 <1>        0.000
     24 H8         51.6139  158.6538   29.9400 H          1 <1>        0.000
     25 O1         50.6950  160.4630   29.7400 O.2        1 <1>        0.080
     26 C1         49.7230  160.4400   30.4760 C.2        1 <1>        0.010
     27 N1         51.6690  149.3240   26.2990 N.4        1 <1>        1.330
     28 C1         53.0490  149.8430   26.1650 C.3        1 <1>       -0.100
     29 H2         51.6550  148.3162   26.3100 H          1 <1>        0.000
     30 H3         51.2378  149.6432   27.1524 H          1 <1>        0.000
     31 H6         53.5049  149.4871   25.2293 H          1 <1>        0.000
     32 H7         53.6701  149.5039   27.0072 H          1 <1>        0.000
     33 H1         51.0873  149.6268   25.5335 H          1 <1>        0.000
     34 C1         53.7190  154.6460   24.6390 C.2        1 <1>        0.100
     35 O1         54.9030  154.8820   24.4520 O.2        1 <1>        0.080
     36 O2         52.7480  155.4070   24.1230 O.3        1 <1>        0.680
     37 H2         53.0747  156.1343   23.6065 H          1 <1>        0.000
     38 C1         49.3070  161.6820   31.2100 C.3        1 <1>       -0.010
     39 C2         48.9080  161.3400   32.6680 C.3        1 <1>        0.190
     40 C3         50.0900  160.7010   33.4430 C.3        1 <1>        0.230
     41 H1         48.4551  162.1330   30.6800 H          1 <1>        0.000
     42 H3         50.1438  162.3959   31.1990 H          1 <1>        0.000
     43 H4         48.0593  160.6403   32.6590 H          1 <1>        0.000
     44 H5         48.5901  162.2587   33.1828 H          1 <1>        0.000
     45 H6         49.7839  160.4669   34.4733 H          1 <1>        0.000
     46 H7         50.9433  161.3942   33.4790 H          1 <1>        0.000
     47 H8         50.4110  159.7700   32.9530 H          1 <1>        0.000
@<TRIPOS>BOND
     1    5    6 ar 
     2    5    4 ar 
     3    6    3 ar 
     4    4    1 ar 
     5    3    2 ar 
     6    1    2 ar 
     7    2    7 1  
     8    3    8 1  
     9    4    9 1  
    10    5   10 1  
    11   11   12 1  
    12   11   15 1  
    13   12   13 2  
    14   13   14 1  
    15   14   15 2  
    16    6   15 1  
    17   17   16 1  
    18   17   18 1  
    19   16   19 1  
    20   16   20 1  
    21   17   21 1  
    22   17   22 1  
    23   18   23 1  
    24   18   24 1  
    25    1   18 1  
    26   26   25 2  
    27   16   26 1  
    28   27   28 1  
    29   27   29 1  
    30   27   30 1  
    31   28   31 1  
    32   28   32 1  
    33   27   33 1  
    34   12   28 1  
    35   34   35 2  
    36   34   36 1  
    37   36   37 1  
    38   14   34 1  
    39   39   38 1  
    40   39   40 1  
    41   38   41 1  
    42   38   42 1  
    43   39   43 1  
    44   39   44 1  
    45   40   45 1  
    46   40   46 1  
    47   40   47 1  
    48   26   38 1  
# Name:          No_7_5
# Creation time: Thu Mar 21 15:18:37 2024


@<TRIPOS>MOLECULE
000001_000006
   47    48     1     1     1
SMALL
USER_CHARGES


@<TRIPOS>ATOM
      1 C9         51.5330  156.6540   29.1670 C.ar       1 <1>        0.170
      2 C10        51.0810  155.3840   29.3060 C.ar       1 <1>        0.240
      3 C11        51.5320  154.3980   28.4740 C.ar       1 <1>        0.240
      4 C14        52.4340  156.8960   28.1560 C.ar       1 <1>        0.230
      5 C13        52.8680  155.8980   27.2900 C.ar       1 <1>        0.220
      6 C12        52.4150  154.6130   27.4780 C.ar       1 <1>        0.210
      7 H          50.3592  155.1490   30.0798 H          1 <1>        0.000
      8 H          51.1599  153.3908   28.6230 H          1 <1>        0.000
      9 H          52.8200  157.9011   28.0300 H          1 <1>        0.000
     10 H          53.5512  156.1291   26.4808 H          1 <1>        0.000
     11 O1         52.5890  152.1440   27.1330 O.3        1 <1>        0.690
     12 C1         53.0460  151.3440   26.1510 C.2        1 <1>        0.040
     13 N1         53.4710  152.0800   25.2140 N.2        1 <1>        0.090
     14 C2         53.3490  153.4850   25.4610 C.2        1 <1>        0.090
     15 C3         52.7940  153.3950   26.6700 C.2        1 <1>        0.100
     16 C1         48.9420  159.1700   30.6490 C.3        1 <1>        0.020
     17 C2         49.5150  158.0540   29.7380 C.3        1 <1>        0.040
     18 C3         50.9980  157.7530   30.0790 C.3        1 <1>        0.010
     19 H1         47.8912  159.3670   30.3901 H          1 <1>        0.000
     20 H3         48.9910  158.8660   31.7050 H          1 <1>        0.000
     21 H4         49.4411  158.3697   28.6869 H          1 <1>        0.000
     22 H5         48.9193  157.1380   29.8651 H          1 <1>        0.000
     23 H7         51.0911  157.4187   31.1228 H          1 <1>        0.000
     24 H8         51.6139  158.6538   29.9400 H          1 <1>        0.000
     25 O1         50.6950  160.4630   29.7400 O.2        1 <1>        0.080
     26 C1         49.7230  160.4400   30.4760 C.2        1 <1>        0.010
     27 N1         51.6690  149.3240   26.2990 N.4        1 <1>        1.330
     28 C1         53.0490  149.8430   26.1650 C.3        1 <1>       -0.100
     29 H2         51.6550  148.3162   26.3100 H          1 <1>        0.000
     30 H3         51.2378  149.6432   27.1524 H          1 <1>        0.000
     31 H6         53.5049  149.4871   25.2293 H          1 <1>        0.000
     32 H7         53.6701  149.5039   27.0072 H          1 <1>        0.000
     33 H1         51.0873  149.6268   25.5335 H          1 <1>        0.000
     34 C1         53.7190  154.6460   24.6390 C.2        1 <1>        0.100
     35 O1         54.9030  154.8820   24.4520 O.2        1 <1>        0.080
     36 O2         52.7480  155.4070   24.1230 O.3        1 <1>        0.680
     37 H2         53.0747  156.1343   23.6065 H          1 <1>        0.000
     38 C1         49.3070  161.6820   31.2100 C.3        1 <1>       -0.010
     39 C2         48.9080  161.3400   32.6680 C.3        1 <1>        0.190
     40 C3         50.0900  160.7010   33.4430 C.3        1 <1>        0.230
     41 H1         48.4551  162.1330   30.6800 H          1 <1>        0.000
     42 H3         50.1438  162.3959   31.1990 H          1 <1>        0.000
     43 H4         48.0593  160.6403   32.6590 H          1 <1>        0.000
     44 H5         48.5901  162.2587   33.1828 H          1 <1>        0.000
     45 H6         49.7839  160.4669   34.4733 H          1 <1>        0.000
     46 H7         50.9433  161.3942   33.4790 H          1 <1>        0.000
     47 H8         50.4110  159.7700   32.9530 H          1 <1>        0.000
@<TRIPOS>BOND
     1    5    6 ar 
     2    5    4 ar 
     3    6    3 ar 
     4    4    1 ar 
     5    3    2 ar 
     6    1    2 ar 
     7    2    7 1  
     8    3    8 1  
     9    4    9 1  
    10    5   10 1  
    11   11   12 1  
    12   11   15 1  
    13   12   13 2  
    14   13   14 1  
    15   14   15 2  
    16    6   15 1  
    17   17   16 1  
    18   17   18 1  
    19   16   19 1  
    20   16   20 1  
    21   17   21 1  
    22   17   22 1  
    23   18   23 1  
    24   18   24 1  
    25    1   18 1  
    26   26   25 2  
    27   16   26 1  
    28   27   28 1  
    29   27   29 1  
    30   27   30 1  
    31   28   31 1  
    32   28   32 1  
    33   27   33 1  
    34   12   28 1  
    35   34   35 2  
    36   34   36 1  
    37   36   37 1  
    38   14   34 1  
    39   39   38 1  
    40   39   40 1  
    41   38   41 1  
    42   38   42 1  
    43   39   43 1  
    44   39   44 1  
    45   40   45 1  
    46   40   46 1  
    47   40   47 1  
    48   26   38 1  
# Name:          No_5_33
# Creation time: Thu Mar 21 15:18:37 2024


@<TRIPOS>MOLECULE
000001_000007
   46    47     1     1     1
SMALL
USER_CHARGES


@<TRIPOS>ATOM
      1 C9         51.5330  156.6540   29.1670 C.ar       1 <1>        0.170
      2 C10        51.0810  155.3840   29.3060 C.ar       1 <1>        0.240
      3 C11        51.5320  154.3980   28.4740 C.ar       1 <1>        0.240
      4 C14        52.4340  156.8960   28.1560 C.ar       1 <1>        0.230
      5 C13        52.8680  155.8980   27.2900 C.ar       1 <1>        0.220
      6 C12        52.4150  154.6130   27.4780 C.ar       1 <1>        0.210
      7 H          50.3592  155.1490   30.0798 H          1 <1>        0.000
      8 H          51.1599  153.3908   28.6230 H          1 <1>        0.000
      9 H          52.8200  157.9011   28.0300 H          1 <1>        0.000
     10 H          53.5512  156.1291   26.4808 H          1 <1>        0.000
     11 O1         52.5890  152.1440   27.1330 O.3        1 <1>        0.690
     12 C1         53.0460  151.3440   26.1510 C.2        1 <1>        0.040
     13 N1         53.4710  152.0800   25.2140 N.2        1 <1>        0.090
     14 C2         53.3490  153.4850   25.4610 C.2        1 <1>        0.090
     15 C3         52.7940  153.3950   26.6700 C.2        1 <1>        0.100
     16 C1         48.9420  159.1700   30.6490 C.3        1 <1>        0.020
     17 C2         49.5150  158.0540   29.7380 C.3        1 <1>        0.040
     18 C3         50.9980  157.7530   30.0790 C.3        1 <1>        0.010
     19 H1         47.8912  159.3670   30.3901 H          1 <1>        0.000
     20 H3         48.9910  158.8660   31.7050 H          1 <1>        0.000
     21 H4         49.4411  158.3697   28.6869 H          1 <1>        0.000
     22 H5         48.9193  157.1380   29.8651 H          1 <1>        0.000
     23 H7         51.0911  157.4187   31.1228 H          1 <1>        0.000
     24 H8         51.6139  158.6538   29.9400 H          1 <1>        0.000
     25 O1         50.6950  160.4630   29.7400 O.2        1 <1>        0.080
     26 C1         49.7230  160.4400   30.4760 C.2        1 <1>        0.010
     27 N1         51.6690  149.3240   26.2990 N.4        1 <1>        1.330
     28 C1         53.0490  149.8430   26.1650 C.3        1 <1>       -0.100
     29 H2         51.6550  148.3162   26.3100 H          1 <1>        0.000
     30 H3         51.2378  149.6432   27.1524 H          1 <1>        0.000
     31 H6         53.5049  149.4871   25.2293 H          1 <1>        0.000
     32 H7         53.6701  149.5039   27.0072 H          1 <1>        0.000
     33 H1         51.0873  149.6268   25.5335 H          1 <1>        0.000
     34 C1         53.7190  154.6460   24.6390 C.2        1 <1>        0.100
     35 O1         54.9030  154.8820   24.4520 O.2        1 <1>        0.080
     36 O2         52.7480  155.4070   24.1230 O.3        1 <1>        0.680
     37 H2         53.0747  156.1343   23.6065 H          1 <1>        0.000
     38 C1         49.3070  161.6820   31.2100 C.3        1 <1>       -0.010
     39 C2         49.9460  161.6960   32.5780 C.2        1 <1>        0.070
     40 C3         49.6610  160.5820   33.5560 C.3        1 <1>        0.200
     41 O4         50.6870  162.6000   32.8900 O.2        1 <1>        0.030
     42 H5         48.2122  161.6960   31.3160 H          1 <1>        0.000
     43 H7         49.6319  162.5676   30.6442 H          1 <1>        0.000
     44 H8         49.9811  159.6228   33.1229 H          1 <1>        0.000
     45 H9         48.5820  160.5470   33.7670 H          1 <1>        0.000
     46 H10        50.2117  160.7649   34.4905 H          1 <1>        0.000
@<TRIPOS>BOND
     1    5    6 ar 
     2    5    4 ar 
     3    6    3 ar 
     4    4    1 ar 
     5    3    2 ar 
     6    1    2 ar 
     7    2    7 1  
     8    3    8 1  
     9    4    9 1  
    10    5   10 1  
    11   11   12 1  
    12   11   15 1  
    13   12   13 2  
    14   13   14 1  
    15   14   15 2  
    16    6   15 1  
    17   17   16 1  
    18   17   18 1  
    19   16   19 1  
    20   16   20 1  
    21   17   21 1  
    22   17   22 1  
    23   18   23 1  
    24   18   24 1  
    25    1   18 1  
    26   26   25 2  
    27   16   26 1  
    28   27   28 1  
    29   27   29 1  
    30   27   30 1  
    31   28   31 1  
    32   28   32 1  
    33   27   33 1  
    34   12   28 1  
    35   34   35 2  
    36   34   36 1  
    37   36   37 1  
    38   14   34 1  
    39   39   38 1  
    40   39   40 1  
    41   39   41 2  
    42   38   42 1  
    43   38   43 1  
    44   40   44 1  
    45   40   45 1  
    46   40   46 1  
    47   26   38 1  
# Name:          No_6_11
# Creation time: Thu Mar 21 15:18:37 2024


@<TRIPOS>MOLECULE
000001_000008
   46    47     1     1     1
SMALL
USER_CHARGES


@<TRIPOS>ATOM
      1 C9         51.5330  156.6540   29.1670 C.ar       1 <1>        0.170
      2 C10        51.0810  155.3840   29.3060 C.ar       1 <1>        0.240
      3 C11        51.5320  154.3980   28.4740 C.ar       1 <1>        0.240
      4 C14        52.4340  156.8960   28.1560 C.ar       1 <1>        0.230
      5 C13        52.8680  155.8980   27.2900 C.ar       1 <1>        0.220
      6 C12        52.4150  154.6130   27.4780 C.ar       1 <1>        0.210
      7 H          50.3592  155.1490   30.0798 H          1 <1>        0.000
      8 H          51.1599  153.3908   28.6230 H          1 <1>        0.000
      9 H          52.8200  157.9011   28.0300 H          1 <1>        0.000
     10 H          53.5512  156.1291   26.4808 H          1 <1>        0.000
     11 O1         52.5890  152.1440   27.1330 O.3        1 <1>        0.690
     12 C1         53.0460  151.3440   26.1510 C.2        1 <1>        0.040
     13 N1         53.4710  152.0800   25.2140 N.2        1 <1>        0.090
     14 C2         53.3490  153.4850   25.4610 C.2        1 <1>        0.090
     15 C3         52.7940  153.3950   26.6700 C.2        1 <1>        0.100
     16 C1         48.9420  159.1700   30.6490 C.3        1 <1>        0.020
     17 C2         49.5150  158.0540   29.7380 C.3        1 <1>        0.040
     18 C3         50.9980  157.7530   30.0790 C.3        1 <1>        0.010
     19 H1         47.8912  159.3670   30.3901 H          1 <1>        0.000
     20 H3         48.9910  158.8660   31.7050 H          1 <1>        0.000
     21 H4         49.4411  158.3697   28.6869 H          1 <1>        0.000
     22 H5         48.9193  157.1380   29.8651 H          1 <1>        0.000
     23 H7         51.0911  157.4187   31.1228 H          1 <1>        0.000
     24 H8         51.6139  158.6538   29.9400 H          1 <1>        0.000
     25 O1         50.6950  160.4630   29.7400 O.2        1 <1>        0.080
     26 C1         49.7230  160.4400   30.4760 C.2        1 <1>        0.010
     27 N1         51.6690  149.3240   26.2990 N.4        1 <1>        1.330
     28 C1         53.0490  149.8430   26.1650 C.3        1 <1>       -0.100
     29 H2         51.6550  148.3162   26.3100 H          1 <1>        0.000
     30 H3         51.2378  149.6432   27.1524 H          1 <1>        0.000
     31 H6         53.5049  149.4871   25.2293 H          1 <1>        0.000
     32 H7         53.6701  149.5039   27.0072 H          1 <1>        0.000
     33 H1         51.0873  149.6268   25.5335 H          1 <1>        0.000
     34 C1         53.7190  154.6460   24.6390 C.2        1 <1>        0.100
     35 O1         54.9030  154.8820   24.4520 O.2        1 <1>        0.080
     36 O2         52.7480  155.4070   24.1230 O.3        1 <1>        0.680
     37 H2         53.0747  156.1343   23.6065 H          1 <1>        0.000
     38 C1         49.3070  161.6820   31.2100 C.3        1 <1>       -0.010
     39 C2         49.9460  161.6960   32.5780 C.2        1 <1>        0.070
     40 C3         49.6610  160.5820   33.5560 C.3        1 <1>        0.200
     41 O4         50.6870  162.6000   32.8900 O.2        1 <1>        0.030
     42 H5         48.2122  161.6960   31.3160 H          1 <1>        0.000
     43 H7         49.6319  162.5676   30.6442 H          1 <1>        0.000
     44 H8         49.9811  159.6228   33.1229 H          1 <1>        0.000
     45 H9         48.5820  160.5470   33.7670 H          1 <1>        0.000
     46 H10        50.2117  160.7649   34.4905 H          1 <1>        0.000
@<TRIPOS>BOND
     1    5    6 ar 
     2    5    4 ar 
     3    6    3 ar 
     4    4    1 ar 
     5    3    2 ar 
     6    1    2 ar 
     7    2    7 1  
     8    3    8 1  
     9    4    9 1  
    10    5   10 1  
    11   11   12 1  
    12   11   15 1  
    13   12   13 2  
    14   13   14 1  
    15   14   15 2  
    16    6   15 1  
    17   17   16 1  
    18   17   18 1  
    19   16   19 1  
    20   16   20 1  
    21   17   21 1  
    22   17   22 1  
    23   18   23 1  
    24   18   24 1  
    25    1   18 1  
    26   26   25 2  
    27   16   26 1  
    28   27   28 1  
    29   27   29 1  
    30   27   30 1  
    31   28   31 1  
    32   28   32 1  
    33   27   33 1  
    34   12   28 1  
    35   34   35 2  
    36   34   36 1  
    37   36   37 1  
    38   14   34 1  
    39   39   38 1  
    40   39   40 1  
    41   39   41 2  
    42   38   42 1  
    43   38   43 1  
    44   40   44 1  
    45   40   45 1  
    46   40   46 1  
    47   26   38 1  
# Name:          No_7_8
# Creation time: Thu Mar 21 15:18:37 2024


@<TRIPOS>MOLECULE
000001_000009
   46    47     1     1     1
SMALL
USER_CHARGES


@<TRIPOS>ATOM
      1 C9         51.5330  156.6540   29.1670 C.ar       1 <1>        0.170
      2 C10        51.0810  155.3840   29.3060 C.ar       1 <1>        0.240
      3 C11        51.5320  154.3980   28.4740 C.ar       1 <1>        0.240
      4 C14        52.4340  156.8960   28.1560 C.ar       1 <1>        0.230
      5 C13        52.8680  155.8980   27.2900 C.ar       1 <1>        0.220
      6 C12        52.4150  154.6130   27.4780 C.ar       1 <1>        0.210
      7 H          50.3592  155.1490   30.0798 H          1 <1>        0.000
      8 H          51.1599  153.3908   28.6230 H          1 <1>        0.000
      9 H          52.8200  157.9011   28.0300 H          1 <1>        0.000
     10 H          53.5512  156.1291   26.4808 H          1 <1>        0.000
     11 O1         52.5890  152.1440   27.1330 O.3        1 <1>        0.690
     12 C1         53.0460  151.3440   26.1510 C.2        1 <1>        0.040
     13 N1         53.4710  152.0800   25.2140 N.2        1 <1>        0.090
     14 C2         53.3490  153.4850   25.4610 C.2        1 <1>        0.090
     15 C3         52.7940  153.3950   26.6700 C.2        1 <1>        0.100
     16 C1         48.9420  159.1700   30.6490 C.3        1 <1>        0.020
     17 C2         49.5150  158.0540   29.7380 C.3        1 <1>        0.040
     18 C3         50.9980  157.7530   30.0790 C.3        1 <1>        0.010
     19 H1         47.8912  159.3670   30.3901 H          1 <1>        0.000
     20 H3         48.9910  158.8660   31.7050 H          1 <1>        0.000
     21 H4         49.4411  158.3697   28.6869 H          1 <1>        0.000
     22 H5         48.9193  157.1380   29.8651 H          1 <1>        0.000
     23 H7         51.0911  157.4187   31.1228 H          1 <1>        0.000
     24 H8         51.6139  158.6538   29.9400 H          1 <1>        0.000
     25 O1         50.6950  160.4630   29.7400 O.2        1 <1>        0.080
     26 C1         49.7230  160.4400   30.4760 C.2        1 <1>        0.010
     27 N1         51.6690  149.3240   26.2990 N.4        1 <1>        1.330
     28 C1         53.0490  149.8430   26.1650 C.3        1 <1>       -0.100
     29 H2         51.6550  148.3162   26.3100 H          1 <1>        0.000
     30 H3         51.2378  149.6432   27.1524 H          1 <1>        0.000
     31 H6         53.5049  149.4871   25.2293 H          1 <1>        0.000
     32 H7         53.6701  149.5039   27.0072 H          1 <1>        0.000
     33 H1         51.0873  149.6268   25.5335 H          1 <1>        0.000
     34 C1         53.7190  154.6460   24.6390 C.2        1 <1>        0.100
     35 O1         54.9030  154.8820   24.4520 O.2        1 <1>        0.080
     36 O2         52.7480  155.4070   24.1230 O.3        1 <1>        0.680
     37 H2         53.0747  156.1343   23.6065 H          1 <1>        0.000
     38 C1         49.3070  161.6820   31.2100 C.3        1 <1>       -0.010
     39 C2         49.9460  161.6960   32.5780 C.2        1 <1>        0.070
     40 C3         49.6610  160.5820   33.5560 C.3        1 <1>        0.200
     41 O4         50.6870  162.6000   32.8900 O.2        1 <1>        0.030
     42 H5         48.2122  161.6960   31.3160 H          1 <1>        0.000
     43 H7         49.6319  162.5676   30.6442 H          1 <1>        0.000
     44 H8         49.9811  159.6228   33.1229 H          1 <1>        0.000
     45 H9         48.5820  160.5470   33.7670 H          1 <1>        0.000
     46 H10        50.2117  160.7649   34.4905 H          1 <1>        0.000
@<TRIPOS>BOND
     1    5    6 ar 
     2    5    4 ar 
     3    6    3 ar 
     4    4    1 ar 
     5    3    2 ar 
     6    1    2 ar 
     7    2    7 1  
     8    3    8 1  
     9    4    9 1  
    10    5   10 1  
    11   11   12 1  
    12   11   15 1  
    13   12   13 2  
    14   13   14 1  
    15   14   15 2  
    16    6   15 1  
    17   17   16 1  
    18   17   18 1  
    19   16   19 1  
    20   16   20 1  
    21   17   21 1  
    22   17   22 1  
    23   18   23 1  
    24   18   24 1  
    25    1   18 1  
    26   26   25 2  
    27   16   26 1  
    28   27   28 1  
    29   27   29 1  
    30   27   30 1  
    31   28   31 1  
    32   28   32 1  
    33   27   33 1  
    34   12   28 1  
    35   34   35 2  
    36   34   36 1  
    37   36   37 1  
    38   14   34 1  
    39   39   38 1  
    40   39   40 1  
    41   39   41 2  
    42   38   42 1  
    43   38   43 1  
    44   40   44 1  
    45   40   45 1  
    46   40   46 1  
    47   26   38 1  
# Name:          No_7_199
# Creation time: Thu Mar 21 15:18:37 2024


@<TRIPOS>MOLECULE
000001_000010
   46    47     1     1     1
SMALL
USER_CHARGES


@<TRIPOS>ATOM
      1 C9         51.5330  156.6540   29.1670 C.ar       1 <1>        0.170
      2 C10        51.0810  155.3840   29.3060 C.ar       1 <1>        0.240
      3 C11        51.5320  154.3980   28.4740 C.ar       1 <1>        0.240
      4 C14        52.4340  156.8960   28.1560 C.ar       1 <1>        0.230
      5 C13        52.8680  155.8980   27.2900 C.ar       1 <1>        0.220
      6 C12        52.4150  154.6130   27.4780 C.ar       1 <1>        0.210
      7 H          50.3592  155.1490   30.0798 H          1 <1>        0.000
      8 H          51.1599  153.3908   28.6230 H          1 <1>        0.000
      9 H          52.8200  157.9011   28.0300 H          1 <1>        0.000
     10 H          53.5512  156.1291   26.4808 H          1 <1>        0.000
     11 O1         52.5890  152.1440   27.1330 O.3        1 <1>        0.690
     12 C1         53.0460  151.3440   26.1510 C.2        1 <1>        0.040
     13 N1         53.4710  152.0800   25.2140 N.2        1 <1>        0.090
     14 C2         53.3490  153.4850   25.4610 C.2        1 <1>        0.090
     15 C3         52.7940  153.3950   26.6700 C.2        1 <1>        0.100
     16 C1         48.9420  159.1700   30.6490 C.3        1 <1>        0.020
     17 C2         49.5150  158.0540   29.7380 C.3        1 <1>        0.040
     18 C3         50.9980  157.7530   30.0790 C.3        1 <1>        0.010
     19 H1         47.8912  159.3670   30.3901 H          1 <1>        0.000
     20 H3         48.9910  158.8660   31.7050 H          1 <1>        0.000
     21 H4         49.4411  158.3697   28.6869 H          1 <1>        0.000
     22 H5         48.9193  157.1380   29.8651 H          1 <1>        0.000
     23 H7         51.0911  157.4187   31.1228 H          1 <1>        0.000
     24 H8         51.6139  158.6538   29.9400 H          1 <1>        0.000
     25 O1         50.6950  160.4630   29.7400 O.2        1 <1>        0.080
     26 C1         49.7230  160.4400   30.4760 C.2        1 <1>        0.010
     27 N1         51.6690  149.3240   26.2990 N.4        1 <1>        1.330
     28 C1         53.0490  149.8430   26.1650 C.3        1 <1>       -0.100
     29 H2         51.6550  148.3162   26.3100 H          1 <1>        0.000
     30 H3         51.2378  149.6432   27.1524 H          1 <1>        0.000
     31 H6         53.5049  149.4871   25.2293 H          1 <1>        0.000
     32 H7         53.6701  149.5039   27.0072 H          1 <1>        0.000
     33 H1         51.0873  149.6268   25.5335 H          1 <1>        0.000
     34 C          53.7190  154.6460   24.6390 C.2        1 <1>        0.100
     35 O          52.8650  155.4470   24.2950 O.2        1 <1>        0.040
     36 C3         55.1480  154.8470   24.2240 C.3        1 <1>        0.190
     37 H2         55.7655  154.0304   24.6263 H          1 <1>        0.000
     38 H3         55.5109  155.8087   24.6159 H          1 <1>        0.000
     39 H4         55.2130  154.8500   23.1259 H          1 <1>        0.000
     40 C          49.6220  161.5470   32.6750 C.2        1 <1>        0.070
     41 O          49.3660  160.5090   33.2660 O.2        1 <1>        0.100
     42 C3         49.3070  161.6820   31.2100 C.3        1 <1>       -0.010
     43 H2         48.2250  161.8310   31.0790 H          1 <1>        0.000
     44 H3         49.8401  162.5422   30.7789 H          1 <1>        0.000
     45 O1         50.1610  162.5550   33.3540 O.3        1 <1>        0.500
     46 H2         50.2430  162.2271   34.2418 H          1 <1>        0.000
@<TRIPOS>BOND
     1    5    6 ar 
     2    5    4 ar 
     3    6    3 ar 
     4    4    1 ar 
     5    3    2 ar 
     6    1    2 ar 
     7    2    7 1  
     8    3    8 1  
     9    4    9 1  
    10    5   10 1  
    11   11   12 1  
    12   11   15 1  
    13   12   13 2  
    14   13   14 1  
    15   14   15 2  
    16    6   15 1  
    17   17   16 1  
    18   17   18 1  
    19   16   19 1  
    20   16   20 1  
    21   17   21 1  
    22   17   22 1  
    23   18   23 1  
    24   18   24 1  
    25    1   18 1  
    26   26   25 2  
    27   16   26 1  
    28   27   28 1  
    29   27   29 1  
    30   27   30 1  
    31   28   31 1  
    32   28   32 1  
    33   27   33 1  
    34   12   28 1  
    35   34   35 2  
    36   34   36 1  
    37   36   37 1  
    38   36   38 1  
    39   36   39 1  
    40   14   34 1  
    41   40   41 2  
    42   40   42 1  
    43   42   43 1  
    44   42   44 1  
    45   26   42 1  
    46   45   46 1  
    47   40   45 1  
# Name:          No_7_200
# Creation time: Thu Mar 21 15:18:37 2024


@<TRIPOS>MOLECULE
000001_000011
   46    47     1     1     1
SMALL
USER_CHARGES


@<TRIPOS>ATOM
      1 C9         51.5330  156.6540   29.1670 C.ar       1 <1>        0.170
      2 C10        51.0810  155.3840   29.3060 C.ar       1 <1>        0.240
      3 C11        51.5320  154.3980   28.4740 C.ar       1 <1>        0.240
      4 C14        52.4340  156.8960   28.1560 C.ar       1 <1>        0.230
      5 C13        52.8680  155.8980   27.2900 C.ar       1 <1>        0.220
      6 C12        52.4150  154.6130   27.4780 C.ar       1 <1>        0.210
      7 H          50.3592  155.1490   30.0798 H          1 <1>        0.000
      8 H          51.1599  153.3908   28.6230 H          1 <1>        0.000
      9 H          52.8200  157.9011   28.0300 H          1 <1>        0.000
     10 H          53.5512  156.1291   26.4808 H          1 <1>        0.000
     11 O1         52.5890  152.1440   27.1330 O.3        1 <1>        0.690
     12 C1         53.0460  151.3440   26.1510 C.2        1 <1>        0.040
     13 N1         53.4710  152.0800   25.2140 N.2        1 <1>        0.090
     14 C2         53.3490  153.4850   25.4610 C.2        1 <1>        0.090
     15 C3         52.7940  153.3950   26.6700 C.2        1 <1>        0.100
     16 C1         48.9420  159.1700   30.6490 C.3        1 <1>        0.020
     17 C2         49.5150  158.0540   29.7380 C.3        1 <1>        0.040
     18 C3         50.9980  157.7530   30.0790 C.3        1 <1>        0.010
     19 H1         47.8912  159.3670   30.3901 H          1 <1>        0.000
     20 H3         48.9910  158.8660   31.7050 H          1 <1>        0.000
     21 H4         49.4411  158.3697   28.6869 H          1 <1>        0.000
     22 H5         48.9193  157.1380   29.8651 H          1 <1>        0.000
     23 H7         51.0911  157.4187   31.1228 H          1 <1>        0.000
     24 H8         51.6139  158.6538   29.9400 H          1 <1>        0.000
     25 O1         50.6950  160.4630   29.7400 O.2        1 <1>        0.080
     26 C1         49.7230  160.4400   30.4760 C.2        1 <1>        0.010
     27 N1         51.6690  149.3240   26.2990 N.4        1 <1>        1.330
     28 C1         53.0490  149.8430   26.1650 C.3        1 <1>       -0.100
     29 H2         51.6550  148.3162   26.3100 H          1 <1>        0.000
     30 H3         51.2378  149.6432   27.1524 H          1 <1>        0.000
     31 H6         53.5049  149.4871   25.2293 H          1 <1>        0.000
     32 H7         53.6701  149.5039   27.0072 H          1 <1>        0.000
     33 H1         51.0873  149.6268   25.5335 H          1 <1>        0.000
     34 C          53.7190  154.6460   24.6390 C.2        1 <1>        0.100
     35 O          52.8650  155.4470   24.2950 O.2        1 <1>        0.040
     36 C3         55.1480  154.8470   24.2240 C.3        1 <1>        0.190
     37 H2         55.7655  154.0304   24.6263 H          1 <1>        0.000
     38 H3         55.5109  155.8087   24.6159 H          1 <1>        0.000
     39 H4         55.2130  154.8500   23.1259 H          1 <1>        0.000
     40 C          49.6220  161.5470   32.6750 C.2        1 <1>        0.070
     41 O          49.3660  160.5090   33.2660 O.2        1 <1>        0.100
     42 C3         49.3070  161.6820   31.2100 C.3        1 <1>       -0.010
     43 H2         48.2250  161.8310   31.0790 H          1 <1>        0.000
     44 H3         49.8401  162.5422   30.7789 H          1 <1>        0.000
     45 O1         50.1610  162.5550   33.3540 O.3        1 <1>        0.500
     46 H2         50.3159  163.2267   32.7003 H          1 <1>        0.000
@<TRIPOS>BOND
     1    5    6 ar 
     2    5    4 ar 
     3    6    3 ar 
     4    4    1 ar 
     5    3    2 ar 
     6    1    2 ar 
     7    2    7 1  
     8    3    8 1  
     9    4    9 1  
    10    5   10 1  
    11   11   12 1  
    12   11   15 1  
    13   12   13 2  
    14   13   14 1  
    15   14   15 2  
    16    6   15 1  
    17   17   16 1  
    18   17   18 1  
    19   16   19 1  
    20   16   20 1  
    21   17   21 1  
    22   17   22 1  
    23   18   23 1  
    24   18   24 1  
    25    1   18 1  
    26   26   25 2  
    27   16   26 1  
    28   27   28 1  
    29   27   29 1  
    30   27   30 1  
    31   28   31 1  
    32   28   32 1  
    33   27   33 1  
    34   12   28 1  
    35   34   35 2  
    36   34   36 1  
    37   36   37 1  
    38   36   38 1  
    39   36   39 1  
    40   14   34 1  
    41   40   41 2  
    42   40   42 1  
    43   42   43 1  
    44   42   44 1  
    45   26   42 1  
    46   45   46 1  
    47   40   45 1  
# Name:          No_4_87
# Creation time: Thu Mar 21 15:29:45 2024


@<TRIPOS>MOLECULE
000001_000001
   25    26     1     1     1
SMALL
USER_CHARGES


@<TRIPOS>ATOM
      1 C3         48.3850  160.2610   31.8350 C.ar       1 <1>        0.160
      2 C2         49.1650  159.5160   30.9410 C.ar       1 <1>        0.210
      3 C4         48.9530  161.3100   32.5280 C.ar       1 <1>        0.220
      4 C5         50.2720  161.6360   32.3310 C.ar       1 <1>        0.220
      5 C6         51.0530  160.9240   31.4430 C.ar       1 <1>        0.170
      6 C1         50.4850  159.8520   30.7440 C.ar       1 <1>        0.200
      7 H          48.7308  158.6786   30.4068 H          1 <1>        0.000
      8 H          48.3551  161.8789   33.2308 H          1 <1>        0.000
      9 H          50.7059  162.4639   32.8799 H          1 <1>        0.000
     10 C1         46.9120  159.9250   32.0440 C.3        1 <1>        0.080
     11 O3         46.2140  160.0480   30.8020 O.3        1 <1>        0.530
     12 H4         46.4789  160.6192   32.7792 H          1 <1>        0.000
     13 H5         46.8210  158.8938   32.4161 H          1 <1>        0.000
     14 H6         45.2951  159.8400   30.9240 H          1 <1>        0.000
     15 O1         52.8020  158.2890   28.5010 O.3        1 <1>        0.050
     16 N1         52.4170  159.3950   29.2900 N.2        1 <1>        0.580
     17 C1         51.3210  159.0180   29.8020 C.2        1 <1>        0.110
     18 C2         50.9830  157.6740   29.3560 C.2        1 <1>        0.020
     19 N2         51.8730  157.2290   28.5720 N.2        1 <1>        0.200
     20 H2         50.0912  157.1241   29.6529 H          1 <1>        0.000
     21 C1         52.5150  161.3000   31.2260 C.3        1 <1>        0.070
     22 H2         53.1318  160.3892   31.2270 H          1 <1>        0.000
     23 O3         52.6540  161.9680   29.9700 O.3        1 <1>        0.790
     24 H4         52.8460  161.9679   32.0349 H          1 <1>        0.000
     25 H6         52.1238  162.7562   29.9600 H          1 <1>        0.000
@<TRIPOS>BOND
     1    6    2 ar 
     2    6    5 ar 
     3    2    1 ar 
     4    5    4 ar 
     5    1    3 ar 
     6    4    3 ar 
     7    2    7 1  
     8    3    8 1  
     9    4    9 1  
    10   10   11 1  
    11   10   12 1  
    12   10   13 1  
    13   11   14 1  
    14    1   10 1  
    15   15   16 1  
    16   15   19 1  
    17   16   17 2  
    18   17   18 1  
    19   18   19 2  
    20   18   20 1  
    21    6   17 1  
    22   21   22 1  
    23   21   23 1  
    24   21   24 1  
    25   23   25 1  
    26    5   21 1  
# Name:          No_4_125
# Creation time: Thu Mar 21 15:29:45 2024


@<TRIPOS>MOLECULE
000001_000002
   27    28     1     1     1
SMALL
USER_CHARGES


@<TRIPOS>ATOM
      1 C3         48.3850  160.2610   31.8350 C.ar       1 <1>        0.160
      2 C2         49.1650  159.5160   30.9410 C.ar       1 <1>        0.210
      3 C4         48.9530  161.3100   32.5280 C.ar       1 <1>        0.220
      4 C5         50.2720  161.6360   32.3310 C.ar       1 <1>        0.220
      5 C6         51.0530  160.9240   31.4430 C.ar       1 <1>        0.170
      6 C1         50.4850  159.8520   30.7440 C.ar       1 <1>        0.200
      7 H          48.7308  158.6786   30.4068 H          1 <1>        0.000
      8 H          48.3551  161.8789   33.2308 H          1 <1>        0.000
      9 H          50.7059  162.4639   32.8799 H          1 <1>        0.000
     10 C1         46.9120  159.9250   32.0440 C.3        1 <1>        0.080
     11 O3         46.2140  160.0480   30.8020 O.3        1 <1>        0.530
     12 H4         46.4789  160.6192   32.7792 H          1 <1>        0.000
     13 H5         46.8210  158.8938   32.4161 H          1 <1>        0.000
     14 H6         45.2951  159.8400   30.9240 H          1 <1>        0.000
     15 O1         52.8020  158.2890   28.5010 O.3        1 <1>        0.050
     16 N1         52.4170  159.3950   29.2900 N.2        1 <1>        0.580
     17 C1         51.3210  159.0180   29.8020 C.2        1 <1>        0.110
     18 C2         50.9830  157.6740   29.3560 C.2        1 <1>        0.020
     19 N2         51.8730  157.2290   28.5720 N.2        1 <1>        0.200
     20 H2         50.0912  157.1241   29.6529 H          1 <1>        0.000
     21 N1         52.6630  162.1180   30.0020 N.4        1 <1>        0.790
     22 C1         52.5150  161.3000   31.2260 C.3        1 <1>        0.070
     23 H2         53.6252  162.3741   29.8450 H          1 <1>        0.000
     24 H3         52.3450  161.6190   29.1860 H          1 <1>        0.000
     25 H6         52.8648  161.8587   32.1066 H          1 <1>        0.000
     26 H7         53.1042  160.3747   31.1440 H          1 <1>        0.000
     27 H1         52.1279  162.9701   30.0630 H          1 <1>        0.000
@<TRIPOS>BOND
     1    6    2 ar 
     2    6    5 ar 
     3    2    1 ar 
     4    5    4 ar 
     5    1    3 ar 
     6    4    3 ar 
     7    2    7 1  
     8    3    8 1  
     9    4    9 1  
    10   10   11 1  
    11   10   12 1  
    12   10   13 1  
    13   11   14 1  
    14    1   10 1  
    15   15   16 1  
    16   15   19 1  
    17   16   17 2  
    18   17   18 1  
    19   18   19 2  
    20   18   20 1  
    21    6   17 1  
    22   21   22 1  
    23   21   23 1  
    24   21   24 1  
    25   22   25 1  
    26   22   26 1  
    27   21   27 1  
    28    5   22 1  
# Name:          No_4_55
# Creation time: Thu Mar 21 15:29:45 2024


@<TRIPOS>MOLECULE
000002_000001
   35    36     1     1     1
SMALL
USER_CHARGES


@<TRIPOS>ATOM
      1 C3         48.3850  160.2610   31.8350 C.ar       1 <1>        0.160
      2 C2         49.1650  159.5160   30.9410 C.ar       1 <1>        0.210
      3 C4         48.9530  161.3100   32.5280 C.ar       1 <1>        0.220
      4 C5         50.2720  161.6360   32.3310 C.ar       1 <1>        0.100
      5 C6         51.0530  160.9240   31.4430 C.ar       1 <1>        0.220
      6 C1         50.4850  159.8520   30.7440 C.ar       1 <1>        0.200
      7 H          48.7308  158.6786   30.4068 H          1 <1>        0.000
      8 H          48.3551  161.8789   33.2308 H          1 <1>        0.000
      9 H          52.0922  161.1911   31.2890 H          1 <1>        0.000
     10 O1         50.8290  162.6970   33.0350 O.3        1 <1>        0.550
     11 H1         50.1056  163.0557   33.5356 H          1 <1>        0.000
     12 N1         52.8770  158.3450   28.4820 N.pl3      1 <1>       -0.020
     13 N2         52.4210  159.3460   29.2640 N.2        1 <1>        0.580
     14 C1         51.3210  159.0180   29.8020 C.2        1 <1>        0.110
     15 C2         51.0300  157.6620   29.3200 C.2        1 <1>        0.020
     16 C3         52.0480  157.3410   28.5150 C.2        1 <1>        0.080
     17 H1         53.7518  158.3740   27.9391 H          1 <1>        0.000
     18 H3         50.1650  157.0490   29.5690 H          1 <1>        0.000
     19 O1         51.2460  155.3160   27.6770 O.2        1 <1>        0.050
     20 C1         52.1990  156.0690   27.7930 C.2        1 <1>        0.060
     21 C1         54.9000  155.7150   25.1190 C.3        1 <1>        0.220
     22 C2         53.5510  156.0930   25.7240 C.3        1 <1>        0.200
     23 C3         53.5260  155.6980   27.1980 C.3        1 <1>       -0.090
     24 H4         54.9180  156.0001   24.0567 H          1 <1>        0.000
     25 H5         55.7031  156.2430   25.6540 H          1 <1>        0.000
     26 H6         55.0519  154.6293   25.2100 H          1 <1>        0.000
     27 H7         52.7483  155.5642   25.1892 H          1 <1>        0.000
     28 H8         53.3999  157.1788   25.6329 H          1 <1>        0.000
     29 H10        54.3291  156.2260   27.7330 H          1 <1>        0.000
     30 H11        53.6780  154.6124   27.2890 H          1 <1>        0.000
     31 C1         46.9120  159.9250   32.0440 C.3        1 <1>        0.080
     32 H2         46.4789  160.6192   32.7792 H          1 <1>        0.000
     33 O3         46.2140  160.0480   30.8020 O.3        1 <1>        0.530
     34 H4         46.8210  158.8938   32.4161 H          1 <1>        0.000
     35 H6         46.5831  159.4509   30.1619 H          1 <1>        0.000
@<TRIPOS>BOND
     1    6    2 ar 
     2    6    5 ar 
     3    2    1 ar 
     4    5    4 ar 
     5    1    3 ar 
     6    4    3 ar 
     7    2    7 1  
     8    3    8 1  
     9    5    9 1  
    10   10   11 1  
    11    4   10 1  
    12   12   13 1  
    13   12   16 1  
    14   13   14 2  
    15   14   15 1  
    16   15   16 2  
    17   12   17 1  
    18   15   18 1  
    19    6   14 1  
    20   20   19 2  
    21   16   20 1  
    22   22   21 1  
    23   22   23 1  
    24   21   24 1  
    25   21   25 1  
    26   21   26 1  
    27   22   27 1  
    28   22   28 1  
    29   23   29 1  
    30   23   30 1  
    31   20   23 1  
    32   31   32 1  
    33   31   33 1  
    34   31   34 1  
    35   33   35 1  
    36    1   31 1  
# Name:          No_4_56
# Creation time: Thu Mar 21 15:29:45 2024


@<TRIPOS>MOLECULE
000002_000002
   35    36     1     1     1
SMALL
USER_CHARGES


@<TRIPOS>ATOM
      1 C3         48.3850  160.2610   31.8350 C.ar       1 <1>        0.160
      2 C2         49.1650  159.5160   30.9410 C.ar       1 <1>        0.210
      3 C4         48.9530  161.3100   32.5280 C.ar       1 <1>        0.220
      4 C5         50.2720  161.6360   32.3310 C.ar       1 <1>        0.100
      5 C6         51.0530  160.9240   31.4430 C.ar       1 <1>        0.220
      6 C1         50.4850  159.8520   30.7440 C.ar       1 <1>        0.200
      7 H          48.7308  158.6786   30.4068 H          1 <1>        0.000
      8 H          48.3551  161.8789   33.2308 H          1 <1>        0.000
      9 H          52.0922  161.1911   31.2890 H          1 <1>        0.000
     10 O1         50.8290  162.6970   33.0350 O.3        1 <1>        0.550
     11 H1         50.1056  163.0557   33.5356 H          1 <1>        0.000
     12 N1         52.8770  158.3450   28.4820 N.pl3      1 <1>       -0.020
     13 N2         52.4210  159.3460   29.2640 N.2        1 <1>        0.580
     14 C1         51.3210  159.0180   29.8020 C.2        1 <1>        0.110
     15 C2         51.0300  157.6620   29.3200 C.2        1 <1>        0.020
     16 C3         52.0480  157.3410   28.5150 C.2        1 <1>        0.080
     17 H1         53.7518  158.3740   27.9391 H          1 <1>        0.000
     18 H3         50.1650  157.0490   29.5690 H          1 <1>        0.000
     19 O1         51.2460  155.3160   27.6770 O.2        1 <1>        0.050
     20 C1         52.1990  156.0690   27.7930 C.2        1 <1>        0.060
     21 C1         54.9000  155.7150   25.1190 C.3        1 <1>        0.220
     22 C2         53.5510  156.0930   25.7240 C.3        1 <1>        0.200
     23 C3         53.5260  155.6980   27.1980 C.3        1 <1>       -0.090
     24 H4         54.9180  156.0001   24.0567 H          1 <1>        0.000
     25 H5         55.7031  156.2430   25.6540 H          1 <1>        0.000
     26 H6         55.0519  154.6293   25.2100 H          1 <1>        0.000
     27 H7         52.7483  155.5642   25.1892 H          1 <1>        0.000
     28 H8         53.3999  157.1788   25.6329 H          1 <1>        0.000
     29 H10        54.3291  156.2260   27.7330 H          1 <1>        0.000
     30 H11        53.6780  154.6124   27.2890 H          1 <1>        0.000
     31 C1         46.9120  159.9250   32.0440 C.3        1 <1>        0.080
     32 H2         46.4148  160.7613   32.5572 H          1 <1>        0.000
     33 O3         46.2890  159.7050   30.7760 O.3        1 <1>        0.520
     34 H4         46.8270  159.0157   32.6572 H          1 <1>        0.000
     35 H6         46.7131  158.9838   30.3259 H          1 <1>        0.000
@<TRIPOS>BOND
     1    6    2 ar 
     2    6    5 ar 
     3    2    1 ar 
     4    5    4 ar 
     5    1    3 ar 
     6    4    3 ar 
     7    2    7 1  
     8    3    8 1  
     9    5    9 1  
    10   10   11 1  
    11    4   10 1  
    12   12   13 1  
    13   12   16 1  
    14   13   14 2  
    15   14   15 1  
    16   15   16 2  
    17   12   17 1  
    18   15   18 1  
    19    6   14 1  
    20   20   19 2  
    21   16   20 1  
    22   22   21 1  
    23   22   23 1  
    24   21   24 1  
    25   21   25 1  
    26   21   26 1  
    27   22   27 1  
    28   22   28 1  
    29   23   29 1  
    30   23   30 1  
    31   20   23 1  
    32   31   32 1  
    33   31   33 1  
    34   31   34 1  
    35   33   35 1  
    36    1   31 1  
# Name:          No_6_18
# Creation time: Thu Mar 21 15:29:45 2024


@<TRIPOS>MOLECULE
000003_000001
   26    27     1     1     1
SMALL
USER_CHARGES


@<TRIPOS>ATOM
      1 C3         48.3850  160.2610   31.8350 C.ar       1 <1>        0.200
      2 C2         49.1650  159.5160   30.9410 C.ar       1 <1>        0.090
      3 C4         48.9530  161.3100   32.5280 C.ar       1 <1>        0.220
      4 C5         50.2720  161.6360   32.3310 C.ar       1 <1>        0.220
      5 C6         51.0530  160.9240   31.4430 C.ar       1 <1>        0.200
      6 C1         50.4850  159.8520   30.7440 C.ar       1 <1>        0.210
      7 H          51.0848  159.2532   30.0682 H          1 <1>        0.000
      8 H          48.3551  161.8789   33.2308 H          1 <1>        0.000
      9 H          50.7059  162.4639   32.8799 H          1 <1>        0.000
     10 N1         54.5020  161.6200   30.3630 N.pl3      1 <1>        0.020
     11 N2         53.2290  161.1690   30.1820 N.2        1 <1>        0.660
     12 C1         52.5010  161.2960   31.2280 C.2        1 <1>        0.110
     13 N3         53.4380  161.8900   32.1420 N.2        1 <1>       -0.110
     14 C2         54.5520  162.0460   31.5860 C.2        1 <1>        0.080
     15 H1         55.2635  161.6210   29.6695 H          1 <1>        0.000
     16 O1         48.6080  158.4420   30.2560 O.3        1 <1>        0.100
     17 H1         47.6731  158.5250   30.4030 H          1 <1>        0.000
     18 C1         55.7580  162.6400   32.2540 C.3        1 <1>        0.060
     19 O3         56.9440  162.1260   31.6420 O.3        1 <1>        1.410
     20 H4         55.7530  162.3770   33.3221 H          1 <1>        0.000
     21 H5         55.7350  163.7345   32.1461 H          1 <1>        0.000
     22 H6         57.7122  162.4981   32.0591 H          1 <1>        0.000
     23 C1         46.9120  159.9250   32.0440 C.3        1 <1>        0.210
     24 H1         46.7459  158.8585   31.8319 H          1 <1>        0.000
     25 H2         46.2970  160.5340   31.3650 H          1 <1>        0.000
     26 H3         46.6311  160.1399   33.0856 H          1 <1>        0.000
@<TRIPOS>BOND
     1    7    6 1  
     2    6    2 ar 
     3    6    5 ar 
     4    2    1 ar 
     5    5    4 ar 
     6    1    3 ar 
     7    4    3 ar 
     8    3    8 1  
     9    4    9 1  
    10   10   11 1  
    11   10   14 1  
    12   11   12 2  
    13   12   13 1  
    14   13   14 2  
    15   10   15 1  
    16    5   12 1  
    17   16   17 1  
    18    2   16 1  
    19   18   19 1  
    20   18   20 1  
    21   18   21 1  
    22   19   22 1  
    23   14   18 1  
    24   23   24 1  
    25   23   25 1  
    26   23   26 1  
    27    1   23 1  
# Name:          No_7_2
# Creation time: Thu Mar 21 15:29:45 2024


@<TRIPOS>MOLECULE
000003_000002
   26    27     1     1     1
SMALL
USER_CHARGES


@<TRIPOS>ATOM
      1 C3         48.3850  160.2610   31.8350 C.ar       1 <1>        0.200
      2 C2         49.1650  159.5160   30.9410 C.ar       1 <1>        0.090
      3 C4         48.9530  161.3100   32.5280 C.ar       1 <1>        0.220
      4 C5         50.2720  161.6360   32.3310 C.ar       1 <1>        0.220
      5 C6         51.0530  160.9240   31.4430 C.ar       1 <1>        0.200
      6 C1         50.4850  159.8520   30.7440 C.ar       1 <1>        0.210
      7 H          51.0848  159.2532   30.0682 H          1 <1>        0.000
      8 H          48.3551  161.8789   33.2308 H          1 <1>        0.000
      9 H          50.7059  162.4639   32.8799 H          1 <1>        0.000
     10 N1         54.5020  161.6200   30.3630 N.pl3      1 <1>        0.020
     11 N2         53.2290  161.1690   30.1820 N.2        1 <1>        0.660
     12 C1         52.5010  161.2960   31.2280 C.2        1 <1>        0.110
     13 N3         53.4380  161.8900   32.1420 N.2        1 <1>       -0.110
     14 C2         54.5520  162.0460   31.5860 C.2        1 <1>        0.080
     15 H1         55.2635  161.6210   29.6695 H          1 <1>        0.000
     16 O1         48.6080  158.4420   30.2560 O.3        1 <1>        0.100
     17 H1         47.6731  158.5250   30.4030 H          1 <1>        0.000
     18 C1         55.7580  162.6400   32.2540 C.3        1 <1>        0.060
     19 O3         56.9440  162.1260   31.6420 O.3        1 <1>        1.410
     20 H4         55.7530  162.3770   33.3221 H          1 <1>        0.000
     21 H5         55.7350  163.7345   32.1461 H          1 <1>        0.000
     22 H6         57.7122  162.4981   32.0591 H          1 <1>        0.000
     23 C1         46.9120  159.9250   32.0440 C.3        1 <1>        0.210
     24 H1         46.7459  158.8585   31.8319 H          1 <1>        0.000
     25 H2         46.2970  160.5340   31.3650 H          1 <1>        0.000
     26 H3         46.6311  160.1399   33.0856 H          1 <1>        0.000
@<TRIPOS>BOND
     1    7    6 1  
     2    6    2 ar 
     3    6    5 ar 
     4    2    1 ar 
     5    5    4 ar 
     6    1    3 ar 
     7    4    3 ar 
     8    3    8 1  
     9    4    9 1  
    10   10   11 1  
    11   10   14 1  
    12   11   12 2  
    13   12   13 1  
    14   13   14 2  
    15   10   15 1  
    16    5   12 1  
    17   16   17 1  
    18    2   16 1  
    19   18   19 1  
    20   18   20 1  
    21   18   21 1  
    22   19   22 1  
    23   14   18 1  
    24   23   24 1  
    25   23   25 1  
    26   23   26 1  
    27    1   23 1  
# Name:          No_6_1
# Creation time: Thu Mar 21 15:29:45 2024


@<TRIPOS>MOLECULE
000003_000003
   26    27     1     1     1
SMALL
USER_CHARGES


@<TRIPOS>ATOM
      1 H          47.3382  160.0220   31.9840 H          1 <1>        0.000
      2 C3         48.3850  160.2610   31.8350 C.ar       1 <1>        0.220
      3 C2         49.1650  159.5160   30.9410 C.ar       1 <1>        0.090
      4 C4         48.9530  161.3100   32.5280 C.ar       1 <1>        0.210
      5 C5         50.2720  161.6360   32.3310 C.ar       1 <1>        0.220
      6 C6         51.0530  160.9240   31.4430 C.ar       1 <1>        0.200
      7 C1         50.4850  159.8520   30.7440 C.ar       1 <1>        0.210
      8 H          51.0848  159.2532   30.0682 H          1 <1>        0.000
      9 H          50.7059  162.4639   32.8799 H          1 <1>        0.000
     10 N1         54.5020  161.6200   30.3630 N.pl3      1 <1>        0.020
     11 N2         53.2290  161.1690   30.1820 N.2        1 <1>        0.660
     12 C1         52.5010  161.2960   31.2280 C.2        1 <1>        0.110
     13 N3         53.4380  161.8900   32.1420 N.2        1 <1>       -0.110
     14 C2         54.5520  162.0460   31.5860 C.2        1 <1>        0.080
     15 H1         55.2635  161.6210   29.6695 H          1 <1>        0.000
     16 O1         48.6080  158.4420   30.2560 O.3        1 <1>        0.100
     17 H1         47.6731  158.5250   30.4030 H          1 <1>        0.000
     18 C1         55.7580  162.6400   32.2540 C.3        1 <1>        0.060
     19 O3         56.9440  162.1260   31.6420 O.3        1 <1>        1.410
     20 H4         55.7530  162.3770   33.3221 H          1 <1>        0.000
     21 H5         55.7350  163.7345   32.1461 H          1 <1>        0.000
     22 H6         57.7122  162.4981   32.0591 H          1 <1>        0.000
     23 C1         48.1120  162.1110   33.5170 C.3        1 <1>        0.160
     24 H1         47.0896  161.7058   33.5400 H          1 <1>        0.000
     25 H2         48.0830  163.1651   33.2040 H          1 <1>        0.000
     26 H3         48.5580  162.0380   34.5199 H          1 <1>        0.000
@<TRIPOS>BOND
     1    8    7 1  
     2    7    3 ar 
     3    7    6 ar 
     4    3    2 ar 
     5    6    5 ar 
     6    2    1 1  
     7    2    4 ar 
     8    5    4 ar 
     9    5    9 1  
    10   10   11 1  
    11   10   14 1  
    12   11   12 2  
    13   12   13 1  
    14   13   14 2  
    15   10   15 1  
    16    6   12 1  
    17   16   17 1  
    18    3   16 1  
    19   18   19 1  
    20   18   20 1  
    21   18   21 1  
    22   19   22 1  
    23   14   18 1  
    24   23   24 1  
    25   23   25 1  
    26   23   26 1  
    27    4   23 1  
# Name:          No_7_4
# Creation time: Thu Mar 21 15:29:45 2024


@<TRIPOS>MOLECULE
000003_000004
   26    27     1     1     1
SMALL
USER_CHARGES


@<TRIPOS>ATOM
      1 H          47.3382  160.0220   31.9840 H          1 <1>        0.000
      2 C3         48.3850  160.2610   31.8350 C.ar       1 <1>        0.220
      3 C2         49.1650  159.5160   30.9410 C.ar       1 <1>        0.090
      4 C4         48.9530  161.3100   32.5280 C.ar       1 <1>        0.210
      5 C5         50.2720  161.6360   32.3310 C.ar       1 <1>        0.220
      6 C6         51.0530  160.9240   31.4430 C.ar       1 <1>        0.200
      7 C1         50.4850  159.8520   30.7440 C.ar       1 <1>        0.210
      8 H          51.0848  159.2532   30.0682 H          1 <1>        0.000
      9 H          50.7059  162.4639   32.8799 H          1 <1>        0.000
     10 N1         54.5020  161.6200   30.3630 N.pl3      1 <1>        0.020
     11 N2         53.2290  161.1690   30.1820 N.2        1 <1>        0.660
     12 C1         52.5010  161.2960   31.2280 C.2        1 <1>        0.110
     13 N3         53.4380  161.8900   32.1420 N.2        1 <1>       -0.110
     14 C2         54.5520  162.0460   31.5860 C.2        1 <1>        0.080
     15 H1         55.2635  161.6210   29.6695 H          1 <1>        0.000
     16 O1         48.6080  158.4420   30.2560 O.3        1 <1>        0.100
     17 H1         47.6731  158.5250   30.4030 H          1 <1>        0.000
     18 C1         55.7580  162.6400   32.2540 C.3        1 <1>        0.060
     19 O3         56.9440  162.1260   31.6420 O.3        1 <1>        1.410
     20 H4         55.7530  162.3770   33.3221 H          1 <1>        0.000
     21 H5         55.7350  163.7345   32.1461 H          1 <1>        0.000
     22 H6         57.7122  162.4981   32.0591 H          1 <1>        0.000
     23 C1         48.1120  162.1110   33.5170 C.3        1 <1>        0.160
     24 H1         47.0896  161.7058   33.5400 H          1 <1>        0.000
     25 H2         48.0830  163.1651   33.2040 H          1 <1>        0.000
     26 H3         48.5580  162.0380   34.5199 H          1 <1>        0.000
@<TRIPOS>BOND
     1    8    7 1  
     2    7    3 ar 
     3    7    6 ar 
     4    3    2 ar 
     5    6    5 ar 
     6    2    1 1  
     7    2    4 ar 
     8    5    4 ar 
     9    5    9 1  
    10   10   11 1  
    11   10   14 1  
    12   11   12 2  
    13   12   13 1  
    14   13   14 2  
    15   10   15 1  
    16    6   12 1  
    17   16   17 1  
    18    3   16 1  
    19   18   19 1  
    20   18   20 1  
    21   18   21 1  
    22   19   22 1  
    23   14   18 1  
    24   23   24 1  
    25   23   25 1  
    26   23   26 1  
    27    4   23 1  
# Name:          No_5_29
# Creation time: Thu Mar 21 15:29:45 2024


@<TRIPOS>MOLECULE
000003_000005
   26    27     1     1     1
SMALL
USER_CHARGES


@<TRIPOS>ATOM
      1 H          47.3382  160.0220   31.9840 H          1 <1>        0.000
      2 C3         48.3850  160.2610   31.8350 C.ar       1 <1>        0.220
      3 C2         49.1650  159.5160   30.9410 C.ar       1 <1>        0.090
      4 C4         48.9530  161.3100   32.5280 C.ar       1 <1>        0.210
      5 C5         50.2720  161.6360   32.3310 C.ar       1 <1>        0.220
      6 C6         51.0530  160.9240   31.4430 C.ar       1 <1>        0.200
      7 C1         50.4850  159.8520   30.7440 C.ar       1 <1>        0.210
      8 H          51.0848  159.2532   30.0682 H          1 <1>        0.000
      9 H          50.7059  162.4639   32.8799 H          1 <1>        0.000
     10 N1         54.5020  161.6200   30.3630 N.pl3      1 <1>        0.020
     11 N2         53.2290  161.1690   30.1820 N.2        1 <1>        0.660
     12 C1         52.5010  161.2960   31.2280 C.2        1 <1>        0.110
     13 N3         53.4380  161.8900   32.1420 N.2        1 <1>       -0.110
     14 C2         54.5520  162.0460   31.5860 C.2        1 <1>        0.080
     15 H1         55.2635  161.6210   29.6695 H          1 <1>        0.000
     16 O1         48.6080  158.4420   30.2560 O.3        1 <1>        0.100
     17 H1         47.6731  158.5250   30.4030 H          1 <1>        0.000
     18 C1         55.7580  162.6400   32.2540 C.3        1 <1>        0.060
     19 O3         56.9440  162.1260   31.6420 O.3        1 <1>        1.410
     20 H4         55.7530  162.3770   33.3221 H          1 <1>        0.000
     21 H5         55.7350  163.7345   32.1461 H          1 <1>        0.000
     22 H6         57.7122  162.4981   32.0591 H          1 <1>        0.000
     23 C1         48.1120  162.1110   33.5170 C.3        1 <1>        0.160
     24 H1         47.0896  161.7058   33.5400 H          1 <1>        0.000
     25 H2         48.0830  163.1651   33.2040 H          1 <1>        0.000
     26 H3         48.5580  162.0380   34.5199 H          1 <1>        0.000
@<TRIPOS>BOND
     1    8    7 1  
     2    7    3 ar 
     3    7    6 ar 
     4    3    2 ar 
     5    6    5 ar 
     6    2    1 1  
     7    2    4 ar 
     8    5    4 ar 
     9    5    9 1  
    10   10   11 1  
    11   10   14 1  
    12   11   12 2  
    13   12   13 1  
    14   13   14 2  
    15   10   15 1  
    16    6   12 1  
    17   16   17 1  
    18    3   16 1  
    19   18   19 1  
    20   18   20 1  
    21   18   21 1  
    22   19   22 1  
    23   14   18 1  
    24   23   24 1  
    25   23   25 1  
    26   23   26 1  
    27    4   23 1  
# Name:          No_6_49
# Creation time: Thu Mar 21 15:29:45 2024


@<TRIPOS>MOLECULE
000003_000006
   27    28     1     1     1
SMALL
USER_CHARGES


@<TRIPOS>ATOM
      1 H          47.3382  160.0220   31.9840 H          1 <1>        0.000
      2 C3         48.3850  160.2610   31.8350 C.ar       1 <1>        0.220
      3 C2         49.1650  159.5160   30.9410 C.ar       1 <1>        0.090
      4 C4         48.9530  161.3100   32.5280 C.ar       1 <1>        0.060
      5 C5         50.2720  161.6360   32.3310 C.ar       1 <1>        0.220
      6 C6         51.0530  160.9240   31.4430 C.ar       1 <1>        0.200
      7 C1         50.4850  159.8520   30.7440 C.ar       1 <1>        0.210
      8 H          51.0848  159.2532   30.0682 H          1 <1>        0.000
      9 H          50.7059  162.4639   32.8799 H          1 <1>        0.000
     10 N1         54.5020  161.6200   30.3630 N.pl3      1 <1>        0.020
     11 N2         53.2290  161.1690   30.1820 N.2        1 <1>        0.660
     12 C1         52.5010  161.2960   31.2280 C.2        1 <1>        0.110
     13 N3         53.4380  161.8900   32.1420 N.2        1 <1>       -0.110
     14 C2         54.5520  162.0460   31.5860 C.2        1 <1>        0.080
     15 H1         55.2635  161.6210   29.6695 H          1 <1>        0.000
     16 O1         48.6080  158.4420   30.2560 O.3        1 <1>        0.100
     17 H1         47.6731  158.5250   30.4030 H          1 <1>        0.000
     18 C1         55.7580  162.6400   32.2540 C.3        1 <1>        0.060
     19 O3         56.9440  162.1260   31.6420 O.3        1 <1>        1.410
     20 H4         55.7530  162.3770   33.3221 H          1 <1>        0.000
     21 H5         55.7350  163.7345   32.1461 H          1 <1>        0.000
     22 H6         57.7122  162.4981   32.0591 H          1 <1>        0.000
     23 C1         48.5930  161.7250   34.7640 C.3        1 <1>       -0.030
     24 O2         48.1870  162.0400   33.4290 O.3        1 <1>        0.200
     25 H1         49.6549  161.9810   34.8940 H          1 <1>        0.000
     26 H2         48.4490  160.6499   34.9470 H          1 <1>        0.000
     27 H3         47.9862  162.3028   35.4767 H          1 <1>        0.000
@<TRIPOS>BOND
     1    8    7 1  
     2    7    3 ar 
     3    7    6 ar 
     4    3    2 ar 
     5    6    5 ar 
     6    2    1 1  
     7    2    4 ar 
     8    5    4 ar 
     9    5    9 1  
    10   10   11 1  
    11   10   14 1  
    12   11   12 2  
    13   12   13 1  
    14   13   14 2  
    15   10   15 1  
    16    6   12 1  
    17   16   17 1  
    18    3   16 1  
    19   18   19 1  
    20   18   20 1  
    21   18   21 1  
    22   19   22 1  
    23   14   18 1  
    24   24   23 1  
    25   23   25 1  
    26   23   26 1  
    27   23   27 1  
    28    4   24 1  
# Name:          No_5_69
# Creation time: Thu Mar 21 15:38:43 2024


@<TRIPOS>MOLECULE
000001_000001
   28    29     1     1     1
SMALL
USER_CHARGES


@<TRIPOS>ATOM
      1 H          47.3382  160.0220   31.9840 H          1 <1>        0.000
      2 C3         48.3850  160.2610   31.8350 C.ar       1 <1>        0.220
      3 C2         49.1650  159.5160   30.9410 C.ar       1 <1>        0.210
      4 C4         48.9530  161.3100   32.5280 C.ar       1 <1>        0.170
      5 C5         50.2720  161.6360   32.3310 C.ar       1 <1>        0.100
      6 C6         51.0530  160.9240   31.4430 C.ar       1 <1>        0.200
      7 C1         50.4850  159.8520   30.7440 C.ar       1 <1>        0.210
      8 H          51.0848  159.2532   30.0682 H          1 <1>        0.000
      9 H          48.7308  158.6786   30.4068 H          1 <1>        0.000
     10 N1         53.2890  161.8330   32.1060 N.pl3      1 <1>        0.110
     11 C1         52.5010  161.2960   31.2280 C.2        1 <1>        0.110
     12 N2         53.1310  161.1300   30.1570 N.2        1 <1>        0.530
     13 C2         54.4840  161.5950   30.3040 C.2        1 <1>       -0.070
     14 C3         54.4790  162.0220   31.5820 C.2        1 <1>        0.080
     15 H1         53.0220  162.0740   33.0711 H          1 <1>        0.000
     16 H3         55.2925  161.5980   29.5745 H          1 <1>        0.000
     17 C1         48.1120  162.1110   33.5170 C.3        1 <1>        0.030
     18 H2         47.0456  161.9789   33.2819 H          1 <1>        0.000
     19 O3         48.3680  161.6470   34.8450 O.3        1 <1>        0.050
     20 H4         48.3751  163.1765   33.4430 H          1 <1>        0.000
     21 H6         49.2877  161.7570   35.0559 H          1 <1>        0.000
     22 C1         55.6580  162.6230   32.2900 C.3        1 <1>        0.060
     23 H2         55.8141  163.6523   31.9349 H          1 <1>        0.000
     24 O3         56.8250  161.8420   32.0180 O.3        1 <1>        1.250
     25 H5         55.4691  162.6340   33.3736 H          1 <1>        0.000
     26 H6         56.6990  160.9511   32.3230 H          1 <1>        0.000
     27 O1         50.8290  162.6970   33.0350 O.3        1 <1>        0.550
     28 H1         51.5327  163.0093   32.4784 H          1 <1>        0.000
@<TRIPOS>BOND
     1    8    7 1  
     2    7    3 ar 
     3    7    6 ar 
     4    3    2 ar 
     5    6    5 ar 
     6    2    1 1  
     7    2    4 ar 
     8    5    4 ar 
     9    3    9 1  
    10   10   11 1  
    11   10   14 1  
    12   11   12 2  
    13   12   13 1  
    14   13   14 2  
    15   10   15 1  
    16   13   16 1  
    17    6   11 1  
    18   17   18 1  
    19   17   19 1  
    20   17   20 1  
    21   19   21 1  
    22    4   17 1  
    23   22   23 1  
    24   22   24 1  
    25   22   25 1  
    26   24   26 1  
    27   14   22 1  
    28   27   28 1  
    29    5   27 1  
# Name:          No_5_70
# Creation time: Thu Mar 21 15:38:43 2024


@<TRIPOS>MOLECULE
000001_000002
   28    29     1     1     1
SMALL
USER_CHARGES


@<TRIPOS>ATOM
      1 H          47.3382  160.0220   31.9840 H          1 <1>        0.000
      2 C3         48.3850  160.2610   31.8350 C.ar       1 <1>        0.220
      3 C2         49.1650  159.5160   30.9410 C.ar       1 <1>        0.210
      4 C4         48.9530  161.3100   32.5280 C.ar       1 <1>        0.170
      5 C5         50.2720  161.6360   32.3310 C.ar       1 <1>        0.100
      6 C6         51.0530  160.9240   31.4430 C.ar       1 <1>        0.200
      7 C1         50.4850  159.8520   30.7440 C.ar       1 <1>        0.210
      8 H          51.0848  159.2532   30.0682 H          1 <1>        0.000
      9 H          48.7308  158.6786   30.4068 H          1 <1>        0.000
     10 N1         53.2890  161.8330   32.1060 N.pl3      1 <1>        0.110
     11 C1         52.5010  161.2960   31.2280 C.2        1 <1>        0.110
     12 N2         53.1310  161.1300   30.1570 N.2        1 <1>        0.530
     13 C2         54.4840  161.5950   30.3040 C.2        1 <1>       -0.070
     14 C3         54.4790  162.0220   31.5820 C.2        1 <1>        0.080
     15 H1         53.0220  162.0740   33.0711 H          1 <1>        0.000
     16 H3         55.2925  161.5980   29.5745 H          1 <1>        0.000
     17 C1         48.1120  162.1110   33.5170 C.3        1 <1>        0.030
     18 H2         47.0456  161.9789   33.2819 H          1 <1>        0.000
     19 O3         48.3680  161.6470   34.8450 O.3        1 <1>        0.050
     20 H4         48.3751  163.1765   33.4430 H          1 <1>        0.000
     21 H6         49.2877  161.7570   35.0559 H          1 <1>        0.000
     22 C1         55.6580  162.6230   32.2900 C.3        1 <1>        0.060
     23 H2         55.8141  163.6523   31.9349 H          1 <1>        0.000
     24 O3         56.8250  161.8420   32.0180 O.3        1 <1>        1.250
     25 H5         55.4691  162.6340   33.3736 H          1 <1>        0.000
     26 H6         56.6990  160.9511   32.3230 H          1 <1>        0.000
     27 O1         50.8290  162.6970   33.0350 O.3        1 <1>        0.550
     28 H1         51.1169  163.3038   32.3632 H          1 <1>        0.000
@<TRIPOS>BOND
     1    8    7 1  
     2    7    3 ar 
     3    7    6 ar 
     4    3    2 ar 
     5    6    5 ar 
     6    2    1 1  
     7    2    4 ar 
     8    5    4 ar 
     9    3    9 1  
    10   10   11 1  
    11   10   14 1  
    12   11   12 2  
    13   12   13 1  
    14   13   14 2  
    15   10   15 1  
    16   13   16 1  
    17    6   11 1  
    18   17   18 1  
    19   17   19 1  
    20   17   20 1  
    21   19   21 1  
    22    4   17 1  
    23   22   23 1  
    24   22   24 1  
    25   22   25 1  
    26   24   26 1  
    27   14   22 1  
    28   27   28 1  
    29    5   27 1  
# Name:          No_5_71
# Creation time: Thu Mar 21 15:38:43 2024


@<TRIPOS>MOLECULE
000001_000003
   28    29     1     1     1
SMALL
USER_CHARGES


@<TRIPOS>ATOM
      1 H          47.3382  160.0220   31.9840 H          1 <1>        0.000
      2 C3         48.3850  160.2610   31.8350 C.ar       1 <1>        0.220
      3 C2         49.1650  159.5160   30.9410 C.ar       1 <1>        0.210
      4 C4         48.9530  161.3100   32.5280 C.ar       1 <1>        0.170
      5 C5         50.2720  161.6360   32.3310 C.ar       1 <1>        0.100
      6 C6         51.0530  160.9240   31.4430 C.ar       1 <1>        0.200
      7 C1         50.4850  159.8520   30.7440 C.ar       1 <1>        0.210
      8 H          51.0848  159.2532   30.0682 H          1 <1>        0.000
      9 H          48.7308  158.6786   30.4068 H          1 <1>        0.000
     10 N1         53.2890  161.8330   32.1060 N.pl3      1 <1>        0.110
     11 C1         52.5010  161.2960   31.2280 C.2        1 <1>        0.110
     12 N2         53.1310  161.1300   30.1570 N.2        1 <1>        0.530
     13 C2         54.4840  161.5950   30.3040 C.2        1 <1>       -0.070
     14 C3         54.4790  162.0220   31.5820 C.2        1 <1>        0.080
     15 H1         53.0220  162.0740   33.0711 H          1 <1>        0.000
     16 H3         55.2925  161.5980   29.5745 H          1 <1>        0.000
     17 C1         48.1120  162.1110   33.5170 C.3        1 <1>        0.030
     18 H2         47.0456  161.9789   33.2819 H          1 <1>        0.000
     19 O3         48.3680  161.6470   34.8450 O.3        1 <1>        0.050
     20 H4         48.3751  163.1765   33.4430 H          1 <1>        0.000
     21 H6         49.2877  161.7570   35.0559 H          1 <1>        0.000
     22 C1         55.6580  162.6230   32.2900 C.3        1 <1>        0.060
     23 H2         55.8141  163.6523   31.9349 H          1 <1>        0.000
     24 O3         56.8250  161.8420   32.0180 O.3        1 <1>        1.250
     25 H5         55.4691  162.6340   33.3736 H          1 <1>        0.000
     26 H6         56.6990  160.9511   32.3230 H          1 <1>        0.000
     27 O1         50.8290  162.6970   33.0350 O.3        1 <1>        0.550
     28 H1         50.3153  162.7490   33.8325 H          1 <1>        0.000
@<TRIPOS>BOND
     1    8    7 1  
     2    7    3 ar 
     3    7    6 ar 
     4    3    2 ar 
     5    6    5 ar 
     6    2    1 1  
     7    2    4 ar 
     8    5    4 ar 
     9    3    9 1  
    10   10   11 1  
    11   10   14 1  
    12   11   12 2  
    13   12   13 1  
    14   13   14 2  
    15   10   15 1  
    16   13   16 1  
    17    6   11 1  
    18   17   18 1  
    19   17   19 1  
    20   17   20 1  
    21   19   21 1  
    22    4   17 1  
    23   22   23 1  
    24   22   24 1  
    25   22   25 1  
    26   24   26 1  
    27   14   22 1  
    28   27   28 1  
    29    5   27 1  
# Name:          No_5_72
# Creation time: Thu Mar 21 15:38:43 2024


@<TRIPOS>MOLECULE
000001_000004
   28    29     1     1     1
SMALL
USER_CHARGES


@<TRIPOS>ATOM
      1 H          47.3382  160.0220   31.9840 H          1 <1>        0.000
      2 C3         48.3850  160.2610   31.8350 C.ar       1 <1>        0.220
      3 C2         49.1650  159.5160   30.9410 C.ar       1 <1>        0.210
      4 C4         48.9530  161.3100   32.5280 C.ar       1 <1>        0.170
      5 C5         50.2720  161.6360   32.3310 C.ar       1 <1>        0.100
      6 C6         51.0530  160.9240   31.4430 C.ar       1 <1>        0.200
      7 C1         50.4850  159.8520   30.7440 C.ar       1 <1>        0.210
      8 H          51.0848  159.2532   30.0682 H          1 <1>        0.000
      9 H          48.7308  158.6786   30.4068 H          1 <1>        0.000
     10 N1         53.2890  161.8330   32.1060 N.pl3      1 <1>        0.110
     11 C1         52.5010  161.2960   31.2280 C.2        1 <1>        0.110
     12 N2         53.1310  161.1300   30.1570 N.2        1 <1>        0.530
     13 C2         54.4840  161.5950   30.3040 C.2        1 <1>       -0.070
     14 C3         54.4790  162.0220   31.5820 C.2        1 <1>        0.080
     15 H1         53.0220  162.0740   33.0711 H          1 <1>        0.000
     16 H3         55.2925  161.5980   29.5745 H          1 <1>        0.000
     17 C1         48.1120  162.1110   33.5170 C.3        1 <1>        0.030
     18 H2         47.0456  161.9789   33.2819 H          1 <1>        0.000
     19 O3         48.3680  161.6470   34.8450 O.3        1 <1>        0.050
     20 H4         48.3751  163.1765   33.4430 H          1 <1>        0.000
     21 H6         49.2877  161.7570   35.0559 H          1 <1>        0.000
     22 C1         55.6580  162.6230   32.2900 C.3        1 <1>        0.060
     23 H2         55.8141  163.6523   31.9349 H          1 <1>        0.000
     24 O3         56.8250  161.8420   32.0180 O.3        1 <1>        1.250
     25 H5         55.4691  162.6340   33.3736 H          1 <1>        0.000
     26 H6         56.6990  160.9511   32.3230 H          1 <1>        0.000
     27 O1         50.8290  162.6970   33.0350 O.3        1 <1>        0.550
     28 H1         50.8610  162.3950   33.9351 H          1 <1>        0.000
@<TRIPOS>BOND
     1    8    7 1  
     2    7    3 ar 
     3    7    6 ar 
     4    3    2 ar 
     5    6    5 ar 
     6    2    1 1  
     7    2    4 ar 
     8    5    4 ar 
     9    3    9 1  
    10   10   11 1  
    11   10   14 1  
    12   11   12 2  
    13   12   13 1  
    14   13   14 2  
    15   10   15 1  
    16   13   16 1  
    17    6   11 1  
    18   17   18 1  
    19   17   19 1  
    20   17   20 1  
    21   19   21 1  
    22    4   17 1  
    23   22   23 1  
    24   22   24 1  
    25   22   25 1  
    26   24   26 1  
    27   14   22 1  
    28   27   28 1  
    29    5   27 1  
# Name:          No_6_1
# Creation time: Thu Mar 21 15:38:43 2024


@<TRIPOS>MOLECULE
000001_000005
   28    29     1     1     1
SMALL
USER_CHARGES


@<TRIPOS>ATOM
      1 H          47.3382  160.0220   31.9840 H          1 <1>        0.000
      2 C3         48.3850  160.2610   31.8350 C.ar       1 <1>        0.220
      3 C2         49.1650  159.5160   30.9410 C.ar       1 <1>        0.210
      4 C4         48.9530  161.3100   32.5280 C.ar       1 <1>        0.170
      5 C5         50.2720  161.6360   32.3310 C.ar       1 <1>        0.100
      6 C6         51.0530  160.9240   31.4430 C.ar       1 <1>        0.200
      7 C1         50.4850  159.8520   30.7440 C.ar       1 <1>        0.210
      8 H          51.0848  159.2532   30.0682 H          1 <1>        0.000
      9 H          48.7308  158.6786   30.4068 H          1 <1>        0.000
     10 N1         53.2890  161.8330   32.1060 N.pl3      1 <1>        0.110
     11 C1         52.5010  161.2960   31.2280 C.2        1 <1>        0.110
     12 N2         53.1310  161.1300   30.1570 N.2        1 <1>        0.530
     13 C2         54.4840  161.5950   30.3040 C.2        1 <1>       -0.070
     14 C3         54.4790  162.0220   31.5820 C.2        1 <1>        0.080
     15 H1         53.0220  162.0740   33.0711 H          1 <1>        0.000
     16 H3         55.2925  161.5980   29.5745 H          1 <1>        0.000
     17 C1         48.1120  162.1110   33.5170 C.3        1 <1>        0.030
     18 H2         47.0456  161.9789   33.2819 H          1 <1>        0.000
     19 O3         48.3680  161.6470   34.8450 O.3        1 <1>        0.050
     20 H4         48.3751  163.1765   33.4430 H          1 <1>        0.000
     21 H6         49.2877  161.7570   35.0559 H          1 <1>        0.000
     22 C1         55.6580  162.6230   32.2900 C.3        1 <1>        0.060
     23 H2         55.8141  163.6523   31.9349 H          1 <1>        0.000
     24 O3         56.8250  161.8420   32.0180 O.3        1 <1>        1.250
     25 H5         55.4691  162.6340   33.3736 H          1 <1>        0.000
     26 H6         56.6990  160.9511   32.3230 H          1 <1>        0.000
     27 O1         50.8290  162.6970   33.0350 O.3        1 <1>        0.550
     28 H1         51.5327  163.0093   32.4784 H          1 <1>        0.000
@<TRIPOS>BOND
     1    8    7 1  
     2    7    3 ar 
     3    7    6 ar 
     4    3    2 ar 
     5    6    5 ar 
     6    2    1 1  
     7    2    4 ar 
     8    5    4 ar 
     9    3    9 1  
    10   10   11 1  
    11   10   14 1  
    12   11   12 2  
    13   12   13 1  
    14   13   14 2  
    15   10   15 1  
    16   13   16 1  
    17    6   11 1  
    18   17   18 1  
    19   17   19 1  
    20   17   20 1  
    21   19   21 1  
    22    4   17 1  
    23   22   23 1  
    24   22   24 1  
    25   22   25 1  
    26   24   26 1  
    27   14   22 1  
    28   27   28 1  
    29    5   27 1  
# Name:          No_6_2
# Creation time: Thu Mar 21 15:38:43 2024


@<TRIPOS>MOLECULE
000001_000006
   28    29     1     1     1
SMALL
USER_CHARGES


@<TRIPOS>ATOM
      1 H          47.3382  160.0220   31.9840 H          1 <1>        0.000
      2 C3         48.3850  160.2610   31.8350 C.ar       1 <1>        0.220
      3 C2         49.1650  159.5160   30.9410 C.ar       1 <1>        0.210
      4 C4         48.9530  161.3100   32.5280 C.ar       1 <1>        0.170
      5 C5         50.2720  161.6360   32.3310 C.ar       1 <1>        0.100
      6 C6         51.0530  160.9240   31.4430 C.ar       1 <1>        0.200
      7 C1         50.4850  159.8520   30.7440 C.ar       1 <1>        0.210
      8 H          51.0848  159.2532   30.0682 H          1 <1>        0.000
      9 H          48.7308  158.6786   30.4068 H          1 <1>        0.000
     10 N1         53.2890  161.8330   32.1060 N.pl3      1 <1>        0.110
     11 C1         52.5010  161.2960   31.2280 C.2        1 <1>        0.110
     12 N2         53.1310  161.1300   30.1570 N.2        1 <1>        0.530
     13 C2         54.4840  161.5950   30.3040 C.2        1 <1>       -0.070
     14 C3         54.4790  162.0220   31.5820 C.2        1 <1>        0.080
     15 H1         53.0220  162.0740   33.0711 H          1 <1>        0.000
     16 H3         55.2925  161.5980   29.5745 H          1 <1>        0.000
     17 C1         48.1120  162.1110   33.5170 C.3        1 <1>        0.030
     18 H2         47.0456  161.9789   33.2819 H          1 <1>        0.000
     19 O3         48.3680  161.6470   34.8450 O.3        1 <1>        0.050
     20 H4         48.3751  163.1765   33.4430 H          1 <1>        0.000
     21 H6         49.2877  161.7570   35.0559 H          1 <1>        0.000
     22 C1         55.6580  162.6230   32.2900 C.3        1 <1>        0.060
     23 H2         55.8141  163.6523   31.9349 H          1 <1>        0.000
     24 O3         56.8250  161.8420   32.0180 O.3        1 <1>        1.250
     25 H5         55.4691  162.6340   33.3736 H          1 <1>        0.000
     26 H6         56.6990  160.9511   32.3230 H          1 <1>        0.000
     27 O1         50.8290  162.6970   33.0350 O.3        1 <1>        0.550
     28 H1         51.1169  163.3038   32.3632 H          1 <1>        0.000
@<TRIPOS>BOND
     1    8    7 1  
     2    7    3 ar 
     3    7    6 ar 
     4    3    2 ar 
     5    6    5 ar 
     6    2    1 1  
     7    2    4 ar 
     8    5    4 ar 
     9    3    9 1  
    10   10   11 1  
    11   10   14 1  
    12   11   12 2  
    13   12   13 1  
    14   13   14 2  
    15   10   15 1  
    16   13   16 1  
    17    6   11 1  
    18   17   18 1  
    19   17   19 1  
    20   17   20 1  
    21   19   21 1  
    22    4   17 1  
    23   22   23 1  
    24   22   24 1  
    25   22   25 1  
    26   24   26 1  
    27   14   22 1  
    28   27   28 1  
    29    5   27 1  
# Name:          No_6_3
# Creation time: Thu Mar 21 15:38:43 2024


@<TRIPOS>MOLECULE
000001_000007
   28    29     1     1     1
SMALL
USER_CHARGES


@<TRIPOS>ATOM
      1 H          47.3382  160.0220   31.9840 H          1 <1>        0.000
      2 C3         48.3850  160.2610   31.8350 C.ar       1 <1>        0.220
      3 C2         49.1650  159.5160   30.9410 C.ar       1 <1>        0.210
      4 C4         48.9530  161.3100   32.5280 C.ar       1 <1>        0.170
      5 C5         50.2720  161.6360   32.3310 C.ar       1 <1>        0.100
      6 C6         51.0530  160.9240   31.4430 C.ar       1 <1>        0.200
      7 C1         50.4850  159.8520   30.7440 C.ar       1 <1>        0.210
      8 H          51.0848  159.2532   30.0682 H          1 <1>        0.000
      9 H          48.7308  158.6786   30.4068 H          1 <1>        0.000
     10 N1         53.2890  161.8330   32.1060 N.pl3      1 <1>        0.110
     11 C1         52.5010  161.2960   31.2280 C.2        1 <1>        0.110
     12 N2         53.1310  161.1300   30.1570 N.2        1 <1>        0.530
     13 C2         54.4840  161.5950   30.3040 C.2        1 <1>       -0.070
     14 C3         54.4790  162.0220   31.5820 C.2        1 <1>        0.080
     15 H1         53.0220  162.0740   33.0711 H          1 <1>        0.000
     16 H3         55.2925  161.5980   29.5745 H          1 <1>        0.000
     17 C1         48.1120  162.1110   33.5170 C.3        1 <1>        0.030
     18 H2         47.0456  161.9789   33.2819 H          1 <1>        0.000
     19 O3         48.3680  161.6470   34.8450 O.3        1 <1>        0.050
     20 H4         48.3751  163.1765   33.4430 H          1 <1>        0.000
     21 H6         49.2877  161.7570   35.0559 H          1 <1>        0.000
     22 C1         55.6580  162.6230   32.2900 C.3        1 <1>        0.060
     23 H2         55.8141  163.6523   31.9349 H          1 <1>        0.000
     24 O3         56.8250  161.8420   32.0180 O.3        1 <1>        1.250
     25 H5         55.4691  162.6340   33.3736 H          1 <1>        0.000
     26 H6         56.6990  160.9511   32.3230 H          1 <1>        0.000
     27 O1         50.8290  162.6970   33.0350 O.3        1 <1>        0.550
     28 H1         50.3153  162.7490   33.8325 H          1 <1>        0.000
@<TRIPOS>BOND
     1    8    7 1  
     2    7    3 ar 
     3    7    6 ar 
     4    3    2 ar 
     5    6    5 ar 
     6    2    1 1  
     7    2    4 ar 
     8    5    4 ar 
     9    3    9 1  
    10   10   11 1  
    11   10   14 1  
    12   11   12 2  
    13   12   13 1  
    14   13   14 2  
    15   10   15 1  
    16   13   16 1  
    17    6   11 1  
    18   17   18 1  
    19   17   19 1  
    20   17   20 1  
    21   19   21 1  
    22    4   17 1  
    23   22   23 1  
    24   22   24 1  
    25   22   25 1  
    26   24   26 1  
    27   14   22 1  
    28   27   28 1  
    29    5   27 1  
# Name:          No_6_4
# Creation time: Thu Mar 21 15:38:43 2024


@<TRIPOS>MOLECULE
000001_000008
   28    29     1     1     1
SMALL
USER_CHARGES


@<TRIPOS>ATOM
      1 H          47.3382  160.0220   31.9840 H          1 <1>        0.000
      2 C3         48.3850  160.2610   31.8350 C.ar       1 <1>        0.220
      3 C2         49.1650  159.5160   30.9410 C.ar       1 <1>        0.210
      4 C4         48.9530  161.3100   32.5280 C.ar       1 <1>        0.170
      5 C5         50.2720  161.6360   32.3310 C.ar       1 <1>        0.100
      6 C6         51.0530  160.9240   31.4430 C.ar       1 <1>        0.200
      7 C1         50.4850  159.8520   30.7440 C.ar       1 <1>        0.210
      8 H          51.0848  159.2532   30.0682 H          1 <1>        0.000
      9 H          48.7308  158.6786   30.4068 H          1 <1>        0.000
     10 N1         53.2890  161.8330   32.1060 N.pl3      1 <1>        0.110
     11 C1         52.5010  161.2960   31.2280 C.2        1 <1>        0.110
     12 N2         53.1310  161.1300   30.1570 N.2        1 <1>        0.530
     13 C2         54.4840  161.5950   30.3040 C.2        1 <1>       -0.070
     14 C3         54.4790  162.0220   31.5820 C.2        1 <1>        0.080
     15 H1         53.0220  162.0740   33.0711 H          1 <1>        0.000
     16 H3         55.2925  161.5980   29.5745 H          1 <1>        0.000
     17 C1         48.1120  162.1110   33.5170 C.3        1 <1>        0.030
     18 H2         47.0456  161.9789   33.2819 H          1 <1>        0.000
     19 O3         48.3680  161.6470   34.8450 O.3        1 <1>        0.050
     20 H4         48.3751  163.1765   33.4430 H          1 <1>        0.000
     21 H6         49.2877  161.7570   35.0559 H          1 <1>        0.000
     22 C1         55.6580  162.6230   32.2900 C.3        1 <1>        0.060
     23 H2         55.8141  163.6523   31.9349 H          1 <1>        0.000
     24 O3         56.8250  161.8420   32.0180 O.3        1 <1>        1.250
     25 H5         55.4691  162.6340   33.3736 H          1 <1>        0.000
     26 H6         56.6990  160.9511   32.3230 H          1 <1>        0.000
     27 O1         50.8290  162.6970   33.0350 O.3        1 <1>        0.550
     28 H1         50.8610  162.3950   33.9351 H          1 <1>        0.000
@<TRIPOS>BOND
     1    8    7 1  
     2    7    3 ar 
     3    7    6 ar 
     4    3    2 ar 
     5    6    5 ar 
     6    2    1 1  
     7    2    4 ar 
     8    5    4 ar 
     9    3    9 1  
    10   10   11 1  
    11   10   14 1  
    12   11   12 2  
    13   12   13 1  
    14   13   14 2  
    15   10   15 1  
    16   13   16 1  
    17    6   11 1  
    18   17   18 1  
    19   17   19 1  
    20   17   20 1  
    21   19   21 1  
    22    4   17 1  
    23   22   23 1  
    24   22   24 1  
    25   22   25 1  
    26   24   26 1  
    27   14   22 1  
    28   27   28 1  
    29    5   27 1  
# Name:          No_7_1
# Creation time: Thu Mar 21 15:38:43 2024


@<TRIPOS>MOLECULE
000001_000009
   28    29     1     1     1
SMALL
USER_CHARGES


@<TRIPOS>ATOM
      1 H          47.3382  160.0220   31.9840 H          1 <1>        0.000
      2 C3         48.3850  160.2610   31.8350 C.ar       1 <1>        0.220
      3 C2         49.1650  159.5160   30.9410 C.ar       1 <1>        0.210
      4 C4         48.9530  161.3100   32.5280 C.ar       1 <1>        0.170
      5 C5         50.2720  161.6360   32.3310 C.ar       1 <1>        0.100
      6 C6         51.0530  160.9240   31.4430 C.ar       1 <1>        0.200
      7 C1         50.4850  159.8520   30.7440 C.ar       1 <1>        0.210
      8 H          51.0848  159.2532   30.0682 H          1 <1>        0.000
      9 H          48.7308  158.6786   30.4068 H          1 <1>        0.000
     10 N1         53.2890  161.8330   32.1060 N.pl3      1 <1>        0.110
     11 C1         52.5010  161.2960   31.2280 C.2        1 <1>        0.110
     12 N2         53.1310  161.1300   30.1570 N.2        1 <1>        0.530
     13 C2         54.4840  161.5950   30.3040 C.2        1 <1>       -0.070
     14 C3         54.4790  162.0220   31.5820 C.2        1 <1>        0.080
     15 H1         53.0220  162.0740   33.0711 H          1 <1>        0.000
     16 H3         55.2925  161.5980   29.5745 H          1 <1>        0.000
     17 C1         48.1120  162.1110   33.5170 C.3        1 <1>        0.030
     18 H2         47.0456  161.9789   33.2819 H          1 <1>        0.000
     19 O3         48.3680  161.6470   34.8450 O.3        1 <1>        0.050
     20 H4         48.3751  163.1765   33.4430 H          1 <1>        0.000
     21 H6         49.2877  161.7570   35.0559 H          1 <1>        0.000
     22 C1         55.6580  162.6230   32.2900 C.3        1 <1>        0.060
     23 H2         55.8141  163.6523   31.9349 H          1 <1>        0.000
     24 O3         56.8250  161.8420   32.0180 O.3        1 <1>        1.250
     25 H5         55.4691  162.6340   33.3736 H          1 <1>        0.000
     26 H6         56.6990  160.9511   32.3230 H          1 <1>        0.000
     27 O1         50.8290  162.6970   33.0350 O.3        1 <1>        0.550
     28 H1         51.5327  163.0093   32.4784 H          1 <1>        0.000
@<TRIPOS>BOND
     1    8    7 1  
     2    7    3 ar 
     3    7    6 ar 
     4    3    2 ar 
     5    6    5 ar 
     6    2    1 1  
     7    2    4 ar 
     8    5    4 ar 
     9    3    9 1  
    10   10   11 1  
    11   10   14 1  
    12   11   12 2  
    13   12   13 1  
    14   13   14 2  
    15   10   15 1  
    16   13   16 1  
    17    6   11 1  
    18   17   18 1  
    19   17   19 1  
    20   17   20 1  
    21   19   21 1  
    22    4   17 1  
    23   22   23 1  
    24   22   24 1  
    25   22   25 1  
    26   24   26 1  
    27   14   22 1  
    28   27   28 1  
    29    5   27 1  
# Name:          No_7_2
# Creation time: Thu Mar 21 15:38:43 2024


@<TRIPOS>MOLECULE
000001_000010
   28    29     1     1     1
SMALL
USER_CHARGES


@<TRIPOS>ATOM
      1 H          47.3382  160.0220   31.9840 H          1 <1>        0.000
      2 C3         48.3850  160.2610   31.8350 C.ar       1 <1>        0.220
      3 C2         49.1650  159.5160   30.9410 C.ar       1 <1>        0.210
      4 C4         48.9530  161.3100   32.5280 C.ar       1 <1>        0.170
      5 C5         50.2720  161.6360   32.3310 C.ar       1 <1>        0.100
      6 C6         51.0530  160.9240   31.4430 C.ar       1 <1>        0.200
      7 C1         50.4850  159.8520   30.7440 C.ar       1 <1>        0.210
      8 H          51.0848  159.2532   30.0682 H          1 <1>        0.000
      9 H          48.7308  158.6786   30.4068 H          1 <1>        0.000
     10 N1         53.2890  161.8330   32.1060 N.pl3      1 <1>        0.110
     11 C1         52.5010  161.2960   31.2280 C.2        1 <1>        0.110
     12 N2         53.1310  161.1300   30.1570 N.2        1 <1>        0.530
     13 C2         54.4840  161.5950   30.3040 C.2        1 <1>       -0.070
     14 C3         54.4790  162.0220   31.5820 C.2        1 <1>        0.080
     15 H1         53.0220  162.0740   33.0711 H          1 <1>        0.000
     16 H3         55.2925  161.5980   29.5745 H          1 <1>        0.000
     17 C1         48.1120  162.1110   33.5170 C.3        1 <1>        0.030
     18 H2         47.0456  161.9789   33.2819 H          1 <1>        0.000
     19 O3         48.3680  161.6470   34.8450 O.3        1 <1>        0.050
     20 H4         48.3751  163.1765   33.4430 H          1 <1>        0.000
     21 H6         49.2877  161.7570   35.0559 H          1 <1>        0.000
     22 C1         55.6580  162.6230   32.2900 C.3        1 <1>        0.060
     23 H2         55.8141  163.6523   31.9349 H          1 <1>        0.000
     24 O3         56.8250  161.8420   32.0180 O.3        1 <1>        1.250
     25 H5         55.4691  162.6340   33.3736 H          1 <1>        0.000
     26 H6         56.6990  160.9511   32.3230 H          1 <1>        0.000
     27 O1         50.8290  162.6970   33.0350 O.3        1 <1>        0.550
     28 H1         51.1169  163.3038   32.3632 H          1 <1>        0.000
@<TRIPOS>BOND
     1    8    7 1  
     2    7    3 ar 
     3    7    6 ar 
     4    3    2 ar 
     5    6    5 ar 
     6    2    1 1  
     7    2    4 ar 
     8    5    4 ar 
     9    3    9 1  
    10   10   11 1  
    11   10   14 1  
    12   11   12 2  
    13   12   13 1  
    14   13   14 2  
    15   10   15 1  
    16   13   16 1  
    17    6   11 1  
    18   17   18 1  
    19   17   19 1  
    20   17   20 1  
    21   19   21 1  
    22    4   17 1  
    23   22   23 1  
    24   22   24 1  
    25   22   25 1  
    26   24   26 1  
    27   14   22 1  
    28   27   28 1  
    29    5   27 1  
# Name:          No_7_3
# Creation time: Thu Mar 21 15:38:43 2024


@<TRIPOS>MOLECULE
000001_000011
   28    29     1     1     1
SMALL
USER_CHARGES


@<TRIPOS>ATOM
      1 H          47.3382  160.0220   31.9840 H          1 <1>        0.000
      2 C3         48.3850  160.2610   31.8350 C.ar       1 <1>        0.220
      3 C2         49.1650  159.5160   30.9410 C.ar       1 <1>        0.210
      4 C4         48.9530  161.3100   32.5280 C.ar       1 <1>        0.170
      5 C5         50.2720  161.6360   32.3310 C.ar       1 <1>        0.100
      6 C6         51.0530  160.9240   31.4430 C.ar       1 <1>        0.200
      7 C1         50.4850  159.8520   30.7440 C.ar       1 <1>        0.210
      8 H          51.0848  159.2532   30.0682 H          1 <1>        0.000
      9 H          48.7308  158.6786   30.4068 H          1 <1>        0.000
     10 N1         53.2890  161.8330   32.1060 N.pl3      1 <1>        0.110
     11 C1         52.5010  161.2960   31.2280 C.2        1 <1>        0.110
     12 N2         53.1310  161.1300   30.1570 N.2        1 <1>        0.530
     13 C2         54.4840  161.5950   30.3040 C.2        1 <1>       -0.070
     14 C3         54.4790  162.0220   31.5820 C.2        1 <1>        0.080
     15 H1         53.0220  162.0740   33.0711 H          1 <1>        0.000
     16 H3         55.2925  161.5980   29.5745 H          1 <1>        0.000
     17 C1         48.1120  162.1110   33.5170 C.3        1 <1>        0.030
     18 H2         47.0456  161.9789   33.2819 H          1 <1>        0.000
     19 O3         48.3680  161.6470   34.8450 O.3        1 <1>        0.050
     20 H4         48.3751  163.1765   33.4430 H          1 <1>        0.000
     21 H6         49.2877  161.7570   35.0559 H          1 <1>        0.000
     22 C1         55.6580  162.6230   32.2900 C.3        1 <1>        0.060
     23 H2         55.8141  163.6523   31.9349 H          1 <1>        0.000
     24 O3         56.8250  161.8420   32.0180 O.3        1 <1>        1.250
     25 H5         55.4691  162.6340   33.3736 H          1 <1>        0.000
     26 H6         56.6990  160.9511   32.3230 H          1 <1>        0.000
     27 O1         50.8290  162.6970   33.0350 O.3        1 <1>        0.550
     28 H1         50.3153  162.7490   33.8325 H          1 <1>        0.000
@<TRIPOS>BOND
     1    8    7 1  
     2    7    3 ar 
     3    7    6 ar 
     4    3    2 ar 
     5    6    5 ar 
     6    2    1 1  
     7    2    4 ar 
     8    5    4 ar 
     9    3    9 1  
    10   10   11 1  
    11   10   14 1  
    12   11   12 2  
    13   12   13 1  
    14   13   14 2  
    15   10   15 1  
    16   13   16 1  
    17    6   11 1  
    18   17   18 1  
    19   17   19 1  
    20   17   20 1  
    21   19   21 1  
    22    4   17 1  
    23   22   23 1  
    24   22   24 1  
    25   22   25 1  
    26   24   26 1  
    27   14   22 1  
    28   27   28 1  
    29    5   27 1  
# Name:          No_7_4
# Creation time: Thu Mar 21 15:38:43 2024


@<TRIPOS>MOLECULE
000001_000012
   28    29     1     1     1
SMALL
USER_CHARGES


@<TRIPOS>ATOM
      1 H          47.3382  160.0220   31.9840 H          1 <1>        0.000
      2 C3         48.3850  160.2610   31.8350 C.ar       1 <1>        0.220
      3 C2         49.1650  159.5160   30.9410 C.ar       1 <1>        0.210
      4 C4         48.9530  161.3100   32.5280 C.ar       1 <1>        0.170
      5 C5         50.2720  161.6360   32.3310 C.ar       1 <1>        0.100
      6 C6         51.0530  160.9240   31.4430 C.ar       1 <1>        0.200
      7 C1         50.4850  159.8520   30.7440 C.ar       1 <1>        0.210
      8 H          51.0848  159.2532   30.0682 H          1 <1>        0.000
      9 H          48.7308  158.6786   30.4068 H          1 <1>        0.000
     10 N1         53.2890  161.8330   32.1060 N.pl3      1 <1>        0.110
     11 C1         52.5010  161.2960   31.2280 C.2        1 <1>        0.110
     12 N2         53.1310  161.1300   30.1570 N.2        1 <1>        0.530
     13 C2         54.4840  161.5950   30.3040 C.2        1 <1>       -0.070
     14 C3         54.4790  162.0220   31.5820 C.2        1 <1>        0.080
     15 H1         53.0220  162.0740   33.0711 H          1 <1>        0.000
     16 H3         55.2925  161.5980   29.5745 H          1 <1>        0.000
     17 C1         48.1120  162.1110   33.5170 C.3        1 <1>        0.030
     18 H2         47.0456  161.9789   33.2819 H          1 <1>        0.000
     19 O3         48.3680  161.6470   34.8450 O.3        1 <1>        0.050
     20 H4         48.3751  163.1765   33.4430 H          1 <1>        0.000
     21 H6         49.2877  161.7570   35.0559 H          1 <1>        0.000
     22 C1         55.6580  162.6230   32.2900 C.3        1 <1>        0.060
     23 H2         55.8141  163.6523   31.9349 H          1 <1>        0.000
     24 O3         56.8250  161.8420   32.0180 O.3        1 <1>        1.250
     25 H5         55.4691  162.6340   33.3736 H          1 <1>        0.000
     26 H6         56.6990  160.9511   32.3230 H          1 <1>        0.000
     27 O1         50.8290  162.6970   33.0350 O.3        1 <1>        0.550
     28 H1         50.8610  162.3950   33.9351 H          1 <1>        0.000
@<TRIPOS>BOND
     1    8    7 1  
     2    7    3 ar 
     3    7    6 ar 
     4    3    2 ar 
     5    6    5 ar 
     6    2    1 1  
     7    2    4 ar 
     8    5    4 ar 
     9    3    9 1  
    10   10   11 1  
    11   10   14 1  
    12   11   12 2  
    13   12   13 1  
    14   13   14 2  
    15   10   15 1  
    16   13   16 1  
    17    6   11 1  
    18   17   18 1  
    19   17   19 1  
    20   17   20 1  
    21   19   21 1  
    22    4   17 1  
    23   22   23 1  
    24   22   24 1  
    25   22   25 1  
    26   24   26 1  
    27   14   22 1  
    28   27   28 1  
    29    5   27 1  
# Name:          No_6_125
# Creation time: Thu Mar 21 15:43:53 2024


@<TRIPOS>MOLECULE
000001_000001
   51    54     1     1     1
SMALL
USER_CHARGES


@<TRIPOS>ATOM
      1 C9         51.5330  156.6540   29.1670 C.ar       1 <1>        0.170
      2 C10        51.0810  155.3840   29.3060 C.ar       1 <1>        0.240
      3 C11        51.5320  154.3980   28.4740 C.ar       1 <1>        0.240
      4 C14        52.4340  156.8960   28.1560 C.ar       1 <1>        0.230
      5 C13        52.8680  155.8980   27.2900 C.ar       1 <1>        0.110
      6 C12        52.4150  154.6130   27.4780 C.ar       1 <1>        0.210
      7 H          50.3592  155.1490   30.0798 H          1 <1>        0.000
      8 H          51.1599  153.3908   28.6230 H          1 <1>        0.000
      9 H          52.8200  157.9011   28.0300 H          1 <1>        0.000
     10 C1         52.7940  153.3950   26.6700 C.2        1 <1>        0.100
     11 O1         52.9490  152.3490   27.2810 O.2        1 <1>        0.530
     12 N1         52.9470  153.4920   25.3330 N.am       1 <1>        0.050
     13 H2         52.8110  154.3679   24.8701 H          1 <1>        0.000
     14 C1         50.9980  157.7530   30.0790 C.3        1 <1>        0.010
     15 O3         50.7030  158.9160   29.3010 O.3        1 <1>        0.080
     16 H4         51.7551  158.0020   30.8371 H          1 <1>        0.000
     17 H5         50.0815  157.4028   30.5763 H          1 <1>        0.000
     18 C1         53.3110  152.3240   24.5540 C.3        1 <1>       -0.020
     19 C2         54.8100  152.3480   24.2730 C.ar       1 <1>        0.140
     20 C3         55.2730  152.3740   22.9540 C.ar       1 <1>        0.200
     21 C4         56.6470  152.3950   22.6970 C.ar       1 <1>        0.210
     22 C5         57.5580  152.3900   23.7580 C.ar       1 <1>        0.150
     23 C6         57.0940  152.3640   25.0770 C.ar       1 <1>        0.230
     24 C7         55.7200  152.3430   25.3340 C.ar       1 <1>        0.200
     25 H1         52.7592  152.3320   23.6024 H          1 <1>        0.000
     26 H3         53.0570  151.4138   25.1171 H          1 <1>        0.000
     27 H4         54.5673  152.3770   22.1312 H          1 <1>        0.000
     28 H5         57.0068  152.4150   21.6746 H          1 <1>        0.000
     29 H6         58.6233  152.4060   23.5580 H          1 <1>        0.000
     30 H7         57.8003  152.3600   25.8993 H          1 <1>        0.000
     31 H8         55.3602  152.3230   26.3564 H          1 <1>        0.000
     32 O1         53.7440  156.1940   26.2530 O.3        1 <1>        0.080
     33 H2         53.8660  157.1347   26.3050 H          1 <1>        0.000
     34 N1         51.6810  162.5750   31.9590 N.pl3      1 <1>        0.130
     35 C1         52.7240  162.0110   31.4080 C.2        1 <1>        0.060
     36 N2         52.3870  161.0160   30.6930 N.2        1 <1>        0.280
     37 C2         50.2140  159.9260   30.1210 C.ar       1 <1>        0.060
     38 C3         48.8470  160.0800   30.3950 C.ar       1 <1>        0.210
     39 C4         48.3740  161.1070   31.2300 C.ar       1 <1>        0.220
     40 C5         49.2440  162.0300   31.8300 C.ar       1 <1>        0.200
     41 C6         50.6000  161.8700   31.5510 C.ar       1 <1>        0.020
     42 C7         51.0570  160.8540   30.7270 C.ar       1 <1>        0.100
     43 H1         51.6820  163.3951   32.5821 H          1 <1>        0.000
     44 H4         48.1405  159.3885   29.9503 H          1 <1>        0.000
     45 H5         47.3095  161.1900   31.4171 H          1 <1>        0.000
     46 H6         48.8870  162.8240   32.4760 H          1 <1>        0.000
     47 C1         54.1420  162.4670   31.5870 C.3        1 <1>        0.060
     48 H2         54.1630  163.5608   31.7020 H          1 <1>        0.000
     49 O3         54.6970  161.8540   32.7540 O.3        1 <1>        0.560
     50 H4         54.7338  162.1801   30.7053 H          1 <1>        0.000
     51 H6         54.6820  160.9086   32.6620 H          1 <1>        0.000
@<TRIPOS>BOND
     1    5    6 ar 
     2    5    4 ar 
     3    6    3 ar 
     4    4    1 ar 
     5    3    2 ar 
     6    1    2 ar 
     7    2    7 1  
     8    3    8 1  
     9    4    9 1  
    10   10   11 2  
    11   10   12 am 
    12   12   13 1  
    13    6   10 1  
    14   14   15 1  
    15   14   16 1  
    16   14   17 1  
    17    1   14 1  
    18   18   19 1  
    19   19   20 ar 
    20   19   24 ar 
    21   24   23 ar 
    22   23   22 ar 
    23   22   21 ar 
    24   21   20 ar 
    25   18   25 1  
    26   18   26 1  
    27   20   27 1  
    28   21   28 1  
    29   22   29 1  
    30   23   30 1  
    31   24   31 1  
    32   12   18 1  
    33   32   33 1  
    34    5   32 1  
    35   35   34 1  
    36   34   41 1  
    37   36   35 2  
    38   42   36 1  
    39   37   38 ar 
    40   37   42 ar 
    41   38   39 ar 
    42   39   40 ar 
    43   40   41 ar 
    44   41   42 ar 
    45   34   43 1  
    46   38   44 1  
    47   39   45 1  
    48   40   46 1  
    49   15   37 1  
    50   47   48 1  
    51   47   49 1  
    52   47   50 1  
    53   49   51 1  
    54   35   47 1  
# Name:          No_7_8
# Creation time: Thu Mar 21 15:43:53 2024


@<TRIPOS>MOLECULE
000001_000002
   51    54     1     1     1
SMALL
USER_CHARGES


@<TRIPOS>ATOM
      1 C9         51.5330  156.6540   29.1670 C.ar       1 <1>        0.170
      2 C10        51.0810  155.3840   29.3060 C.ar       1 <1>        0.240
      3 C11        51.5320  154.3980   28.4740 C.ar       1 <1>        0.240
      4 C14        52.4340  156.8960   28.1560 C.ar       1 <1>        0.230
      5 C13        52.8680  155.8980   27.2900 C.ar       1 <1>        0.110
      6 C12        52.4150  154.6130   27.4780 C.ar       1 <1>        0.210
      7 H          50.3592  155.1490   30.0798 H          1 <1>        0.000
      8 H          51.1599  153.3908   28.6230 H          1 <1>        0.000
      9 H          52.8200  157.9011   28.0300 H          1 <1>        0.000
     10 C1         52.7940  153.3950   26.6700 C.2        1 <1>        0.100
     11 O1         52.9490  152.3490   27.2810 O.2        1 <1>        0.530
     12 N1         52.9470  153.4920   25.3330 N.am       1 <1>        0.050
     13 H2         52.8110  154.3679   24.8701 H          1 <1>        0.000
     14 C1         50.9980  157.7530   30.0790 C.3        1 <1>        0.010
     15 O3         50.7030  158.9160   29.3010 O.3        1 <1>        0.080
     16 H4         51.7551  158.0020   30.8371 H          1 <1>        0.000
     17 H5         50.0815  157.4028   30.5763 H          1 <1>        0.000
     18 C1         53.3110  152.3240   24.5540 C.3        1 <1>       -0.020
     19 C2         54.8100  152.3480   24.2730 C.ar       1 <1>        0.140
     20 C3         55.2730  152.3740   22.9540 C.ar       1 <1>        0.200
     21 C4         56.6470  152.3950   22.6970 C.ar       1 <1>        0.210
     22 C5         57.5580  152.3900   23.7580 C.ar       1 <1>        0.150
     23 C6         57.0940  152.3640   25.0770 C.ar       1 <1>        0.230
     24 C7         55.7200  152.3430   25.3340 C.ar       1 <1>        0.200
     25 H1         52.7592  152.3320   23.6024 H          1 <1>        0.000
     26 H3         53.0570  151.4138   25.1171 H          1 <1>        0.000
     27 H4         54.5673  152.3770   22.1312 H          1 <1>        0.000
     28 H5         57.0068  152.4150   21.6746 H          1 <1>        0.000
     29 H6         58.6233  152.4060   23.5580 H          1 <1>        0.000
     30 H7         57.8003  152.3600   25.8993 H          1 <1>        0.000
     31 H8         55.3602  152.3230   26.3564 H          1 <1>        0.000
     32 O1         53.7440  156.1940   26.2530 O.3        1 <1>        0.080
     33 H2         53.8660  157.1347   26.3050 H          1 <1>        0.000
     34 N1         51.6810  162.5750   31.9590 N.pl3      1 <1>        0.130
     35 C1         52.7240  162.0110   31.4080 C.2        1 <1>        0.060
     36 N2         52.3870  161.0160   30.6930 N.2        1 <1>        0.280
     37 C2         50.2140  159.9260   30.1210 C.ar       1 <1>        0.060
     38 C3         48.8470  160.0800   30.3950 C.ar       1 <1>        0.210
     39 C4         48.3740  161.1070   31.2300 C.ar       1 <1>        0.220
     40 C5         49.2440  162.0300   31.8300 C.ar       1 <1>        0.200
     41 C6         50.6000  161.8700   31.5510 C.ar       1 <1>        0.020
     42 C7         51.0570  160.8540   30.7270 C.ar       1 <1>        0.100
     43 H1         51.6820  163.3951   32.5821 H          1 <1>        0.000
     44 H4         48.1405  159.3885   29.9503 H          1 <1>        0.000
     45 H5         47.3095  161.1900   31.4171 H          1 <1>        0.000
     46 H6         48.8870  162.8240   32.4760 H          1 <1>        0.000
     47 C1         54.1420  162.4670   31.5870 C.3        1 <1>        0.060
     48 H2         54.1630  163.5608   31.7020 H          1 <1>        0.000
     49 O3         54.6970  161.8540   32.7540 O.3        1 <1>        0.560
     50 H4         54.7338  162.1801   30.7053 H          1 <1>        0.000
     51 H6         54.6820  160.9086   32.6620 H          1 <1>        0.000
@<TRIPOS>BOND
     1    5    6 ar 
     2    5    4 ar 
     3    6    3 ar 
     4    4    1 ar 
     5    3    2 ar 
     6    1    2 ar 
     7    2    7 1  
     8    3    8 1  
     9    4    9 1  
    10   10   11 2  
    11   10   12 am 
    12   12   13 1  
    13    6   10 1  
    14   14   15 1  
    15   14   16 1  
    16   14   17 1  
    17    1   14 1  
    18   18   19 1  
    19   19   20 ar 
    20   19   24 ar 
    21   24   23 ar 
    22   23   22 ar 
    23   22   21 ar 
    24   21   20 ar 
    25   18   25 1  
    26   18   26 1  
    27   20   27 1  
    28   21   28 1  
    29   22   29 1  
    30   23   30 1  
    31   24   31 1  
    32   12   18 1  
    33   32   33 1  
    34    5   32 1  
    35   35   34 1  
    36   34   41 1  
    37   36   35 2  
    38   42   36 1  
    39   37   38 ar 
    40   37   42 ar 
    41   38   39 ar 
    42   39   40 ar 
    43   40   41 ar 
    44   41   42 ar 
    45   34   43 1  
    46   38   44 1  
    47   39   45 1  
    48   40   46 1  
    49   15   37 1  
    50   47   48 1  
    51   47   49 1  
    52   47   50 1  
    53   49   51 1  
    54   35   47 1  
# Name:          No_7_3
# Creation time: Thu Mar 21 15:43:53 2024


@<TRIPOS>MOLECULE
000001_000003
   51    54     1     1     1
SMALL
USER_CHARGES


@<TRIPOS>ATOM
      1 C9         51.5330  156.6540   29.1670 C.ar       1 <1>        0.170
      2 C10        51.0810  155.3840   29.3060 C.ar       1 <1>        0.240
      3 C11        51.5320  154.3980   28.4740 C.ar       1 <1>        0.240
      4 C14        52.4340  156.8960   28.1560 C.ar       1 <1>        0.230
      5 C13        52.8680  155.8980   27.2900 C.ar       1 <1>        0.110
      6 C12        52.4150  154.6130   27.4780 C.ar       1 <1>        0.210
      7 H          50.3592  155.1490   30.0798 H          1 <1>        0.000
      8 H          51.1599  153.3908   28.6230 H          1 <1>        0.000
      9 H          52.8200  157.9011   28.0300 H          1 <1>        0.000
     10 C1         52.7940  153.3950   26.6700 C.2        1 <1>        0.100
     11 O1         52.9490  152.3490   27.2810 O.2        1 <1>        0.530
     12 N1         52.9470  153.4920   25.3330 N.am       1 <1>        0.050
     13 H2         52.8110  154.3679   24.8701 H          1 <1>        0.000
     14 C1         50.9980  157.7530   30.0790 C.3        1 <1>        0.010
     15 O3         50.7030  158.9160   29.3010 O.3        1 <1>        0.080
     16 H4         51.7551  158.0020   30.8371 H          1 <1>        0.000
     17 H5         50.0815  157.4028   30.5763 H          1 <1>        0.000
     18 C1         53.3110  152.3240   24.5540 C.3        1 <1>       -0.020
     19 C2         54.8100  152.3480   24.2730 C.ar       1 <1>        0.140
     20 C3         55.2730  152.3740   22.9540 C.ar       1 <1>        0.200
     21 C4         56.6470  152.3950   22.6970 C.ar       1 <1>        0.210
     22 C5         57.5580  152.3900   23.7580 C.ar       1 <1>        0.150
     23 C6         57.0940  152.3640   25.0770 C.ar       1 <1>        0.230
     24 C7         55.7200  152.3430   25.3340 C.ar       1 <1>        0.200
     25 H1         52.7592  152.3320   23.6024 H          1 <1>        0.000
     26 H3         53.0570  151.4138   25.1171 H          1 <1>        0.000
     27 H4         54.5673  152.3770   22.1312 H          1 <1>        0.000
     28 H5         57.0068  152.4150   21.6746 H          1 <1>        0.000
     29 H6         58.6233  152.4060   23.5580 H          1 <1>        0.000
     30 H7         57.8003  152.3600   25.8993 H          1 <1>        0.000
     31 H8         55.3602  152.3230   26.3564 H          1 <1>        0.000
     32 O1         53.7440  156.1940   26.2530 O.3        1 <1>        0.080
     33 H2         53.8660  157.1347   26.3050 H          1 <1>        0.000
     34 N1         51.6810  162.5750   31.9590 N.pl3      1 <1>        0.130
     35 C1         52.7240  162.0110   31.4080 C.2        1 <1>        0.060
     36 N2         52.3870  161.0160   30.6930 N.2        1 <1>        0.280
     37 C2         50.2140  159.9260   30.1210 C.ar       1 <1>        0.060
     38 C3         48.8470  160.0800   30.3950 C.ar       1 <1>        0.210
     39 C4         48.3740  161.1070   31.2300 C.ar       1 <1>        0.220
     40 C5         49.2440  162.0300   31.8300 C.ar       1 <1>        0.200
     41 C6         50.6000  161.8700   31.5510 C.ar       1 <1>        0.020
     42 C7         51.0570  160.8540   30.7270 C.ar       1 <1>        0.100
     43 H1         51.6820  163.3951   32.5821 H          1 <1>        0.000
     44 H4         48.1405  159.3885   29.9503 H          1 <1>        0.000
     45 H5         47.3095  161.1900   31.4171 H          1 <1>        0.000
     46 H6         48.8870  162.8240   32.4760 H          1 <1>        0.000
     47 C1         54.1420  162.4670   31.5870 C.3        1 <1>        0.060
     48 H2         54.1530  163.4326   32.1138 H          1 <1>        0.000
     49 O3         54.8620  161.4980   32.3530 O.3        1 <1>        0.580
     50 H4         54.6172  162.5820   30.6016 H          1 <1>        0.000
     51 H6         54.8570  160.6604   31.9047 H          1 <1>        0.000
@<TRIPOS>BOND
     1    5    6 ar 
     2    5    4 ar 
     3    6    3 ar 
     4    4    1 ar 
     5    3    2 ar 
     6    1    2 ar 
     7    2    7 1  
     8    3    8 1  
     9    4    9 1  
    10   10   11 2  
    11   10   12 am 
    12   12   13 1  
    13    6   10 1  
    14   14   15 1  
    15   14   16 1  
    16   14   17 1  
    17    1   14 1  
    18   18   19 1  
    19   19   20 ar 
    20   19   24 ar 
    21   24   23 ar 
    22   23   22 ar 
    23   22   21 ar 
    24   21   20 ar 
    25   18   25 1  
    26   18   26 1  
    27   20   27 1  
    28   21   28 1  
    29   22   29 1  
    30   23   30 1  
    31   24   31 1  
    32   12   18 1  
    33   32   33 1  
    34    5   32 1  
    35   35   34 1  
    36   34   41 1  
    37   36   35 2  
    38   42   36 1  
    39   37   38 ar 
    40   37   42 ar 
    41   38   39 ar 
    42   39   40 ar 
    43   40   41 ar 
    44   41   42 ar 
    45   34   43 1  
    46   38   44 1  
    47   39   45 1  
    48   40   46 1  
    49   15   37 1  
    50   47   48 1  
    51   47   49 1  
    52   47   50 1  
    53   49   51 1  
    54   35   47 1  
# Name:          No_6_126
# Creation time: Thu Mar 21 15:43:53 2024


@<TRIPOS>MOLECULE
000001_000004
   51    54     1     1     1
SMALL
USER_CHARGES


@<TRIPOS>ATOM
      1 C9         51.5330  156.6540   29.1670 C.ar       1 <1>        0.170
      2 C10        51.0810  155.3840   29.3060 C.ar       1 <1>        0.240
      3 C11        51.5320  154.3980   28.4740 C.ar       1 <1>        0.240
      4 C14        52.4340  156.8960   28.1560 C.ar       1 <1>        0.230
      5 C13        52.8680  155.8980   27.2900 C.ar       1 <1>        0.110
      6 C12        52.4150  154.6130   27.4780 C.ar       1 <1>        0.210
      7 H          50.3592  155.1490   30.0798 H          1 <1>        0.000
      8 H          51.1599  153.3908   28.6230 H          1 <1>        0.000
      9 H          52.8200  157.9011   28.0300 H          1 <1>        0.000
     10 C1         52.7940  153.3950   26.6700 C.2        1 <1>        0.100
     11 O1         52.9490  152.3490   27.2810 O.2        1 <1>        0.530
     12 N1         52.9470  153.4920   25.3330 N.am       1 <1>        0.050
     13 H2         52.8110  154.3679   24.8701 H          1 <1>        0.000
     14 C1         50.9980  157.7530   30.0790 C.3        1 <1>        0.010
     15 O3         50.7030  158.9160   29.3010 O.3        1 <1>        0.080
     16 H4         51.7551  158.0020   30.8371 H          1 <1>        0.000
     17 H5         50.0815  157.4028   30.5763 H          1 <1>        0.000
     18 C1         53.3110  152.3240   24.5540 C.3        1 <1>       -0.020
     19 C2         54.8100  152.3480   24.2730 C.ar       1 <1>        0.140
     20 C3         55.2730  152.3740   22.9540 C.ar       1 <1>        0.200
     21 C4         56.6470  152.3950   22.6970 C.ar       1 <1>        0.210
     22 C5         57.5580  152.3900   23.7580 C.ar       1 <1>        0.150
     23 C6         57.0940  152.3640   25.0770 C.ar       1 <1>        0.230
     24 C7         55.7200  152.3430   25.3340 C.ar       1 <1>        0.200
     25 H1         52.7592  152.3320   23.6024 H          1 <1>        0.000
     26 H3         53.0570  151.4138   25.1171 H          1 <1>        0.000
     27 H4         54.5673  152.3770   22.1312 H          1 <1>        0.000
     28 H5         57.0068  152.4150   21.6746 H          1 <1>        0.000
     29 H6         58.6233  152.4060   23.5580 H          1 <1>        0.000
     30 H7         57.8003  152.3600   25.8993 H          1 <1>        0.000
     31 H8         55.3602  152.3230   26.3564 H          1 <1>        0.000
     32 O1         53.7440  156.1940   26.2530 O.3        1 <1>        0.080
     33 H2         53.8660  157.1347   26.3050 H          1 <1>        0.000
     34 N1         51.6810  162.5750   31.9590 N.pl3      1 <1>        0.130
     35 C1         52.7240  162.0110   31.4080 C.2        1 <1>        0.060
     36 N2         52.3870  161.0160   30.6930 N.2        1 <1>        0.280
     37 C2         50.2140  159.9260   30.1210 C.ar       1 <1>        0.060
     38 C3         48.8470  160.0800   30.3950 C.ar       1 <1>        0.210
     39 C4         48.3740  161.1070   31.2300 C.ar       1 <1>        0.220
     40 C5         49.2440  162.0300   31.8300 C.ar       1 <1>        0.200
     41 C6         50.6000  161.8700   31.5510 C.ar       1 <1>        0.020
     42 C7         51.0570  160.8540   30.7270 C.ar       1 <1>        0.100
     43 H1         51.6820  163.3951   32.5821 H          1 <1>        0.000
     44 H4         48.1405  159.3885   29.9503 H          1 <1>        0.000
     45 H5         47.3095  161.1900   31.4171 H          1 <1>        0.000
     46 H6         48.8870  162.8240   32.4760 H          1 <1>        0.000
     47 C1         54.1420  162.4670   31.5870 C.3        1 <1>        0.060
     48 H2         54.1530  163.4326   32.1138 H          1 <1>        0.000
     49 O3         54.8620  161.4980   32.3530 O.3        1 <1>        0.580
     50 H4         54.6172  162.5820   30.6016 H          1 <1>        0.000
     51 H6         54.8570  160.6604   31.9047 H          1 <1>        0.000
@<TRIPOS>BOND
     1    5    6 ar 
     2    5    4 ar 
     3    6    3 ar 
     4    4    1 ar 
     5    3    2 ar 
     6    1    2 ar 
     7    2    7 1  
     8    3    8 1  
     9    4    9 1  
    10   10   11 2  
    11   10   12 am 
    12   12   13 1  
    13    6   10 1  
    14   14   15 1  
    15   14   16 1  
    16   14   17 1  
    17    1   14 1  
    18   18   19 1  
    19   19   20 ar 
    20   19   24 ar 
    21   24   23 ar 
    22   23   22 ar 
    23   22   21 ar 
    24   21   20 ar 
    25   18   25 1  
    26   18   26 1  
    27   20   27 1  
    28   21   28 1  
    29   22   29 1  
    30   23   30 1  
    31   24   31 1  
    32   12   18 1  
    33   32   33 1  
    34    5   32 1  
    35   35   34 1  
    36   34   41 1  
    37   36   35 2  
    38   42   36 1  
    39   37   38 ar 
    40   37   42 ar 
    41   38   39 ar 
    42   39   40 ar 
    43   40   41 ar 
    44   41   42 ar 
    45   34   43 1  
    46   38   44 1  
    47   39   45 1  
    48   40   46 1  
    49   15   37 1  
    50   47   48 1  
    51   47   49 1  
    52   47   50 1  
    53   49   51 1  
    54   35   47 1  
# Name:          No_7_2
# Creation time: Thu Mar 21 15:43:53 2024


@<TRIPOS>MOLECULE
000001_000005
   51    54     1     1     1
SMALL
USER_CHARGES


@<TRIPOS>ATOM
      1 C9         51.5330  156.6540   29.1670 C.ar       1 <1>        0.170
      2 C10        51.0810  155.3840   29.3060 C.ar       1 <1>        0.240
      3 C11        51.5320  154.3980   28.4740 C.ar       1 <1>        0.240
      4 C14        52.4340  156.8960   28.1560 C.ar       1 <1>        0.230
      5 C13        52.8680  155.8980   27.2900 C.ar       1 <1>        0.110
      6 C12        52.4150  154.6130   27.4780 C.ar       1 <1>        0.210
      7 H          50.3592  155.1490   30.0798 H          1 <1>        0.000
      8 H          51.1599  153.3908   28.6230 H          1 <1>        0.000
      9 H          52.8200  157.9011   28.0300 H          1 <1>        0.000
     10 C1         52.7940  153.3950   26.6700 C.2        1 <1>        0.100
     11 O1         52.9490  152.3490   27.2810 O.2        1 <1>        0.530
     12 N1         52.9470  153.4920   25.3330 N.am       1 <1>        0.050
     13 H2         52.8110  154.3679   24.8701 H          1 <1>        0.000
     14 C1         50.9980  157.7530   30.0790 C.3        1 <1>        0.010
     15 O3         50.7030  158.9160   29.3010 O.3        1 <1>        0.080
     16 H4         51.7551  158.0020   30.8371 H          1 <1>        0.000
     17 H5         50.0815  157.4028   30.5763 H          1 <1>        0.000
     18 C1         53.3110  152.3240   24.5540 C.3        1 <1>       -0.020
     19 C2         54.8100  152.3480   24.2730 C.ar       1 <1>        0.140
     20 C3         55.2730  152.3740   22.9540 C.ar       1 <1>        0.200
     21 C4         56.6470  152.3950   22.6970 C.ar       1 <1>        0.210
     22 C5         57.5580  152.3900   23.7580 C.ar       1 <1>        0.150
     23 C6         57.0940  152.3640   25.0770 C.ar       1 <1>        0.230
     24 C7         55.7200  152.3430   25.3340 C.ar       1 <1>        0.200
     25 H1         52.7592  152.3320   23.6024 H          1 <1>        0.000
     26 H3         53.0570  151.4138   25.1171 H          1 <1>        0.000
     27 H4         54.5673  152.3770   22.1312 H          1 <1>        0.000
     28 H5         57.0068  152.4150   21.6746 H          1 <1>        0.000
     29 H6         58.6233  152.4060   23.5580 H          1 <1>        0.000
     30 H7         57.8003  152.3600   25.8993 H          1 <1>        0.000
     31 H8         55.3602  152.3230   26.3564 H          1 <1>        0.000
     32 O1         53.7440  156.1940   26.2530 O.3        1 <1>        0.080
     33 H2         53.8660  157.1347   26.3050 H          1 <1>        0.000
     34 N1         51.6810  162.5750   31.9590 N.pl3      1 <1>        0.130
     35 C1         52.7240  162.0110   31.4080 C.2        1 <1>        0.060
     36 N2         52.3870  161.0160   30.6930 N.2        1 <1>        0.280
     37 C2         50.2140  159.9260   30.1210 C.ar       1 <1>        0.060
     38 C3         48.8470  160.0800   30.3950 C.ar       1 <1>        0.210
     39 C4         48.3740  161.1070   31.2300 C.ar       1 <1>        0.220
     40 C5         49.2440  162.0300   31.8300 C.ar       1 <1>        0.200
     41 C6         50.6000  161.8700   31.5510 C.ar       1 <1>        0.020
     42 C7         51.0570  160.8540   30.7270 C.ar       1 <1>        0.100
     43 H1         51.6820  163.3951   32.5821 H          1 <1>        0.000
     44 H4         48.1405  159.3885   29.9503 H          1 <1>        0.000
     45 H5         47.3095  161.1900   31.4171 H          1 <1>        0.000
     46 H6         48.8870  162.8240   32.4760 H          1 <1>        0.000
     47 C1         54.1420  162.4670   31.5870 C.3        1 <1>        0.060
     48 H2         54.2000  163.1569   32.4418 H          1 <1>        0.000
     49 O3         54.9800  161.3350   31.8310 O.3        1 <1>        0.570
     50 H4         54.4789  162.9838   30.6763 H          1 <1>        0.000
     51 H6         54.9360  160.7343   31.0964 H          1 <1>        0.000
@<TRIPOS>BOND
     1    5    6 ar 
     2    5    4 ar 
     3    6    3 ar 
     4    4    1 ar 
     5    3    2 ar 
     6    1    2 ar 
     7    2    7 1  
     8    3    8 1  
     9    4    9 1  
    10   10   11 2  
    11   10   12 am 
    12   12   13 1  
    13    6   10 1  
    14   14   15 1  
    15   14   16 1  
    16   14   17 1  
    17    1   14 1  
    18   18   19 1  
    19   19   20 ar 
    20   19   24 ar 
    21   24   23 ar 
    22   23   22 ar 
    23   22   21 ar 
    24   21   20 ar 
    25   18   25 1  
    26   18   26 1  
    27   20   27 1  
    28   21   28 1  
    29   22   29 1  
    30   23   30 1  
    31   24   31 1  
    32   12   18 1  
    33   32   33 1  
    34    5   32 1  
    35   35   34 1  
    36   34   41 1  
    37   36   35 2  
    38   42   36 1  
    39   37   38 ar 
    40   37   42 ar 
    41   38   39 ar 
    42   39   40 ar 
    43   40   41 ar 
    44   41   42 ar 
    45   34   43 1  
    46   38   44 1  
    47   39   45 1  
    48   40   46 1  
    49   15   37 1  
    50   47   48 1  
    51   47   49 1  
    52   47   50 1  
    53   49   51 1  
    54   35   47 1  
# Name:          No_6_127
# Creation time: Thu Mar 21 15:43:53 2024


@<TRIPOS>MOLECULE
000001_000006
   51    54     1     1     1
SMALL
USER_CHARGES


@<TRIPOS>ATOM
      1 C9         51.5330  156.6540   29.1670 C.ar       1 <1>        0.170
      2 C10        51.0810  155.3840   29.3060 C.ar       1 <1>        0.240
      3 C11        51.5320  154.3980   28.4740 C.ar       1 <1>        0.240
      4 C14        52.4340  156.8960   28.1560 C.ar       1 <1>        0.230
      5 C13        52.8680  155.8980   27.2900 C.ar       1 <1>        0.110
      6 C12        52.4150  154.6130   27.4780 C.ar       1 <1>        0.210
      7 H          50.3592  155.1490   30.0798 H          1 <1>        0.000
      8 H          51.1599  153.3908   28.6230 H          1 <1>        0.000
      9 H          52.8200  157.9011   28.0300 H          1 <1>        0.000
     10 C1         52.7940  153.3950   26.6700 C.2        1 <1>        0.100
     11 O1         52.9490  152.3490   27.2810 O.2        1 <1>        0.530
     12 N1         52.9470  153.4920   25.3330 N.am       1 <1>        0.050
     13 H2         52.8110  154.3679   24.8701 H          1 <1>        0.000
     14 C1         50.9980  157.7530   30.0790 C.3        1 <1>        0.010
     15 O3         50.7030  158.9160   29.3010 O.3        1 <1>        0.080
     16 H4         51.7551  158.0020   30.8371 H          1 <1>        0.000
     17 H5         50.0815  157.4028   30.5763 H          1 <1>        0.000
     18 C1         53.3110  152.3240   24.5540 C.3        1 <1>       -0.020
     19 C2         54.8100  152.3480   24.2730 C.ar       1 <1>        0.140
     20 C3         55.2730  152.3740   22.9540 C.ar       1 <1>        0.200
     21 C4         56.6470  152.3950   22.6970 C.ar       1 <1>        0.210
     22 C5         57.5580  152.3900   23.7580 C.ar       1 <1>        0.150
     23 C6         57.0940  152.3640   25.0770 C.ar       1 <1>        0.230
     24 C7         55.7200  152.3430   25.3340 C.ar       1 <1>        0.200
     25 H1         52.7592  152.3320   23.6024 H          1 <1>        0.000
     26 H3         53.0570  151.4138   25.1171 H          1 <1>        0.000
     27 H4         54.5673  152.3770   22.1312 H          1 <1>        0.000
     28 H5         57.0068  152.4150   21.6746 H          1 <1>        0.000
     29 H6         58.6233  152.4060   23.5580 H          1 <1>        0.000
     30 H7         57.8003  152.3600   25.8993 H          1 <1>        0.000
     31 H8         55.3602  152.3230   26.3564 H          1 <1>        0.000
     32 O1         53.7440  156.1940   26.2530 O.3        1 <1>        0.080
     33 H2         53.8660  157.1347   26.3050 H          1 <1>        0.000
     34 N1         51.6810  162.5750   31.9590 N.pl3      1 <1>        0.130
     35 C1         52.7240  162.0110   31.4080 C.2        1 <1>        0.060
     36 N2         52.3870  161.0160   30.6930 N.2        1 <1>        0.280
     37 C2         50.2140  159.9260   30.1210 C.ar       1 <1>        0.060
     38 C3         48.8470  160.0800   30.3950 C.ar       1 <1>        0.210
     39 C4         48.3740  161.1070   31.2300 C.ar       1 <1>        0.220
     40 C5         49.2440  162.0300   31.8300 C.ar       1 <1>        0.200
     41 C6         50.6000  161.8700   31.5510 C.ar       1 <1>        0.020
     42 C7         51.0570  160.8540   30.7270 C.ar       1 <1>        0.100
     43 H1         51.6820  163.3951   32.5821 H          1 <1>        0.000
     44 H4         48.1405  159.3885   29.9503 H          1 <1>        0.000
     45 H5         47.3095  161.1900   31.4171 H          1 <1>        0.000
     46 H6         48.8870  162.8240   32.4760 H          1 <1>        0.000
     47 C1         54.1420  162.4670   31.5870 C.3        1 <1>        0.060
     48 H2         54.2000  163.1569   32.4418 H          1 <1>        0.000
     49 O3         54.9800  161.3350   31.8310 O.3        1 <1>        0.570
     50 H4         54.4789  162.9838   30.6763 H          1 <1>        0.000
     51 H6         54.9360  160.7343   31.0964 H          1 <1>        0.000
@<TRIPOS>BOND
     1    5    6 ar 
     2    5    4 ar 
     3    6    3 ar 
     4    4    1 ar 
     5    3    2 ar 
     6    1    2 ar 
     7    2    7 1  
     8    3    8 1  
     9    4    9 1  
    10   10   11 2  
    11   10   12 am 
    12   12   13 1  
    13    6   10 1  
    14   14   15 1  
    15   14   16 1  
    16   14   17 1  
    17    1   14 1  
    18   18   19 1  
    19   19   20 ar 
    20   19   24 ar 
    21   24   23 ar 
    22   23   22 ar 
    23   22   21 ar 
    24   21   20 ar 
    25   18   25 1  
    26   18   26 1  
    27   20   27 1  
    28   21   28 1  
    29   22   29 1  
    30   23   30 1  
    31   24   31 1  
    32   12   18 1  
    33   32   33 1  
    34    5   32 1  
    35   35   34 1  
    36   34   41 1  
    37   36   35 2  
    38   42   36 1  
    39   37   38 ar 
    40   37   42 ar 
    41   38   39 ar 
    42   39   40 ar 
    43   40   41 ar 
    44   41   42 ar 
    45   34   43 1  
    46   38   44 1  
    47   39   45 1  
    48   40   46 1  
    49   15   37 1  
    50   47   48 1  
    51   47   49 1  
    52   47   50 1  
    53   49   51 1  
    54   35   47 1  
# Name:          No_7_5
# Creation time: Thu Mar 21 15:43:53 2024


@<TRIPOS>MOLECULE
000001_000007
   51    54     1     1     1
SMALL
USER_CHARGES


@<TRIPOS>ATOM
      1 C9         51.5330  156.6540   29.1670 C.ar       1 <1>        0.170
      2 C10        51.0810  155.3840   29.3060 C.ar       1 <1>        0.240
      3 C11        51.5320  154.3980   28.4740 C.ar       1 <1>        0.240
      4 C14        52.4340  156.8960   28.1560 C.ar       1 <1>        0.230
      5 C13        52.8680  155.8980   27.2900 C.ar       1 <1>        0.110
      6 C12        52.4150  154.6130   27.4780 C.ar       1 <1>        0.210
      7 H          50.3592  155.1490   30.0798 H          1 <1>        0.000
      8 H          51.1599  153.3908   28.6230 H          1 <1>        0.000
      9 H          52.8200  157.9011   28.0300 H          1 <1>        0.000
     10 C1         52.7940  153.3950   26.6700 C.2        1 <1>        0.100
     11 O1         52.9490  152.3490   27.2810 O.2        1 <1>        0.530
     12 N1         52.9470  153.4920   25.3330 N.am       1 <1>        0.050
     13 H2         52.8110  154.3679   24.8701 H          1 <1>        0.000
     14 C1         50.9980  157.7530   30.0790 C.3        1 <1>        0.010
     15 O3         50.7030  158.9160   29.3010 O.3        1 <1>        0.080
     16 H4         51.7551  158.0020   30.8371 H          1 <1>        0.000
     17 H5         50.0815  157.4028   30.5763 H          1 <1>        0.000
     18 C1         53.3110  152.3240   24.5540 C.3        1 <1>       -0.020
     19 C2         54.8100  152.3480   24.2730 C.ar       1 <1>        0.140
     20 C3         55.2730  152.3740   22.9540 C.ar       1 <1>        0.200
     21 C4         56.6470  152.3950   22.6970 C.ar       1 <1>        0.210
     22 C5         57.5580  152.3900   23.7580 C.ar       1 <1>        0.150
     23 C6         57.0940  152.3640   25.0770 C.ar       1 <1>        0.230
     24 C7         55.7200  152.3430   25.3340 C.ar       1 <1>        0.200
     25 H1         52.7592  152.3320   23.6024 H          1 <1>        0.000
     26 H3         53.0570  151.4138   25.1171 H          1 <1>        0.000
     27 H4         54.5673  152.3770   22.1312 H          1 <1>        0.000
     28 H5         57.0068  152.4150   21.6746 H          1 <1>        0.000
     29 H6         58.6233  152.4060   23.5580 H          1 <1>        0.000
     30 H7         57.8003  152.3600   25.8993 H          1 <1>        0.000
     31 H8         55.3602  152.3230   26.3564 H          1 <1>        0.000
     32 O1         53.7440  156.1940   26.2530 O.3        1 <1>        0.080
     33 H2         53.8660  157.1347   26.3050 H          1 <1>        0.000
     34 N1         51.6810  162.5750   31.9590 N.pl3      1 <1>        0.130
     35 C1         52.7240  162.0110   31.4080 C.2        1 <1>        0.060
     36 N2         52.3870  161.0160   30.6930 N.2        1 <1>        0.280
     37 C2         50.2140  159.9260   30.1210 C.ar       1 <1>        0.060
     38 C3         48.8470  160.0800   30.3950 C.ar       1 <1>        0.210
     39 C4         48.3740  161.1070   31.2300 C.ar       1 <1>        0.220
     40 C5         49.2440  162.0300   31.8300 C.ar       1 <1>        0.200
     41 C6         50.6000  161.8700   31.5510 C.ar       1 <1>        0.020
     42 C7         51.0570  160.8540   30.7270 C.ar       1 <1>        0.100
     43 H1         51.6820  163.3951   32.5821 H          1 <1>        0.000
     44 H4         48.1405  159.3885   29.9503 H          1 <1>        0.000
     45 H5         47.3095  161.1900   31.4171 H          1 <1>        0.000
     46 H6         48.8870  162.8240   32.4760 H          1 <1>        0.000
     47 C1         54.1420  162.4670   31.5870 C.3        1 <1>        0.060
     48 H2         54.3280  162.6790   32.6502 H          1 <1>        0.000
     49 O3         55.0330  161.4410   31.1430 O.3        1 <1>        0.560
     50 H4         54.3109  163.3795   30.9963 H          1 <1>        0.000
     51 H6         54.8790  161.2520   30.2248 H          1 <1>        0.000
@<TRIPOS>BOND
     1    5    6 ar 
     2    5    4 ar 
     3    6    3 ar 
     4    4    1 ar 
     5    3    2 ar 
     6    1    2 ar 
     7    2    7 1  
     8    3    8 1  
     9    4    9 1  
    10   10   11 2  
    11   10   12 am 
    12   12   13 1  
    13    6   10 1  
    14   14   15 1  
    15   14   16 1  
    16   14   17 1  
    17    1   14 1  
    18   18   19 1  
    19   19   20 ar 
    20   19   24 ar 
    21   24   23 ar 
    22   23   22 ar 
    23   22   21 ar 
    24   21   20 ar 
    25   18   25 1  
    26   18   26 1  
    27   20   27 1  
    28   21   28 1  
    29   22   29 1  
    30   23   30 1  
    31   24   31 1  
    32   12   18 1  
    33   32   33 1  
    34    5   32 1  
    35   35   34 1  
    36   34   41 1  
    37   36   35 2  
    38   42   36 1  
    39   37   38 ar 
    40   37   42 ar 
    41   38   39 ar 
    42   39   40 ar 
    43   40   41 ar 
    44   41   42 ar 
    45   34   43 1  
    46   38   44 1  
    47   39   45 1  
    48   40   46 1  
    49   15   37 1  
    50   47   48 1  
    51   47   49 1  
    52   47   50 1  
    53   49   51 1  
    54   35   47 1  
# Name:          No_6_129
# Creation time: Thu Mar 21 15:43:53 2024


@<TRIPOS>MOLECULE
000001_000008
   51    54     1     1     1
SMALL
USER_CHARGES


@<TRIPOS>ATOM
      1 C9         51.5330  156.6540   29.1670 C.ar       1 <1>        0.170
      2 C10        51.0810  155.3840   29.3060 C.ar       1 <1>        0.240
      3 C11        51.5320  154.3980   28.4740 C.ar       1 <1>        0.240
      4 C14        52.4340  156.8960   28.1560 C.ar       1 <1>        0.230
      5 C13        52.8680  155.8980   27.2900 C.ar       1 <1>        0.110
      6 C12        52.4150  154.6130   27.4780 C.ar       1 <1>        0.210
      7 H          50.3592  155.1490   30.0798 H          1 <1>        0.000
      8 H          51.1599  153.3908   28.6230 H          1 <1>        0.000
      9 H          52.8200  157.9011   28.0300 H          1 <1>        0.000
     10 C1         52.7940  153.3950   26.6700 C.2        1 <1>        0.100
     11 O1         52.9490  152.3490   27.2810 O.2        1 <1>        0.530
     12 N1         52.9470  153.4920   25.3330 N.am       1 <1>        0.050
     13 H2         52.8110  154.3679   24.8701 H          1 <1>        0.000
     14 C1         50.9980  157.7530   30.0790 C.3        1 <1>        0.010
     15 O3         50.7030  158.9160   29.3010 O.3        1 <1>        0.080
     16 H4         51.7551  158.0020   30.8371 H          1 <1>        0.000
     17 H5         50.0815  157.4028   30.5763 H          1 <1>        0.000
     18 C1         53.3110  152.3240   24.5540 C.3        1 <1>       -0.020
     19 C2         54.8100  152.3480   24.2730 C.ar       1 <1>        0.140
     20 C3         55.2730  152.3740   22.9540 C.ar       1 <1>        0.200
     21 C4         56.6470  152.3950   22.6970 C.ar       1 <1>        0.210
     22 C5         57.5580  152.3900   23.7580 C.ar       1 <1>        0.150
     23 C6         57.0940  152.3640   25.0770 C.ar       1 <1>        0.230
     24 C7         55.7200  152.3430   25.3340 C.ar       1 <1>        0.200
     25 H1         52.7592  152.3320   23.6024 H          1 <1>        0.000
     26 H3         53.0570  151.4138   25.1171 H          1 <1>        0.000
     27 H4         54.5673  152.3770   22.1312 H          1 <1>        0.000
     28 H5         57.0068  152.4150   21.6746 H          1 <1>        0.000
     29 H6         58.6233  152.4060   23.5580 H          1 <1>        0.000
     30 H7         57.8003  152.3600   25.8993 H          1 <1>        0.000
     31 H8         55.3602  152.3230   26.3564 H          1 <1>        0.000
     32 O1         53.7440  156.1940   26.2530 O.3        1 <1>        0.080
     33 H2         53.8660  157.1347   26.3050 H          1 <1>        0.000
     34 N1         51.6810  162.5750   31.9590 N.pl3      1 <1>        0.130
     35 C1         52.7240  162.0110   31.4080 C.2        1 <1>        0.060
     36 N2         52.3870  161.0160   30.6930 N.2        1 <1>        0.280
     37 C2         50.2140  159.9260   30.1210 C.ar       1 <1>        0.060
     38 C3         48.8470  160.0800   30.3950 C.ar       1 <1>        0.210
     39 C4         48.3740  161.1070   31.2300 C.ar       1 <1>        0.220
     40 C5         49.2440  162.0300   31.8300 C.ar       1 <1>        0.200
     41 C6         50.6000  161.8700   31.5510 C.ar       1 <1>        0.020
     42 C7         51.0570  160.8540   30.7270 C.ar       1 <1>        0.100
     43 H1         51.6820  163.3951   32.5821 H          1 <1>        0.000
     44 H4         48.1405  159.3885   29.9503 H          1 <1>        0.000
     45 H5         47.3095  161.1900   31.4171 H          1 <1>        0.000
     46 H6         48.8870  162.8240   32.4760 H          1 <1>        0.000
     47 C1         54.1420  162.4670   31.5870 C.3        1 <1>        0.060
     48 H2         54.3280  162.6790   32.6502 H          1 <1>        0.000
     49 O3         55.0330  161.4410   31.1430 O.3        1 <1>        0.560
     50 H4         54.3109  163.3795   30.9963 H          1 <1>        0.000
     51 H6         54.8790  161.2520   30.2248 H          1 <1>        0.000
@<TRIPOS>BOND
     1    5    6 ar 
     2    5    4 ar 
     3    6    3 ar 
     4    4    1 ar 
     5    3    2 ar 
     6    1    2 ar 
     7    2    7 1  
     8    3    8 1  
     9    4    9 1  
    10   10   11 2  
    11   10   12 am 
    12   12   13 1  
    13    6   10 1  
    14   14   15 1  
    15   14   16 1  
    16   14   17 1  
    17    1   14 1  
    18   18   19 1  
    19   19   20 ar 
    20   19   24 ar 
    21   24   23 ar 
    22   23   22 ar 
    23   22   21 ar 
    24   21   20 ar 
    25   18   25 1  
    26   18   26 1  
    27   20   27 1  
    28   21   28 1  
    29   22   29 1  
    30   23   30 1  
    31   24   31 1  
    32   12   18 1  
    33   32   33 1  
    34    5   32 1  
    35   35   34 1  
    36   34   41 1  
    37   36   35 2  
    38   42   36 1  
    39   37   38 ar 
    40   37   42 ar 
    41   38   39 ar 
    42   39   40 ar 
    43   40   41 ar 
    44   41   42 ar 
    45   34   43 1  
    46   38   44 1  
    47   39   45 1  
    48   40   46 1  
    49   15   37 1  
    50   47   48 1  
    51   47   49 1  
    52   47   50 1  
    53   49   51 1  
    54   35   47 1  
# Name:          No_6_124
# Creation time: Thu Mar 21 15:43:53 2024


@<TRIPOS>MOLECULE
000001_000009
   51    54     1     1     1
SMALL
USER_CHARGES


@<TRIPOS>ATOM
      1 C9         51.5330  156.6540   29.1670 C.ar       1 <1>        0.170
      2 C10        51.0810  155.3840   29.3060 C.ar       1 <1>        0.240
      3 C11        51.5320  154.3980   28.4740 C.ar       1 <1>        0.240
      4 C14        52.4340  156.8960   28.1560 C.ar       1 <1>        0.230
      5 C13        52.8680  155.8980   27.2900 C.ar       1 <1>        0.110
      6 C12        52.4150  154.6130   27.4780 C.ar       1 <1>        0.210
      7 H          50.3592  155.1490   30.0798 H          1 <1>        0.000
      8 H          51.1599  153.3908   28.6230 H          1 <1>        0.000
      9 H          52.8200  157.9011   28.0300 H          1 <1>        0.000
     10 C1         52.7940  153.3950   26.6700 C.2        1 <1>        0.100
     11 O1         52.9490  152.3490   27.2810 O.2        1 <1>        0.530
     12 N1         52.9470  153.4920   25.3330 N.am       1 <1>        0.050
     13 H2         52.8110  154.3679   24.8701 H          1 <1>        0.000
     14 C1         50.9980  157.7530   30.0790 C.3        1 <1>        0.010
     15 O3         50.7030  158.9160   29.3010 O.3        1 <1>        0.080
     16 H4         51.7551  158.0020   30.8371 H          1 <1>        0.000
     17 H5         50.0815  157.4028   30.5763 H          1 <1>        0.000
     18 C1         53.3110  152.3240   24.5540 C.3        1 <1>       -0.020
     19 C2         54.8100  152.3480   24.2730 C.ar       1 <1>        0.140
     20 C3         55.2730  152.3740   22.9540 C.ar       1 <1>        0.200
     21 C4         56.6470  152.3950   22.6970 C.ar       1 <1>        0.210
     22 C5         57.5580  152.3900   23.7580 C.ar       1 <1>        0.150
     23 C6         57.0940  152.3640   25.0770 C.ar       1 <1>        0.230
     24 C7         55.7200  152.3430   25.3340 C.ar       1 <1>        0.200
     25 H1         52.7592  152.3320   23.6024 H          1 <1>        0.000
     26 H3         53.0570  151.4138   25.1171 H          1 <1>        0.000
     27 H4         54.5673  152.3770   22.1312 H          1 <1>        0.000
     28 H5         57.0068  152.4150   21.6746 H          1 <1>        0.000
     29 H6         58.6233  152.4060   23.5580 H          1 <1>        0.000
     30 H7         57.8003  152.3600   25.8993 H          1 <1>        0.000
     31 H8         55.3602  152.3230   26.3564 H          1 <1>        0.000
     32 O1         53.7440  156.1940   26.2530 O.3        1 <1>        0.080
     33 H2         53.8660  157.1347   26.3050 H          1 <1>        0.000
     34 N1         51.6810  162.5750   31.9590 N.pl3      1 <1>        0.130
     35 C1         52.7240  162.0110   31.4080 C.2        1 <1>        0.060
     36 N2         52.3870  161.0160   30.6930 N.2        1 <1>        0.280
     37 C2         50.2140  159.9260   30.1210 C.ar       1 <1>        0.060
     38 C3         48.8470  160.0800   30.3950 C.ar       1 <1>        0.210
     39 C4         48.3740  161.1070   31.2300 C.ar       1 <1>        0.220
     40 C5         49.2440  162.0300   31.8300 C.ar       1 <1>        0.200
     41 C6         50.6000  161.8700   31.5510 C.ar       1 <1>        0.020
     42 C7         51.0570  160.8540   30.7270 C.ar       1 <1>        0.100
     43 H1         51.6820  163.3951   32.5821 H          1 <1>        0.000
     44 H4         48.1405  159.3885   29.9503 H          1 <1>        0.000
     45 H5         47.3095  161.1900   31.4171 H          1 <1>        0.000
     46 H6         48.8870  162.8240   32.4760 H          1 <1>        0.000
     47 C1         54.1420  162.4670   31.5870 C.3        1 <1>        0.060
     48 H2         54.1990  163.5548   31.4340 H          1 <1>        0.000
     49 O3         54.5820  162.1480   32.9090 O.3        1 <1>        0.500
     50 H4         54.7862  161.9598   30.8537 H          1 <1>        0.000
     51 H6         54.5360  161.2097   33.0501 H          1 <1>        0.000
@<TRIPOS>BOND
     1    5    6 ar 
     2    5    4 ar 
     3    6    3 ar 
     4    4    1 ar 
     5    3    2 ar 
     6    1    2 ar 
     7    2    7 1  
     8    3    8 1  
     9    4    9 1  
    10   10   11 2  
    11   10   12 am 
    12   12   13 1  
    13    6   10 1  
    14   14   15 1  
    15   14   16 1  
    16   14   17 1  
    17    1   14 1  
    18   18   19 1  
    19   19   20 ar 
    20   19   24 ar 
    21   24   23 ar 
    22   23   22 ar 
    23   22   21 ar 
    24   21   20 ar 
    25   18   25 1  
    26   18   26 1  
    27   20   27 1  
    28   21   28 1  
    29   22   29 1  
    30   23   30 1  
    31   24   31 1  
    32   12   18 1  
    33   32   33 1  
    34    5   32 1  
    35   35   34 1  
    36   34   41 1  
    37   36   35 2  
    38   42   36 1  
    39   37   38 ar 
    40   37   42 ar 
    41   38   39 ar 
    42   39   40 ar 
    43   40   41 ar 
    44   41   42 ar 
    45   34   43 1  
    46   38   44 1  
    47   39   45 1  
    48   40   46 1  
    49   15   37 1  
    50   47   48 1  
    51   47   49 1  
    52   47   50 1  
    53   49   51 1  
    54   35   47 1  
# Name:          No_7_11
# Creation time: Thu Mar 21 15:43:53 2024


@<TRIPOS>MOLECULE
000001_000010
   51    54     1     1     1
SMALL
USER_CHARGES


@<TRIPOS>ATOM
      1 C9         51.5330  156.6540   29.1670 C.ar       1 <1>        0.170
      2 C10        51.0810  155.3840   29.3060 C.ar       1 <1>        0.240
      3 C11        51.5320  154.3980   28.4740 C.ar       1 <1>        0.240
      4 C14        52.4340  156.8960   28.1560 C.ar       1 <1>        0.230
      5 C13        52.8680  155.8980   27.2900 C.ar       1 <1>        0.110
      6 C12        52.4150  154.6130   27.4780 C.ar       1 <1>        0.210
      7 H          50.3592  155.1490   30.0798 H          1 <1>        0.000
      8 H          51.1599  153.3908   28.6230 H          1 <1>        0.000
      9 H          52.8200  157.9011   28.0300 H          1 <1>        0.000
     10 C1         52.7940  153.3950   26.6700 C.2        1 <1>        0.100
     11 O1         52.9490  152.3490   27.2810 O.2        1 <1>        0.530
     12 N1         52.9470  153.4920   25.3330 N.am       1 <1>        0.050
     13 H2         52.8110  154.3679   24.8701 H          1 <1>        0.000
     14 C1         50.9980  157.7530   30.0790 C.3        1 <1>        0.010
     15 O3         50.7030  158.9160   29.3010 O.3        1 <1>        0.080
     16 H4         51.7551  158.0020   30.8371 H          1 <1>        0.000
     17 H5         50.0815  157.4028   30.5763 H          1 <1>        0.000
     18 C1         53.3110  152.3240   24.5540 C.3        1 <1>       -0.020
     19 C2         54.8100  152.3480   24.2730 C.ar       1 <1>        0.140
     20 C3         55.2730  152.3740   22.9540 C.ar       1 <1>        0.200
     21 C4         56.6470  152.3950   22.6970 C.ar       1 <1>        0.210
     22 C5         57.5580  152.3900   23.7580 C.ar       1 <1>        0.150
     23 C6         57.0940  152.3640   25.0770 C.ar       1 <1>        0.230
     24 C7         55.7200  152.3430   25.3340 C.ar       1 <1>        0.200
     25 H1         52.7592  152.3320   23.6024 H          1 <1>        0.000
     26 H3         53.0570  151.4138   25.1171 H          1 <1>        0.000
     27 H4         54.5673  152.3770   22.1312 H          1 <1>        0.000
     28 H5         57.0068  152.4150   21.6746 H          1 <1>        0.000
     29 H6         58.6233  152.4060   23.5580 H          1 <1>        0.000
     30 H7         57.8003  152.3600   25.8993 H          1 <1>        0.000
     31 H8         55.3602  152.3230   26.3564 H          1 <1>        0.000
     32 O1         53.7440  156.1940   26.2530 O.3        1 <1>        0.080
     33 H2         53.8660  157.1347   26.3050 H          1 <1>        0.000
     34 N1         51.6810  162.5750   31.9590 N.pl3      1 <1>        0.130
     35 C1         52.7240  162.0110   31.4080 C.2        1 <1>        0.060
     36 N2         52.3870  161.0160   30.6930 N.2        1 <1>        0.280
     37 C2         50.2140  159.9260   30.1210 C.ar       1 <1>        0.060
     38 C3         48.8470  160.0800   30.3950 C.ar       1 <1>        0.210
     39 C4         48.3740  161.1070   31.2300 C.ar       1 <1>        0.220
     40 C5         49.2440  162.0300   31.8300 C.ar       1 <1>        0.200
     41 C6         50.6000  161.8700   31.5510 C.ar       1 <1>        0.020
     42 C7         51.0570  160.8540   30.7270 C.ar       1 <1>        0.100
     43 H1         51.6820  163.3951   32.5821 H          1 <1>        0.000
     44 H4         48.1405  159.3885   29.9503 H          1 <1>        0.000
     45 H5         47.3095  161.1900   31.4171 H          1 <1>        0.000
     46 H6         48.8870  162.8240   32.4760 H          1 <1>        0.000
     47 C1         54.1420  162.4670   31.5870 C.3        1 <1>        0.060
     48 H2         54.1990  163.5548   31.4340 H          1 <1>        0.000
     49 O3         54.5820  162.1480   32.9090 O.3        1 <1>        0.500
     50 H4         54.7862  161.9598   30.8537 H          1 <1>        0.000
     51 H6         54.5360  161.2097   33.0501 H          1 <1>        0.000
@<TRIPOS>BOND
     1    5    6 ar 
     2    5    4 ar 
     3    6    3 ar 
     4    4    1 ar 
     5    3    2 ar 
     6    1    2 ar 
     7    2    7 1  
     8    3    8 1  
     9    4    9 1  
    10   10   11 2  
    11   10   12 am 
    12   12   13 1  
    13    6   10 1  
    14   14   15 1  
    15   14   16 1  
    16   14   17 1  
    17    1   14 1  
    18   18   19 1  
    19   19   20 ar 
    20   19   24 ar 
    21   24   23 ar 
    22   23   22 ar 
    23   22   21 ar 
    24   21   20 ar 
    25   18   25 1  
    26   18   26 1  
    27   20   27 1  
    28   21   28 1  
    29   22   29 1  
    30   23   30 1  
    31   24   31 1  
    32   12   18 1  
    33   32   33 1  
    34    5   32 1  
    35   35   34 1  
    36   34   41 1  
    37   36   35 2  
    38   42   36 1  
    39   37   38 ar 
    40   37   42 ar 
    41   38   39 ar 
    42   39   40 ar 
    43   40   41 ar 
    44   41   42 ar 
    45   34   43 1  
    46   38   44 1  
    47   39   45 1  
    48   40   46 1  
    49   15   37 1  
    50   47   48 1  
    51   47   49 1  
    52   47   50 1  
    53   49   51 1  
    54   35   47 1 
# Name:          No_6_99
# Creation time: Thu Mar 21 15:49:10 2024


@<TRIPOS>MOLECULE
000001_000001
   35    36     1     1     1
SMALL
USER_CHARGES


@<TRIPOS>ATOM
      1 C9         51.5330  156.6540   29.1670 C.ar       1 <1>        0.170
      2 C10        51.0810  155.3840   29.3060 C.ar       1 <1>        0.240
      3 C11        51.5320  154.3980   28.4740 C.ar       1 <1>        0.240
      4 C14        52.4340  156.8960   28.1560 C.ar       1 <1>        0.230
      5 C13        52.8680  155.8980   27.2900 C.ar       1 <1>        0.220
      6 C12        52.4150  154.6130   27.4780 C.ar       1 <1>        0.210
      7 H          50.3592  155.1490   30.0798 H          1 <1>        0.000
      8 H          51.1599  153.3908   28.6230 H          1 <1>        0.000
      9 H          52.8200  157.9011   28.0300 H          1 <1>        0.000
     10 H          53.5512  156.1291   26.4808 H          1 <1>        0.000
     11 O1         52.5890  152.1440   27.1330 O.3        1 <1>        0.690
     12 C1         53.0460  151.3440   26.1510 C.2        1 <1>        0.040
     13 N1         53.4710  152.0800   25.2140 N.2        1 <1>        0.090
     14 C2         53.3490  153.4850   25.4610 C.2        1 <1>        0.050
     15 C3         52.7940  153.3950   26.6700 C.2        1 <1>        0.100
     16 C1         53.0490  149.8430   26.1650 C.3        1 <1>       -0.100
     17 O3         51.7110  149.3620   26.0130 O.3        1 <1>        0.790
     18 H4         53.4599  149.4860   27.1209 H          1 <1>        0.000
     19 H5         53.6692  149.4699   25.3367 H          1 <1>        0.000
     20 H6         51.7040  148.4121   26.0210 H          1 <1>        0.000
     21 C1         50.9980  157.7530   30.0790 C.3        1 <1>        0.010
     22 H2         49.9806  157.4939   30.4071 H          1 <1>        0.000
     23 H4         51.6530  157.8530   30.9570 H          1 <1>        0.000
     24 C1         53.7270  154.6710   24.6220 C.3        1 <1>        0.060
     25 H2         52.9579  155.4511   24.7220 H          1 <1>        0.000
     26 O3         54.9870  155.1840   25.0620 O.3        1 <1>        0.490
     27 H4         53.8040  154.3651   23.5682 H          1 <1>        0.000
     28 H6         55.6572  154.5158   24.9790 H          1 <1>        0.000
     29 N1         51.9770  160.0210   29.8500 N.4        1 <1>        1.050
     30 C1         50.9650  159.0870   29.3090 C.3        1 <1>       -0.010
     31 H2         51.9670  160.8997   29.3562 H          1 <1>        0.000
     32 H3         51.8109  160.2191   30.8243 H          1 <1>        0.000
     33 H6         51.1601  158.8809   28.2463 H          1 <1>        0.000
     34 H7         49.9567  159.5167   29.4019 H          1 <1>        0.000
     35 H1         52.9070  159.6400   29.7720 H          1 <1>        0.000
@<TRIPOS>BOND
     1    5    6 ar 
     2    5    4 ar 
     3    6    3 ar 
     4    4    1 ar 
     5    3    2 ar 
     6    1    2 ar 
     7    2    7 1  
     8    3    8 1  
     9    4    9 1  
    10    5   10 1  
    11   11   12 1  
    12   11   15 1  
    13   12   13 2  
    14   13   14 1  
    15   14   15 2  
    16    6   15 1  
    17   16   17 1  
    18   16   18 1  
    19   16   19 1  
    20   17   20 1  
    21   12   16 1  
    22   21   22 1  
    23   21   23 1  
    24    1   21 1  
    25   24   25 1  
    26   24   26 1  
    27   24   27 1  
    28   26   28 1  
    29   14   24 1  
    30   29   30 1  
    31   29   31 1  
    32   29   32 1  
    33   30   33 1  
    34   30   34 1  
    35   29   35 1  
    36   21   30 1  
# Name:          No_7_2
# Creation time: Thu Mar 21 15:49:10 2024


@<TRIPOS>MOLECULE
000001_000002
   35    36     1     1     1
SMALL
USER_CHARGES


@<TRIPOS>ATOM
      1 C9         51.5330  156.6540   29.1670 C.ar       1 <1>        0.170
      2 C10        51.0810  155.3840   29.3060 C.ar       1 <1>        0.240
      3 C11        51.5320  154.3980   28.4740 C.ar       1 <1>        0.240
      4 C14        52.4340  156.8960   28.1560 C.ar       1 <1>        0.230
      5 C13        52.8680  155.8980   27.2900 C.ar       1 <1>        0.220
      6 C12        52.4150  154.6130   27.4780 C.ar       1 <1>        0.210
      7 H          50.3592  155.1490   30.0798 H          1 <1>        0.000
      8 H          51.1599  153.3908   28.6230 H          1 <1>        0.000
      9 H          52.8200  157.9011   28.0300 H          1 <1>        0.000
     10 H          53.5512  156.1291   26.4808 H          1 <1>        0.000
     11 O1         52.5890  152.1440   27.1330 O.3        1 <1>        0.690
     12 C1         53.0460  151.3440   26.1510 C.2        1 <1>        0.040
     13 N1         53.4710  152.0800   25.2140 N.2        1 <1>        0.090
     14 C2         53.3490  153.4850   25.4610 C.2        1 <1>        0.050
     15 C3         52.7940  153.3950   26.6700 C.2        1 <1>        0.100
     16 C1         53.0490  149.8430   26.1650 C.3        1 <1>       -0.100
     17 O3         51.7110  149.3620   26.0130 O.3        1 <1>        0.790
     18 H4         53.4599  149.4860   27.1209 H          1 <1>        0.000
     19 H5         53.6692  149.4699   25.3367 H          1 <1>        0.000
     20 H6         51.7040  148.4121   26.0210 H          1 <1>        0.000
     21 C1         50.9980  157.7530   30.0790 C.3        1 <1>        0.010
     22 H2         49.9806  157.4939   30.4071 H          1 <1>        0.000
     23 H4         51.6530  157.8530   30.9570 H          1 <1>        0.000
     24 C1         53.7270  154.6710   24.6220 C.3        1 <1>        0.060
     25 H2         52.9579  155.4511   24.7220 H          1 <1>        0.000
     26 O3         54.9870  155.1840   25.0620 O.3        1 <1>        0.490
     27 H4         53.8040  154.3651   23.5682 H          1 <1>        0.000
     28 H6         55.6572  154.5158   24.9790 H          1 <1>        0.000
     29 N1         51.9770  160.0210   29.8500 N.4        1 <1>        1.050
     30 C1         50.9650  159.0870   29.3090 C.3        1 <1>       -0.010
     31 H2         51.9670  160.8997   29.3562 H          1 <1>        0.000
     32 H3         51.8109  160.2191   30.8243 H          1 <1>        0.000
     33 H6         51.1601  158.8809   28.2463 H          1 <1>        0.000
     34 H7         49.9567  159.5167   29.4019 H          1 <1>        0.000
     35 H1         52.9070  159.6400   29.7720 H          1 <1>        0.000
@<TRIPOS>BOND
     1    5    6 ar 
     2    5    4 ar 
     3    6    3 ar 
     4    4    1 ar 
     5    3    2 ar 
     6    1    2 ar 
     7    2    7 1  
     8    3    8 1  
     9    4    9 1  
    10    5   10 1  
    11   11   12 1  
    12   11   15 1  
    13   12   13 2  
    14   13   14 1  
    15   14   15 2  
    16    6   15 1  
    17   16   17 1  
    18   16   18 1  
    19   16   19 1  
    20   17   20 1  
    21   12   16 1  
    22   21   22 1  
    23   21   23 1  
    24    1   21 1  
    25   24   25 1  
    26   24   26 1  
    27   24   27 1  
    28   26   28 1  
    29   14   24 1  
    30   29   30 1  
    31   29   31 1  
    32   29   32 1  
    33   30   33 1  
    34   30   34 1  
    35   29   35 1  
    36   21   30 1  
# Name:          No_7_27
# Creation time: Thu Mar 21 15:49:10 2024


@<TRIPOS>MOLECULE
000001_000003
   30    31     1     1     1
SMALL
USER_CHARGES


@<TRIPOS>ATOM
      1 C9         51.5330  156.6540   29.1670 C.ar       1 <1>        0.170
      2 C10        51.0810  155.3840   29.3060 C.ar       1 <1>        0.240
      3 C11        51.5320  154.3980   28.4740 C.ar       1 <1>        0.240
      4 C14        52.4340  156.8960   28.1560 C.ar       1 <1>        0.230
      5 C13        52.8680  155.8980   27.2900 C.ar       1 <1>        0.220
      6 C12        52.4150  154.6130   27.4780 C.ar       1 <1>        0.210
      7 H          50.3592  155.1490   30.0798 H          1 <1>        0.000
      8 H          51.1599  153.3908   28.6230 H          1 <1>        0.000
      9 H          52.8200  157.9011   28.0300 H          1 <1>        0.000
     10 H          53.5512  156.1291   26.4808 H          1 <1>        0.000
     11 O1         52.5890  152.1440   27.1330 O.3        1 <1>        0.690
     12 C1         53.0460  151.3440   26.1510 C.2        1 <1>        0.040
     13 N1         53.4710  152.0800   25.2140 N.2        1 <1>        0.090
     14 C2         53.3490  153.4850   25.4610 C.2        1 <1>        0.050
     15 C3         52.7940  153.3950   26.6700 C.2        1 <1>        0.100
     16 C1         53.0490  149.8430   26.1650 C.3        1 <1>       -0.100
     17 O3         51.7110  149.3620   26.0130 O.3        1 <1>        0.790
     18 H4         53.4599  149.4860   27.1209 H          1 <1>        0.000
     19 H5         53.6692  149.4699   25.3367 H          1 <1>        0.000
     20 H6         51.7040  148.4121   26.0210 H          1 <1>        0.000
     21 C1         50.9980  157.7530   30.0790 C.3        1 <1>        0.050
     22 H1         50.9740  158.7055   29.5293 H          1 <1>        0.000
     23 H4         51.6530  157.8530   30.9570 H          1 <1>        0.000
     24 C1         53.7270  154.6710   24.6220 C.3        1 <1>        0.060
     25 O3         52.5450  155.3760   24.2340 O.3        1 <1>        0.790
     26 H4         54.2609  154.3290   23.7231 H          1 <1>        0.000
     27 H5         54.3790  155.3390   25.2040 H          1 <1>        0.000
     28 H6         52.7759  156.1286   23.7023 H          1 <1>        0.000
     29 O1         49.6750  157.4160   30.5060 O.3        1 <1>        0.080
     30 H2         49.7700  156.5688   30.9251 H          1 <1>        0.000
@<TRIPOS>BOND
     1    5    6 ar 
     2    5    4 ar 
     3    6    3 ar 
     4    4    1 ar 
     5    3    2 ar 
     6    1    2 ar 
     7    2    7 1  
     8    3    8 1  
     9    4    9 1  
    10    5   10 1  
    11   11   12 1  
    12   11   15 1  
    13   12   13 2  
    14   13   14 1  
    15   14   15 2  
    16    6   15 1  
    17   16   17 1  
    18   16   18 1  
    19   16   19 1  
    20   17   20 1  
    21   12   16 1  
    22   21   22 1  
    23   21   23 1  
    24    1   21 1  
    25   24   25 1  
    26   24   26 1  
    27   24   27 1  
    28   25   28 1  
    29   14   24 1  
    30   29   30 1  
    31   21   29 1  
# Name:          No_7_28
# Creation time: Thu Mar 21 15:49:10 2024


@<TRIPOS>MOLECULE
000001_000004
   30    31     1     1     1
SMALL
USER_CHARGES


@<TRIPOS>ATOM
      1 C9         51.5330  156.6540   29.1670 C.ar       1 <1>        0.170
      2 C10        51.0810  155.3840   29.3060 C.ar       1 <1>        0.240
      3 C11        51.5320  154.3980   28.4740 C.ar       1 <1>        0.240
      4 C14        52.4340  156.8960   28.1560 C.ar       1 <1>        0.230
      5 C13        52.8680  155.8980   27.2900 C.ar       1 <1>        0.220
      6 C12        52.4150  154.6130   27.4780 C.ar       1 <1>        0.210
      7 H          50.3592  155.1490   30.0798 H          1 <1>        0.000
      8 H          51.1599  153.3908   28.6230 H          1 <1>        0.000
      9 H          52.8200  157.9011   28.0300 H          1 <1>        0.000
     10 H          53.5512  156.1291   26.4808 H          1 <1>        0.000
     11 O1         52.5890  152.1440   27.1330 O.3        1 <1>        0.690
     12 C1         53.0460  151.3440   26.1510 C.2        1 <1>        0.040
     13 N1         53.4710  152.0800   25.2140 N.2        1 <1>        0.090
     14 C2         53.3490  153.4850   25.4610 C.2        1 <1>        0.050
     15 C3         52.7940  153.3950   26.6700 C.2        1 <1>        0.100
     16 C1         53.0490  149.8430   26.1650 C.3        1 <1>       -0.100
     17 O3         51.7110  149.3620   26.0130 O.3        1 <1>        0.790
     18 H4         53.4599  149.4860   27.1209 H          1 <1>        0.000
     19 H5         53.6692  149.4699   25.3367 H          1 <1>        0.000
     20 H6         51.7040  148.4121   26.0210 H          1 <1>        0.000
     21 C1         50.9980  157.7530   30.0790 C.3        1 <1>        0.050
     22 H1         50.9740  158.7055   29.5293 H          1 <1>        0.000
     23 H4         51.6530  157.8530   30.9570 H          1 <1>        0.000
     24 C1         53.7270  154.6710   24.6220 C.3        1 <1>        0.060
     25 O3         52.5450  155.3760   24.2340 O.3        1 <1>        0.790
     26 H4         54.2609  154.3290   23.7231 H          1 <1>        0.000
     27 H5         54.3790  155.3390   25.2040 H          1 <1>        0.000
     28 H6         52.7759  156.1286   23.7023 H          1 <1>        0.000
     29 O1         49.6750  157.4160   30.5060 O.3        1 <1>        0.080
     30 H2         49.5230  157.9669   31.2649 H          1 <1>        0.000
@<TRIPOS>BOND
     1    5    6 ar 
     2    5    4 ar 
     3    6    3 ar 
     4    4    1 ar 
     5    3    2 ar 
     6    1    2 ar 
     7    2    7 1  
     8    3    8 1  
     9    4    9 1  
    10    5   10 1  
    11   11   12 1  
    12   11   15 1  
    13   12   13 2  
    14   13   14 1  
    15   14   15 2  
    16    6   15 1  
    17   16   17 1  
    18   16   18 1  
    19   16   19 1  
    20   17   20 1  
    21   12   16 1  
    22   21   22 1  
    23   21   23 1  
    24    1   21 1  
    25   24   25 1  
    26   24   26 1  
    27   24   27 1  
    28   25   28 1  
    29   14   24 1  
    30   29   30 1  
    31   21   29 1  
# Name:          No_7_29
# Creation time: Thu Mar 21 15:49:10 2024


@<TRIPOS>MOLECULE
000001_000005
   30    31     1     1     1
SMALL
USER_CHARGES


@<TRIPOS>ATOM
      1 C9         51.5330  156.6540   29.1670 C.ar       1 <1>        0.170
      2 C10        51.0810  155.3840   29.3060 C.ar       1 <1>        0.240
      3 C11        51.5320  154.3980   28.4740 C.ar       1 <1>        0.240
      4 C14        52.4340  156.8960   28.1560 C.ar       1 <1>        0.230
      5 C13        52.8680  155.8980   27.2900 C.ar       1 <1>        0.220
      6 C12        52.4150  154.6130   27.4780 C.ar       1 <1>        0.210
      7 H          50.3592  155.1490   30.0798 H          1 <1>        0.000
      8 H          51.1599  153.3908   28.6230 H          1 <1>        0.000
      9 H          52.8200  157.9011   28.0300 H          1 <1>        0.000
     10 H          53.5512  156.1291   26.4808 H          1 <1>        0.000
     11 O1         52.5890  152.1440   27.1330 O.3        1 <1>        0.690
     12 C1         53.0460  151.3440   26.1510 C.2        1 <1>        0.040
     13 N1         53.4710  152.0800   25.2140 N.2        1 <1>        0.090
     14 C2         53.3490  153.4850   25.4610 C.2        1 <1>        0.050
     15 C3         52.7940  153.3950   26.6700 C.2        1 <1>        0.100
     16 C1         53.0490  149.8430   26.1650 C.3        1 <1>       -0.100
     17 O3         51.7110  149.3620   26.0130 O.3        1 <1>        0.790
     18 H4         53.4599  149.4860   27.1209 H          1 <1>        0.000
     19 H5         53.6692  149.4699   25.3367 H          1 <1>        0.000
     20 H6         51.7040  148.4121   26.0210 H          1 <1>        0.000
     21 C1         50.9980  157.7530   30.0790 C.3        1 <1>        0.050
     22 H1         50.9740  158.7055   29.5293 H          1 <1>        0.000
     23 H4         51.6530  157.8530   30.9570 H          1 <1>        0.000
     24 C1         53.7270  154.6710   24.6220 C.3        1 <1>        0.060
     25 O3         52.5450  155.3760   24.2340 O.3        1 <1>        0.790
     26 H4         54.2609  154.3290   23.7231 H          1 <1>        0.000
     27 H5         54.3790  155.3390   25.2040 H          1 <1>        0.000
     28 H6         52.7759  156.1286   23.7023 H          1 <1>        0.000
     29 O1         49.6750  157.4160   30.5060 O.3        1 <1>        0.080
     30 H2         49.3252  158.2266   30.8568 H          1 <1>        0.000
@<TRIPOS>BOND
     1    5    6 ar 
     2    5    4 ar 
     3    6    3 ar 
     4    4    1 ar 
     5    3    2 ar 
     6    1    2 ar 
     7    2    7 1  
     8    3    8 1  
     9    4    9 1  
    10    5   10 1  
    11   11   12 1  
    12   11   15 1  
    13   12   13 2  
    14   13   14 1  
    15   14   15 2  
    16    6   15 1  
    17   16   17 1  
    18   16   18 1  
    19   16   19 1  
    20   17   20 1  
    21   12   16 1  
    22   21   22 1  
    23   21   23 1  
    24    1   21 1  
    25   24   25 1  
    26   24   26 1  
    27   24   27 1  
    28   25   28 1  
    29   14   24 1  
    30   29   30 1  
    31   21   29 1  
# Name:          No_7_30
# Creation time: Thu Mar 21 15:49:10 2024


@<TRIPOS>MOLECULE
000001_000006
   30    31     1     1     1
SMALL
USER_CHARGES


@<TRIPOS>ATOM
      1 C9         51.5330  156.6540   29.1670 C.ar       1 <1>        0.170
      2 C10        51.0810  155.3840   29.3060 C.ar       1 <1>        0.240
      3 C11        51.5320  154.3980   28.4740 C.ar       1 <1>        0.240
      4 C14        52.4340  156.8960   28.1560 C.ar       1 <1>        0.230
      5 C13        52.8680  155.8980   27.2900 C.ar       1 <1>        0.220
      6 C12        52.4150  154.6130   27.4780 C.ar       1 <1>        0.210
      7 H          50.3592  155.1490   30.0798 H          1 <1>        0.000
      8 H          51.1599  153.3908   28.6230 H          1 <1>        0.000
      9 H          52.8200  157.9011   28.0300 H          1 <1>        0.000
     10 H          53.5512  156.1291   26.4808 H          1 <1>        0.000
     11 O1         52.5890  152.1440   27.1330 O.3        1 <1>        0.690
     12 C1         53.0460  151.3440   26.1510 C.2        1 <1>        0.040
     13 N1         53.4710  152.0800   25.2140 N.2        1 <1>        0.090
     14 C2         53.3490  153.4850   25.4610 C.2        1 <1>        0.050
     15 C3         52.7940  153.3950   26.6700 C.2        1 <1>        0.100
     16 C1         53.0490  149.8430   26.1650 C.3        1 <1>       -0.100
     17 O3         51.7110  149.3620   26.0130 O.3        1 <1>        0.790
     18 H4         53.4599  149.4860   27.1209 H          1 <1>        0.000
     19 H5         53.6692  149.4699   25.3367 H          1 <1>        0.000
     20 H6         51.7040  148.4121   26.0210 H          1 <1>        0.000
     21 C1         50.9980  157.7530   30.0790 C.3        1 <1>        0.050
     22 H1         50.9740  158.7055   29.5293 H          1 <1>        0.000
     23 H4         51.6530  157.8530   30.9570 H          1 <1>        0.000
     24 C1         53.7270  154.6710   24.6220 C.3        1 <1>        0.060
     25 O3         52.5450  155.3760   24.2340 O.3        1 <1>        0.790
     26 H4         54.2609  154.3290   23.7231 H          1 <1>        0.000
     27 H5         54.3790  155.3390   25.2040 H          1 <1>        0.000
     28 H6         52.7759  156.1286   23.7023 H          1 <1>        0.000
     29 O1         49.6750  157.4160   30.5060 O.3        1 <1>        0.080
     30 H2         49.1241  157.6260   29.7611 H          1 <1>        0.000
@<TRIPOS>BOND
     1    5    6 ar 
     2    5    4 ar 
     3    6    3 ar 
     4    4    1 ar 
     5    3    2 ar 
     6    1    2 ar 
     7    2    7 1  
     8    3    8 1  
     9    4    9 1  
    10    5   10 1  
    11   11   12 1  
    12   11   15 1  
    13   12   13 2  
    14   13   14 1  
    15   14   15 2  
    16    6   15 1  
    17   16   17 1  
    18   16   18 1  
    19   16   19 1  
    20   17   20 1  
    21   12   16 1  
    22   21   22 1  
    23   21   23 1  
    24    1   21 1  
    25   24   25 1  
    26   24   26 1  
    27   24   27 1  
    28   25   28 1  
    29   14   24 1  
    30   29   30 1  
    31   21   29 1  
# Name:          No_7_31
# Creation time: Thu Mar 21 15:49:10 2024


@<TRIPOS>MOLECULE
000001_000007
   30    31     1     1     1
SMALL
USER_CHARGES


@<TRIPOS>ATOM
      1 C9         51.5330  156.6540   29.1670 C.ar       1 <1>        0.170
      2 C10        51.0810  155.3840   29.3060 C.ar       1 <1>        0.240
      3 C11        51.5320  154.3980   28.4740 C.ar       1 <1>        0.240
      4 C14        52.4340  156.8960   28.1560 C.ar       1 <1>        0.230
      5 C13        52.8680  155.8980   27.2900 C.ar       1 <1>        0.220
      6 C12        52.4150  154.6130   27.4780 C.ar       1 <1>        0.210
      7 H          50.3592  155.1490   30.0798 H          1 <1>        0.000
      8 H          51.1599  153.3908   28.6230 H          1 <1>        0.000
      9 H          52.8200  157.9011   28.0300 H          1 <1>        0.000
     10 H          53.5512  156.1291   26.4808 H          1 <1>        0.000
     11 O1         52.5890  152.1440   27.1330 O.3        1 <1>        0.690
     12 C1         53.0460  151.3440   26.1510 C.2        1 <1>        0.040
     13 N1         53.4710  152.0800   25.2140 N.2        1 <1>        0.090
     14 C2         53.3490  153.4850   25.4610 C.2        1 <1>        0.050
     15 C3         52.7940  153.3950   26.6700 C.2        1 <1>        0.100
     16 C1         53.0490  149.8430   26.1650 C.3        1 <1>       -0.100
     17 O3         51.7110  149.3620   26.0130 O.3        1 <1>        0.790
     18 H4         53.4599  149.4860   27.1209 H          1 <1>        0.000
     19 H5         53.6692  149.4699   25.3367 H          1 <1>        0.000
     20 H6         51.7040  148.4121   26.0210 H          1 <1>        0.000
     21 C1         50.9980  157.7530   30.0790 C.3        1 <1>        0.050
     22 H1         50.9740  158.7055   29.5293 H          1 <1>        0.000
     23 H4         51.6530  157.8530   30.9570 H          1 <1>        0.000
     24 C1         53.7270  154.6710   24.6220 C.3        1 <1>        0.060
     25 O3         52.5450  155.3760   24.2340 O.3        1 <1>        0.790
     26 H4         54.2609  154.3290   23.7231 H          1 <1>        0.000
     27 H5         54.3790  155.3390   25.2040 H          1 <1>        0.000
     28 H6         52.7759  156.1286   23.7023 H          1 <1>        0.000
     29 O1         49.6750  157.4160   30.5060 O.3        1 <1>        0.080
     30 H2         49.2387  157.1178   29.7165 H          1 <1>        0.000
@<TRIPOS>BOND
     1    5    6 ar 
     2    5    4 ar 
     3    6    3 ar 
     4    4    1 ar 
     5    3    2 ar 
     6    1    2 ar 
     7    2    7 1  
     8    3    8 1  
     9    4    9 1  
    10    5   10 1  
    11   11   12 1  
    12   11   15 1  
    13   12   13 2  
    14   13   14 1  
    15   14   15 2  
    16    6   15 1  
    17   16   17 1  
    18   16   18 1  
    19   16   19 1  
    20   17   20 1  
    21   12   16 1  
    22   21   22 1  
    23   21   23 1  
    24    1   21 1  
    25   24   25 1  
    26   24   26 1  
    27   24   27 1  
    28   25   28 1  
    29   14   24 1  
    30   29   30 1  
    31   21   29 1  
# Name:          No_7_60
# Creation time: Thu Mar 21 15:49:10 2024


@<TRIPOS>MOLECULE
000001_000008
   41    42     1     1     1
SMALL
USER_CHARGES


@<TRIPOS>ATOM
      1 C9         51.5330  156.6540   29.1670 C.ar       1 <1>        0.170
      2 C10        51.0810  155.3840   29.3060 C.ar       1 <1>        0.240
      3 C11        51.5320  154.3980   28.4740 C.ar       1 <1>        0.240
      4 C14        52.4340  156.8960   28.1560 C.ar       1 <1>        0.230
      5 C13        52.8680  155.8980   27.2900 C.ar       1 <1>        0.220
      6 C12        52.4150  154.6130   27.4780 C.ar       1 <1>        0.210
      7 H          50.3592  155.1490   30.0798 H          1 <1>        0.000
      8 H          51.1599  153.3908   28.6230 H          1 <1>        0.000
      9 H          52.8200  157.9011   28.0300 H          1 <1>        0.000
     10 H          53.5512  156.1291   26.4808 H          1 <1>        0.000
     11 O1         52.5890  152.1440   27.1330 O.3        1 <1>        0.690
     12 C1         53.0460  151.3440   26.1510 C.2        1 <1>        0.040
     13 N1         53.4710  152.0800   25.2140 N.2        1 <1>        0.090
     14 C2         53.3490  153.4850   25.4610 C.2        1 <1>        0.050
     15 C3         52.7940  153.3950   26.6700 C.2        1 <1>        0.100
     16 C1         53.0490  149.8430   26.1650 C.3        1 <1>       -0.100
     17 O3         51.7110  149.3620   26.0130 O.3        1 <1>        0.790
     18 H4         53.4599  149.4860   27.1209 H          1 <1>        0.000
     19 H5         53.6692  149.4699   25.3367 H          1 <1>        0.000
     20 H6         51.7040  148.4121   26.0210 H          1 <1>        0.000
     21 C1         50.9980  157.7530   30.0790 C.3        1 <1>        0.010
     22 H2         49.9806  157.4939   30.4071 H          1 <1>        0.000
     23 H4         51.6530  157.8530   30.9570 H          1 <1>        0.000
     24 C1         53.7270  154.6710   24.6220 C.3        1 <1>        0.060
     25 H2         52.9579  155.4511   24.7220 H          1 <1>        0.000
     26 O3         54.9870  155.1840   25.0620 O.3        1 <1>        0.490
     27 H4         53.8040  154.3651   23.5682 H          1 <1>        0.000
     28 H6         55.6572  154.5158   24.9790 H          1 <1>        0.000
     29 N1         50.1310  160.0770   30.0270 N.4        1 <1>        0.010
     30 C1         50.9650  159.0870   29.3090 C.3        1 <1>       -0.050
     31 H2         50.1000  160.9562   29.5349 H          1 <1>        0.000
     32 H3         49.1821  159.7530   30.1300 H          1 <1>        0.000
     33 H6         51.9964  159.4552   29.2060 H          1 <1>        0.000
     34 H7         50.5590  158.8990   28.3041 H          1 <1>        0.000
     35 C1         49.9140  161.5100   31.9820 C.2        1 <1>        0.060
     36 O2         49.0310  162.0670   31.3500 O.2        1 <1>        0.060
     37 O3         50.2190  161.9240   33.1860 O.3        1 <1>        0.540
     38 C4         50.6560  160.3430   31.3740 C.3        1 <1>        0.020
     39 H5         49.6681  162.6598   33.4259 H          1 <1>        0.000
     40 H7         51.7275  160.5831   31.3090 H          1 <1>        0.000
     41 H8         50.5170  159.4520   32.0040 H          1 <1>        0.000
@<TRIPOS>BOND
     1    5    6 ar 
     2    5    4 ar 
     3    6    3 ar 
     4    4    1 ar 
     5    3    2 ar 
     6    1    2 ar 
     7    2    7 1  
     8    3    8 1  
     9    4    9 1  
    10    5   10 1  
    11   11   12 1  
    12   11   15 1  
    13   12   13 2  
    14   13   14 1  
    15   14   15 2  
    16    6   15 1  
    17   16   17 1  
    18   16   18 1  
    19   16   19 1  
    20   17   20 1  
    21   12   16 1  
    22   21   22 1  
    23   21   23 1  
    24    1   21 1  
    25   24   25 1  
    26   24   26 1  
    27   24   27 1  
    28   26   28 1  
    29   14   24 1  
    30   29   30 1  
    31   29   31 1  
    32   29   32 1  
    33   30   33 1  
    34   30   34 1  
    35   21   30 1  
    36   35   36 2  
    37   35   37 1  
    38   35   38 1  
    39   37   39 1  
    40   38   40 1  
    41   38   41 1  
    42   29   38 1  
# Name:          No_7_73
# Creation time: Thu Mar 21 15:49:10 2024


@<TRIPOS>MOLECULE
000001_000009
   36    37     1     1     1
SMALL
USER_CHARGES


@<TRIPOS>ATOM
      1 C9         51.5330  156.6540   29.1670 C.ar       1 <1>        0.170
      2 C10        51.0810  155.3840   29.3060 C.ar       1 <1>        0.240
      3 C11        51.5320  154.3980   28.4740 C.ar       1 <1>        0.240
      4 C14        52.4340  156.8960   28.1560 C.ar       1 <1>        0.230
      5 C13        52.8680  155.8980   27.2900 C.ar       1 <1>        0.220
      6 C12        52.4150  154.6130   27.4780 C.ar       1 <1>        0.210
      7 H          50.3592  155.1490   30.0798 H          1 <1>        0.000
      8 H          51.1599  153.3908   28.6230 H          1 <1>        0.000
      9 H          52.8200  157.9011   28.0300 H          1 <1>        0.000
     10 H          53.5512  156.1291   26.4808 H          1 <1>        0.000
     11 O1         52.5890  152.1440   27.1330 O.3        1 <1>        0.690
     12 C1         53.0460  151.3440   26.1510 C.2        1 <1>        0.040
     13 N1         53.4710  152.0800   25.2140 N.2        1 <1>        0.090
     14 C2         53.3490  153.4850   25.4610 C.2        1 <1>        0.050
     15 C3         52.7940  153.3950   26.6700 C.2        1 <1>        0.100
     16 C1         53.0490  149.8430   26.1650 C.3        1 <1>       -0.100
     17 O3         51.7110  149.3620   26.0130 O.3        1 <1>        0.790
     18 H4         53.4599  149.4860   27.1209 H          1 <1>        0.000
     19 H5         53.6692  149.4699   25.3367 H          1 <1>        0.000
     20 H6         51.7040  148.4121   26.0210 H          1 <1>        0.000
     21 C1         50.9980  157.7530   30.0790 C.3        1 <1>        0.010
     22 H1         50.9740  158.7055   29.5293 H          1 <1>        0.000
     23 H4         51.6530  157.8530   30.9570 H          1 <1>        0.000
     24 C1         53.7270  154.6710   24.6220 C.3        1 <1>        0.060
     25 O3         52.5450  155.3760   24.2340 O.3        1 <1>        0.790
     26 H4         54.2609  154.3290   23.7231 H          1 <1>        0.000
     27 H5         54.3790  155.3390   25.2040 H          1 <1>        0.000
     28 H6         52.7759  156.1286   23.7023 H          1 <1>        0.000
     29 N          48.6000  159.4970   29.7380 N.am       1 <1>        0.080
     30 C          48.7800  158.6510   30.7760 C.2        1 <1>        0.080
     31 O          48.3260  158.8740   31.8880 O.2        1 <1>        0.100
     32 C4         49.5740  157.3900   30.5390 C.3        1 <1>       -0.010
     33 H1         48.9810  159.2940   28.8360 H          1 <1>        0.000
     34 H2         48.0779  160.3401   29.8670 H          1 <1>        0.000
     35 H3         49.0869  156.7879   29.7579 H          1 <1>        0.000
     36 H4         49.6430  156.7880   31.4570 H          1 <1>        0.000
@<TRIPOS>BOND
     1    5    6 ar 
     2    5    4 ar 
     3    6    3 ar 
     4    4    1 ar 
     5    3    2 ar 
     6    1    2 ar 
     7    2    7 1  
     8    3    8 1  
     9    4    9 1  
    10    5   10 1  
    11   11   12 1  
    12   11   15 1  
    13   12   13 2  
    14   13   14 1  
    15   14   15 2  
    16    6   15 1  
    17   16   17 1  
    18   16   18 1  
    19   16   19 1  
    20   17   20 1  
    21   12   16 1  
    22   21   22 1  
    23   21   23 1  
    24    1   21 1  
    25   24   25 1  
    26   24   26 1  
    27   24   27 1  
    28   25   28 1  
    29   14   24 1  
    30   29   30 am 
    31   30   31 2  
    32   30   32 1  
    33   29   33 1  
    34   29   34 1  
    35   32   35 1  
    36   32   36 1  
    37   21   32 1  
# Name:          No_7_72
# Creation time: Thu Mar 21 15:49:10 2024


@<TRIPOS>MOLECULE
000001_000010
   36    37     1     1     1
SMALL
USER_CHARGES


@<TRIPOS>ATOM
      1 C9         51.5330  156.6540   29.1670 C.ar       1 <1>        0.170
      2 C10        51.0810  155.3840   29.3060 C.ar       1 <1>        0.240
      3 C11        51.5320  154.3980   28.4740 C.ar       1 <1>        0.240
      4 C14        52.4340  156.8960   28.1560 C.ar       1 <1>        0.230
      5 C13        52.8680  155.8980   27.2900 C.ar       1 <1>        0.220
      6 C12        52.4150  154.6130   27.4780 C.ar       1 <1>        0.210
      7 H          50.3592  155.1490   30.0798 H          1 <1>        0.000
      8 H          51.1599  153.3908   28.6230 H          1 <1>        0.000
      9 H          52.8200  157.9011   28.0300 H          1 <1>        0.000
     10 H          53.5512  156.1291   26.4808 H          1 <1>        0.000
     11 O1         52.5890  152.1440   27.1330 O.3        1 <1>        0.690
     12 C1         53.0460  151.3440   26.1510 C.2        1 <1>        0.040
     13 N1         53.4710  152.0800   25.2140 N.2        1 <1>        0.090
     14 C2         53.3490  153.4850   25.4610 C.2        1 <1>        0.050
     15 C3         52.7940  153.3950   26.6700 C.2        1 <1>        0.100
     16 C1         53.0490  149.8430   26.1650 C.3        1 <1>       -0.100
     17 O3         51.7110  149.3620   26.0130 O.3        1 <1>        0.790
     18 H4         53.4599  149.4860   27.1209 H          1 <1>        0.000
     19 H5         53.6692  149.4699   25.3367 H          1 <1>        0.000
     20 H6         51.7040  148.4121   26.0210 H          1 <1>        0.000
     21 C1         50.9980  157.7530   30.0790 C.3        1 <1>        0.010
     22 H1         50.9740  158.7055   29.5293 H          1 <1>        0.000
     23 H4         51.6530  157.8530   30.9570 H          1 <1>        0.000
     24 C1         53.7270  154.6710   24.6220 C.3        1 <1>        0.060
     25 O3         52.5450  155.3760   24.2340 O.3        1 <1>        0.790
     26 H4         54.2609  154.3290   23.7231 H          1 <1>        0.000
     27 H5         54.3790  155.3390   25.2040 H          1 <1>        0.000
     28 H6         52.7759  156.1286   23.7023 H          1 <1>        0.000
     29 N          48.7090  159.6650   30.2090 N.am       1 <1>        0.090
     30 C          48.8770  158.6250   31.0550 C.2        1 <1>        0.070
     31 O          48.4870  158.6530   32.2130 O.2        1 <1>        0.090
     32 C4         49.5740  157.3900   30.5390 C.3        1 <1>       -0.010
     33 H1         49.0372  159.6190   29.2655 H          1 <1>        0.000
     34 H2         48.2508  160.4953   30.5261 H          1 <1>        0.000
     35 H3         49.0152  156.9791   29.6853 H          1 <1>        0.000
     36 H4         49.6420  156.6187   31.3203 H          1 <1>        0.000
@<TRIPOS>BOND
     1    5    6 ar 
     2    5    4 ar 
     3    6    3 ar 
     4    4    1 ar 
     5    3    2 ar 
     6    1    2 ar 
     7    2    7 1  
     8    3    8 1  
     9    4    9 1  
    10    5   10 1  
    11   11   12 1  
    12   11   15 1  
    13   12   13 2  
    14   13   14 1  
    15   14   15 2  
    16    6   15 1  
    17   16   17 1  
    18   16   18 1  
    19   16   19 1  
    20   17   20 1  
    21   12   16 1  
    22   21   22 1  
    23   21   23 1  
    24    1   21 1  
    25   24   25 1  
    26   24   26 1  
    27   24   27 1  
    28   25   28 1  
    29   14   24 1  
    30   29   30 am 
    31   30   31 2  
    32   30   32 1  
    33   29   33 1  
    34   29   34 1  
    35   32   35 1  
    36   32   36 1  
    37   21   32 1  
# Name:          No_7_59
# Creation time: Thu Mar 21 15:49:10 2024


@<TRIPOS>MOLECULE
000001_000011
   41    42     1     1     1
SMALL
USER_CHARGES


@<TRIPOS>ATOM
      1 C9         51.5330  156.6540   29.1670 C.ar       1 <1>        0.170
      2 C10        51.0810  155.3840   29.3060 C.ar       1 <1>        0.240
      3 C11        51.5320  154.3980   28.4740 C.ar       1 <1>        0.240
      4 C14        52.4340  156.8960   28.1560 C.ar       1 <1>        0.230
      5 C13        52.8680  155.8980   27.2900 C.ar       1 <1>        0.220
      6 C12        52.4150  154.6130   27.4780 C.ar       1 <1>        0.210
      7 H          50.3592  155.1490   30.0798 H          1 <1>        0.000
      8 H          51.1599  153.3908   28.6230 H          1 <1>        0.000
      9 H          52.8200  157.9011   28.0300 H          1 <1>        0.000
     10 H          53.5512  156.1291   26.4808 H          1 <1>        0.000
     11 O1         52.5890  152.1440   27.1330 O.3        1 <1>        0.690
     12 C1         53.0460  151.3440   26.1510 C.2        1 <1>        0.040
     13 N1         53.4710  152.0800   25.2140 N.2        1 <1>        0.090
     14 C2         53.3490  153.4850   25.4610 C.2        1 <1>        0.050
     15 C3         52.7940  153.3950   26.6700 C.2        1 <1>        0.100
     16 C1         53.0490  149.8430   26.1650 C.3        1 <1>       -0.100
     17 O3         51.7110  149.3620   26.0130 O.3        1 <1>        0.790
     18 H4         53.4599  149.4860   27.1209 H          1 <1>        0.000
     19 H5         53.6692  149.4699   25.3367 H          1 <1>        0.000
     20 H6         51.7040  148.4121   26.0210 H          1 <1>        0.000
     21 C1         50.9980  157.7530   30.0790 C.3        1 <1>        0.010
     22 H2         49.9806  157.4939   30.4071 H          1 <1>        0.000
     23 H4         51.6530  157.8530   30.9570 H          1 <1>        0.000
     24 C1         53.7270  154.6710   24.6220 C.3        1 <1>        0.060
     25 H2         52.9579  155.4511   24.7220 H          1 <1>        0.000
     26 O3         54.9870  155.1840   25.0620 O.3        1 <1>        0.490
     27 H4         53.8040  154.3651   23.5682 H          1 <1>        0.000
     28 H6         55.6572  154.5158   24.9790 H          1 <1>        0.000
     29 N1         50.1310  160.0770   30.0270 N.4        1 <1>        0.010
     30 C1         50.9650  159.0870   29.3090 C.3        1 <1>       -0.050
     31 H2         50.1000  160.9562   29.5349 H          1 <1>        0.000
     32 H3         49.1821  159.7530   30.1300 H          1 <1>        0.000
     33 H6         51.9964  159.4552   29.2060 H          1 <1>        0.000
     34 H7         50.5590  158.8990   28.3041 H          1 <1>        0.000
     35 C1         50.1340  161.6730   31.8640 C.2        1 <1>        0.050
     36 O2         49.3940  162.3360   31.1560 O.2        1 <1>       -0.160
     37 O3         50.4750  162.1140   33.0490 O.3        1 <1>        0.560
     38 C4         50.6560  160.3430   31.3740 C.3        1 <1>        0.020
     39 H5         50.0692  162.9576   33.2109 H          1 <1>        0.000
     40 H7         51.7551  160.3710   31.3410 H          1 <1>        0.000
     41 H8         50.3292  159.5464   32.0586 H          1 <1>        0.000
@<TRIPOS>BOND
     1    5    6 ar 
     2    5    4 ar 
     3    6    3 ar 
     4    4    1 ar 
     5    3    2 ar 
     6    1    2 ar 
     7    2    7 1  
     8    3    8 1  
     9    4    9 1  
    10    5   10 1  
    11   11   12 1  
    12   11   15 1  
    13   12   13 2  
    14   13   14 1  
    15   14   15 2  
    16    6   15 1  
    17   16   17 1  
    18   16   18 1  
    19   16   19 1  
    20   17   20 1  
    21   12   16 1  
    22   21   22 1  
    23   21   23 1  
    24    1   21 1  
    25   24   25 1  
    26   24   26 1  
    27   24   27 1  
    28   26   28 1  
    29   14   24 1  
    30   29   30 1  
    31   29   31 1  
    32   29   32 1  
    33   30   33 1  
    34   30   34 1  
    35   21   30 1  
    36   35   36 2  
    37   35   37 1  
    38   35   38 1  
    39   37   39 1  
    40   38   40 1  
    41   38   41 1  
    42   29   38 1  
# Name:          No_7_58
# Creation time: Thu Mar 21 15:49:10 2024


@<TRIPOS>MOLECULE
000001_000012
   41    42     1     1     1
SMALL
USER_CHARGES


@<TRIPOS>ATOM
      1 C9         51.5330  156.6540   29.1670 C.ar       1 <1>        0.170
      2 C10        51.0810  155.3840   29.3060 C.ar       1 <1>        0.240
      3 C11        51.5320  154.3980   28.4740 C.ar       1 <1>        0.240
      4 C14        52.4340  156.8960   28.1560 C.ar       1 <1>        0.230
      5 C13        52.8680  155.8980   27.2900 C.ar       1 <1>        0.220
      6 C12        52.4150  154.6130   27.4780 C.ar       1 <1>        0.210
      7 H          50.3592  155.1490   30.0798 H          1 <1>        0.000
      8 H          51.1599  153.3908   28.6230 H          1 <1>        0.000
      9 H          52.8200  157.9011   28.0300 H          1 <1>        0.000
     10 H          53.5512  156.1291   26.4808 H          1 <1>        0.000
     11 O1         52.5890  152.1440   27.1330 O.3        1 <1>        0.690
     12 C1         53.0460  151.3440   26.1510 C.2        1 <1>        0.040
     13 N1         53.4710  152.0800   25.2140 N.2        1 <1>        0.090
     14 C2         53.3490  153.4850   25.4610 C.2        1 <1>        0.050
     15 C3         52.7940  153.3950   26.6700 C.2        1 <1>        0.100
     16 C1         53.0490  149.8430   26.1650 C.3        1 <1>       -0.100
     17 O3         51.7110  149.3620   26.0130 O.3        1 <1>        0.790
     18 H4         53.4599  149.4860   27.1209 H          1 <1>        0.000
     19 H5         53.6692  149.4699   25.3367 H          1 <1>        0.000
     20 H6         51.7040  148.4121   26.0210 H          1 <1>        0.000
     21 C1         50.9980  157.7530   30.0790 C.3        1 <1>        0.010
     22 H2         49.9806  157.4939   30.4071 H          1 <1>        0.000
     23 H4         51.6530  157.8530   30.9570 H          1 <1>        0.000
     24 C1         53.7270  154.6710   24.6220 C.3        1 <1>        0.060
     25 H2         52.9579  155.4511   24.7220 H          1 <1>        0.000
     26 O3         54.9870  155.1840   25.0620 O.3        1 <1>        0.490
     27 H4         53.8040  154.3651   23.5682 H          1 <1>        0.000
     28 H6         55.6572  154.5158   24.9790 H          1 <1>        0.000
     29 N1         50.1310  160.0770   30.0270 N.4        1 <1>        0.010
     30 C1         50.9650  159.0870   29.3090 C.3        1 <1>       -0.050
     31 H2         50.1000  160.9562   29.5349 H          1 <1>        0.000
     32 H3         49.1821  159.7530   30.1300 H          1 <1>        0.000
     33 H6         51.9964  159.4552   29.2060 H          1 <1>        0.000
     34 H7         50.5590  158.8990   28.3041 H          1 <1>        0.000
     35 C1         51.8860  161.2130   31.2720 C.2        1 <1>        0.070
     36 O2         52.2870  161.5770   30.1790 O.2        1 <1>        0.380
     37 O3         52.5220  161.5780   32.3580 O.3        1 <1>       -0.130
     38 C4         50.6560  160.3430   31.3740 C.3        1 <1>        0.020
     39 H5         53.2691  162.1191   32.1310 H          1 <1>        0.000
     40 H7         50.9190  159.3919   31.8600 H          1 <1>        0.000
     41 H8         49.8896  160.8596   31.9705 H          1 <1>        0.000
@<TRIPOS>BOND
     1    5    6 ar 
     2    5    4 ar 
     3    6    3 ar 
     4    4    1 ar 
     5    3    2 ar 
     6    1    2 ar 
     7    2    7 1  
     8    3    8 1  
     9    4    9 1  
    10    5   10 1  
    11   11   12 1  
    12   11   15 1  
    13   12   13 2  
    14   13   14 1  
    15   14   15 2  
    16    6   15 1  
    17   16   17 1  
    18   16   18 1  
    19   16   19 1  
    20   17   20 1  
    21   12   16 1  
    22   21   22 1  
    23   21   23 1  
    24    1   21 1  
    25   24   25 1  
    26   24   26 1  
    27   24   27 1  
    28   26   28 1  
    29   14   24 1  
    30   29   30 1  
    31   29   31 1  
    32   29   32 1  
    33   30   33 1  
    34   30   34 1  
    35   21   30 1  
    36   35   36 2  
    37   35   37 1  
    38   35   38 1  
    39   37   39 1  
    40   38   40 1  
    41   38   41 1  
    42   29   38 1  
# Name:          No_6_130
# Creation time: Thu Mar 21 15:54:18 2024


@<TRIPOS>MOLECULE
000001_000001
   51    52     1     1     1
SMALL
USER_CHARGES


@<TRIPOS>ATOM
      1 C9         51.5330  156.6540   29.1670 C.ar       1 <1>        0.170
      2 C10        51.0810  155.3840   29.3060 C.ar       1 <1>        0.240
      3 C11        51.5320  154.3980   28.4740 C.ar       1 <1>        0.240
      4 C14        52.4340  156.8960   28.1560 C.ar       1 <1>        0.230
      5 C13        52.8680  155.8980   27.2900 C.ar       1 <1>        0.220
      6 C12        52.4150  154.6130   27.4780 C.ar       1 <1>        0.210
      7 H          50.3592  155.1490   30.0798 H          1 <1>        0.000
      8 H          51.1599  153.3908   28.6230 H          1 <1>        0.000
      9 H          52.8200  157.9011   28.0300 H          1 <1>        0.000
     10 H          53.5512  156.1291   26.4808 H          1 <1>        0.000
     11 O1         52.6970  152.2820   27.1620 O.2        1 <1>        0.540
     12 C1         52.7940  153.3950   26.6700 C.2        1 <1>        0.100
     13 N1         54.0700  154.3570   23.3980 N.pl3      1 <1>        0.020
     14 N2         53.6950  154.6000   24.6860 N.2        1 <1>        0.210
     15 C1         53.2800  153.5490   25.2920 C.2        1 <1>        0.090
     16 N3         53.4190  152.5640   24.2540 N.2        1 <1>        0.070
     17 C2         53.8720  153.0900   23.2080 C.2        1 <1>        0.040
     18 H1         54.4339  155.0408   22.7192 H          1 <1>        0.000
     19 C1         54.1400  152.3470   21.9320 C.3        1 <1>       -0.110
     20 C2         55.3960  151.5220   22.0840 C.2        1 <1>        0.040
     21 C3         55.8870  150.6760   20.9340 C.3        1 <1>        0.130
     22 O4         56.0090  151.5390   23.1270 O.2        1 <1>        0.050
     23 H5         53.2912  151.6842   21.7080 H          1 <1>        0.000
     24 H6         54.2700  153.0661   21.1098 H          1 <1>        0.000
     25 H8         56.0950  151.3201   20.0669 H          1 <1>        0.000
     26 H9         55.1155  149.9395   20.6652 H          1 <1>        0.000
     27 H10        56.8073  150.1518   21.2311 H          1 <1>        0.000
     28 C1         50.9980  157.7530   30.0790 C.3        1 <1>        0.010
     29 C2         51.0350  159.1010   29.3340 C.3        1 <1>        0.100
     30 H1         51.6223  157.8160   30.9825 H          1 <1>        0.000
     31 H3         49.9614  157.5201   30.3639 H          1 <1>        0.000
     32 H4         52.0716  159.3339   29.0491 H          1 <1>        0.000
     33 H6         50.4111  159.0380   28.4302 H          1 <1>        0.000
     34 C1         50.4950  160.2110   30.2550 C.3        1 <1>        0.140
     35 C2         51.5460  160.5780   31.3330 C.3        1 <1>        0.150
     36 C3         52.8610  161.0900   30.6890 C.3        1 <1>       -0.000
     37 H1         49.5720  159.8510   30.7330 H          1 <1>        0.000
     38 H3         50.2510  161.0911   29.6419 H          1 <1>        0.000
     39 H4         51.7629  159.6913   31.9468 H          1 <1>        0.000
     40 H5         51.1362  161.3587   31.9907 H          1 <1>        0.000
     41 H7         52.6671  161.9888   30.0852 H          1 <1>        0.000
     42 H8         53.2972  160.3157   30.0408 H          1 <1>        0.000
     43 C          55.0510  161.7700   31.4090 C.cat      1 <1>        0.120
     44 N          53.8240  161.4260   31.7200 N.pl3      1 <1>        0.280
     45 N          55.4210  161.8150   30.1520 N.pl3      1 <1>        0.960
     46 N1         55.9070  162.0700   32.3560 N.pl3      1 <1>        0.510
     47 H2         53.5181  161.3860   32.7027 H          1 <1>        0.000
     48 H3         56.3808  162.0832   29.8918 H          1 <1>        0.000
     49 H4         54.7595  161.5822   29.3976 H          1 <1>        0.000
     50 H5         55.6310  162.0390   33.3479 H          1 <1>        0.000
     51 H6         56.8739  162.3420   32.1280 H          1 <1>        0.000
@<TRIPOS>BOND
     1    5    6 ar 
     2    5    4 ar 
     3    6    3 ar 
     4    4    1 ar 
     5    3    2 ar 
     6    1    2 ar 
     7    2    7 1  
     8    3    8 1  
     9    4    9 1  
    10    5   10 1  
    11   12   11 2  
    12    6   12 1  
    13   13   14 1  
    14   13   17 1  
    15   14   15 2  
    16   15   16 1  
    17   16   17 2  
    18   13   18 1  
    19   12   15 1  
    20   20   19 1  
    21   20   21 1  
    22   20   22 2  
    23   19   23 1  
    24   19   24 1  
    25   21   25 1  
    26   21   26 1  
    27   21   27 1  
    28   17   19 1  
    29   29   28 1  
    30   28   30 1  
    31   28   31 1  
    32   29   32 1  
    33   29   33 1  
    34    1   28 1  
    35   35   34 1  
    36   35   36 1  
    37   34   37 1  
    38   34   38 1  
    39   35   39 1  
    40   35   40 1  
    41   36   41 1  
    42   36   42 1  
    43   29   34 1  
    44   43   44 ar 
    45   43   45 ar 
    46   43   46 ar 
    47   44   47 1  
    48   45   48 1  
    49   45   49 1  
    50   46   50 1  
    51   46   51 1  
    52   36   44 1  
# Name:          No_7_13
# Creation time: Thu Mar 21 15:54:18 2024


@<TRIPOS>MOLECULE
000001_000002
   51    52     1     1     1
SMALL
USER_CHARGES


@<TRIPOS>ATOM
      1 C9         51.5330  156.6540   29.1670 C.ar       1 <1>        0.170
      2 C10        51.0810  155.3840   29.3060 C.ar       1 <1>        0.240
      3 C11        51.5320  154.3980   28.4740 C.ar       1 <1>        0.240
      4 C14        52.4340  156.8960   28.1560 C.ar       1 <1>        0.230
      5 C13        52.8680  155.8980   27.2900 C.ar       1 <1>        0.220
      6 C12        52.4150  154.6130   27.4780 C.ar       1 <1>        0.210
      7 H          50.3592  155.1490   30.0798 H          1 <1>        0.000
      8 H          51.1599  153.3908   28.6230 H          1 <1>        0.000
      9 H          52.8200  157.9011   28.0300 H          1 <1>        0.000
     10 H          53.5512  156.1291   26.4808 H          1 <1>        0.000
     11 O1         52.6970  152.2820   27.1620 O.2        1 <1>        0.540
     12 C1         52.7940  153.3950   26.6700 C.2        1 <1>        0.100
     13 N1         54.0700  154.3570   23.3980 N.pl3      1 <1>        0.020
     14 N2         53.6950  154.6000   24.6860 N.2        1 <1>        0.210
     15 C1         53.2800  153.5490   25.2920 C.2        1 <1>        0.090
     16 N3         53.4190  152.5640   24.2540 N.2        1 <1>        0.070
     17 C2         53.8720  153.0900   23.2080 C.2        1 <1>        0.040
     18 H1         54.4339  155.0408   22.7192 H          1 <1>        0.000
     19 C1         54.1400  152.3470   21.9320 C.3        1 <1>       -0.110
     20 C2         55.3960  151.5220   22.0840 C.2        1 <1>        0.040
     21 C3         55.8870  150.6760   20.9340 C.3        1 <1>        0.130
     22 O4         56.0090  151.5390   23.1270 O.2        1 <1>        0.050
     23 H5         53.2912  151.6842   21.7080 H          1 <1>        0.000
     24 H6         54.2700  153.0661   21.1098 H          1 <1>        0.000
     25 H8         56.0950  151.3201   20.0669 H          1 <1>        0.000
     26 H9         55.1155  149.9395   20.6652 H          1 <1>        0.000
     27 H10        56.8073  150.1518   21.2311 H          1 <1>        0.000
     28 C1         50.9980  157.7530   30.0790 C.3        1 <1>        0.010
     29 C2         51.0350  159.1010   29.3340 C.3        1 <1>        0.100
     30 H1         51.6223  157.8160   30.9825 H          1 <1>        0.000
     31 H3         49.9614  157.5201   30.3639 H          1 <1>        0.000
     32 H4         52.0716  159.3339   29.0491 H          1 <1>        0.000
     33 H6         50.4111  159.0380   28.4302 H          1 <1>        0.000
     34 C1         50.4950  160.2110   30.2550 C.3        1 <1>        0.140
     35 C2         51.5460  160.5780   31.3330 C.3        1 <1>        0.150
     36 C3         52.8610  161.0900   30.6890 C.3        1 <1>       -0.000
     37 H1         49.5720  159.8510   30.7330 H          1 <1>        0.000
     38 H3         50.2510  161.0911   29.6419 H          1 <1>        0.000
     39 H4         51.7629  159.6913   31.9468 H          1 <1>        0.000
     40 H5         51.1362  161.3587   31.9907 H          1 <1>        0.000
     41 H7         52.6671  161.9888   30.0852 H          1 <1>        0.000
     42 H8         53.2972  160.3157   30.0408 H          1 <1>        0.000
     43 C          55.0510  161.7700   31.4090 C.cat      1 <1>        0.120
     44 N          53.8240  161.4260   31.7200 N.pl3      1 <1>        0.280
     45 N          55.4210  161.8150   30.1520 N.pl3      1 <1>        0.960
     46 N1         55.9070  162.0700   32.3560 N.pl3      1 <1>        0.510
     47 H2         53.5181  161.3860   32.7027 H          1 <1>        0.000
     48 H3         56.3808  162.0832   29.8918 H          1 <1>        0.000
     49 H4         54.7595  161.5822   29.3976 H          1 <1>        0.000
     50 H5         55.6310  162.0390   33.3479 H          1 <1>        0.000
     51 H6         56.8739  162.3420   32.1280 H          1 <1>        0.000
@<TRIPOS>BOND
     1    5    6 ar 
     2    5    4 ar 
     3    6    3 ar 
     4    4    1 ar 
     5    3    2 ar 
     6    1    2 ar 
     7    2    7 1  
     8    3    8 1  
     9    4    9 1  
    10    5   10 1  
    11   12   11 2  
    12    6   12 1  
    13   13   14 1  
    14   13   17 1  
    15   14   15 2  
    16   15   16 1  
    17   16   17 2  
    18   13   18 1  
    19   12   15 1  
    20   20   19 1  
    21   20   21 1  
    22   20   22 2  
    23   19   23 1  
    24   19   24 1  
    25   21   25 1  
    26   21   26 1  
    27   21   27 1  
    28   17   19 1  
    29   29   28 1  
    30   28   30 1  
    31   28   31 1  
    32   29   32 1  
    33   29   33 1  
    34    1   28 1  
    35   35   34 1  
    36   35   36 1  
    37   34   37 1  
    38   34   38 1  
    39   35   39 1  
    40   35   40 1  
    41   36   41 1  
    42   36   42 1  
    43   29   34 1  
    44   43   44 ar 
    45   43   45 ar 
    46   43   46 ar 
    47   44   47 1  
    48   45   48 1  
    49   45   49 1  
    50   46   50 1  
    51   46   51 1  
    52   36   44 1  
# Name:          No_6_144
# Creation time: Thu Mar 21 15:54:18 2024


@<TRIPOS>MOLECULE
000001_000003
   50    52     1     1     1
SMALL
USER_CHARGES


@<TRIPOS>ATOM
      1 C9         51.5330  156.6540   29.1670 C.ar       1 <1>        0.170
      2 C10        51.0810  155.3840   29.3060 C.ar       1 <1>        0.240
      3 C11        51.5320  154.3980   28.4740 C.ar       1 <1>        0.240
      4 C14        52.4340  156.8960   28.1560 C.ar       1 <1>        0.230
      5 C13        52.8680  155.8980   27.2900 C.ar       1 <1>        0.220
      6 C12        52.4150  154.6130   27.4780 C.ar       1 <1>        0.210
      7 H          50.3592  155.1490   30.0798 H          1 <1>        0.000
      8 H          51.1599  153.3908   28.6230 H          1 <1>        0.000
      9 H          52.8200  157.9011   28.0300 H          1 <1>        0.000
     10 H          53.5512  156.1291   26.4808 H          1 <1>        0.000
     11 O1         52.6970  152.2820   27.1620 O.2        1 <1>        0.540
     12 C1         52.7940  153.3950   26.6700 C.2        1 <1>        0.100
     13 N1         54.0700  154.3570   23.3980 N.pl3      1 <1>        0.020
     14 N2         53.6950  154.6000   24.6860 N.2        1 <1>        0.210
     15 C1         53.2800  153.5490   25.2920 C.2        1 <1>        0.090
     16 N3         53.4190  152.5640   24.2540 N.2        1 <1>        0.070
     17 C2         53.8720  153.0900   23.2080 C.2        1 <1>        0.040
     18 H1         54.4339  155.0408   22.7192 H          1 <1>        0.000
     19 C1         54.1400  152.3470   21.9320 C.3        1 <1>       -0.110
     20 C2         55.1550  151.2580   22.1870 C.2        1 <1>        0.000
     21 C3         55.5990  150.3610   21.0560 C.3        1 <1>       -0.000
     22 O4         55.6120  151.1050   23.2960 O.2        1 <1>        0.050
     23 H5         53.2049  151.8979   21.5660 H          1 <1>        0.000
     24 H6         54.5321  153.0441   21.1768 H          1 <1>        0.000
     25 H8         56.0563  150.9704   20.2625 H          1 <1>        0.000
     26 H9         54.7291  149.8231   20.6511 H          1 <1>        0.000
     27 C1         56.2800  148.5720   22.5770 C.2        1 <1>        0.100
     28 O1         57.1170  147.7750   22.9750 O.2        1 <1>        0.330
     29 N1         55.0610  148.6230   23.1610 N.am       1 <1>        0.420
     30 N2         56.5700  149.4050   21.5520 N.am       1 <1>       -0.030
     31 H1         54.3613  149.2667   22.8511 H          1 <1>        0.000
     32 H2         54.8440  148.0080   23.9190 H          1 <1>        0.000
     33 H4         57.4707  149.3680   21.1191 H          1 <1>        0.000
     34 C1         51.0350  159.0890   29.3410 C.3        1 <1>       -0.030
     35 C2         50.9980  157.7530   30.0790 C.3        1 <1>        0.010
     36 H3         50.4111  159.0260   28.4372 H          1 <1>        0.000
     37 H5         52.0717  159.3212   29.0558 H          1 <1>        0.000
     38 H6         51.6223  157.8160   30.9825 H          1 <1>        0.000
     39 H8         49.9612  157.5210   30.3640 H          1 <1>        0.000
     40 C1         49.5180  162.2030   31.9240 C.ar       1 <1>        0.170
     41 C2         48.9240  161.9760   30.6790 C.ar       1 <1>        0.070
     42 C3         49.4140  160.9690   29.8430 C.ar       1 <1>        0.220
     43 C4         50.5000  160.1880   30.2520 C.ar       1 <1>        0.160
     44 C5         51.0940  160.4150   31.4970 C.ar       1 <1>        0.220
     45 C6         50.6040  161.4230   32.3330 C.ar       1 <1>        0.220
     46 H1         49.1381  162.9847   32.5718 H          1 <1>        0.000
     47 H2         48.0826  162.5816   30.3622 H          1 <1>        0.000
     48 H3         48.9529  160.7930   28.8779 H          1 <1>        0.000
     49 H5         51.9354  159.8094   31.8138 H          1 <1>        0.000
     50 H6         51.0651  161.5990   33.2981 H          1 <1>        0.000
@<TRIPOS>BOND
     1    5    6 ar 
     2    5    4 ar 
     3    6    3 ar 
     4    4    1 ar 
     5    3    2 ar 
     6    1    2 ar 
     7    2    7 1  
     8    3    8 1  
     9    4    9 1  
    10    5   10 1  
    11   12   11 2  
    12    6   12 1  
    13   13   14 1  
    14   13   17 1  
    15   14   15 2  
    16   15   16 1  
    17   16   17 2  
    18   13   18 1  
    19   12   15 1  
    20   20   19 1  
    21   20   21 1  
    22   20   22 2  
    23   19   23 1  
    24   19   24 1  
    25   21   25 1  
    26   21   26 1  
    27   17   19 1  
    28   27   28 2  
    29   27   29 am 
    30   27   30 am 
    31   29   31 1  
    32   29   32 1  
    33   30   33 1  
    34   21   30 1  
    35   35   34 1  
    36   34   36 1  
    37   34   37 1  
    38   35   38 1  
    39   35   39 1  
    40    1   35 1  
    41   40   41 ar 
    42   40   45 ar 
    43   41   42 ar 
    44   42   43 ar 
    45   43   44 ar 
    46   44   45 ar 
    47   40   46 1  
    48   41   47 1  
    49   42   48 1  
    50   44   49 1  
    51   45   50 1  
    52   34   43 1  
# Name:          No_6_145
# Creation time: Thu Mar 21 15:54:18 2024


@<TRIPOS>MOLECULE
000001_000004
   50    52     1     1     1
SMALL
USER_CHARGES


@<TRIPOS>ATOM
      1 C9         51.5330  156.6540   29.1670 C.ar       1 <1>        0.170
      2 C10        51.0810  155.3840   29.3060 C.ar       1 <1>        0.240
      3 C11        51.5320  154.3980   28.4740 C.ar       1 <1>        0.240
      4 C14        52.4340  156.8960   28.1560 C.ar       1 <1>        0.230
      5 C13        52.8680  155.8980   27.2900 C.ar       1 <1>        0.220
      6 C12        52.4150  154.6130   27.4780 C.ar       1 <1>        0.210
      7 H          50.3592  155.1490   30.0798 H          1 <1>        0.000
      8 H          51.1599  153.3908   28.6230 H          1 <1>        0.000
      9 H          52.8200  157.9011   28.0300 H          1 <1>        0.000
     10 H          53.5512  156.1291   26.4808 H          1 <1>        0.000
     11 O1         52.6970  152.2820   27.1620 O.2        1 <1>        0.540
     12 C1         52.7940  153.3950   26.6700 C.2        1 <1>        0.100
     13 N1         54.0700  154.3570   23.3980 N.pl3      1 <1>        0.020
     14 N2         53.6950  154.6000   24.6860 N.2        1 <1>        0.210
     15 C1         53.2800  153.5490   25.2920 C.2        1 <1>        0.090
     16 N3         53.4190  152.5640   24.2540 N.2        1 <1>        0.070
     17 C2         53.8720  153.0900   23.2080 C.2        1 <1>        0.040
     18 H1         54.4339  155.0408   22.7192 H          1 <1>        0.000
     19 C1         54.1400  152.3470   21.9320 C.3        1 <1>       -0.110
     20 C2         55.1550  151.2580   22.1870 C.2        1 <1>        0.000
     21 C3         55.5990  150.3610   21.0560 C.3        1 <1>       -0.000
     22 O4         55.6120  151.1050   23.2960 O.2        1 <1>        0.050
     23 H5         53.2049  151.8979   21.5660 H          1 <1>        0.000
     24 H6         54.5321  153.0441   21.1768 H          1 <1>        0.000
     25 H8         56.0563  150.9704   20.2625 H          1 <1>        0.000
     26 H9         54.7291  149.8231   20.6511 H          1 <1>        0.000
     27 C1         56.2800  148.5720   22.5770 C.2        1 <1>        0.100
     28 O1         57.1170  147.7750   22.9750 O.2        1 <1>        0.330
     29 N1         55.0610  148.6230   23.1610 N.am       1 <1>        0.420
     30 N2         56.5700  149.4050   21.5520 N.am       1 <1>       -0.030
     31 H1         54.3613  149.2667   22.8511 H          1 <1>        0.000
     32 H2         54.8440  148.0080   23.9190 H          1 <1>        0.000
     33 H4         57.4707  149.3680   21.1191 H          1 <1>        0.000
     34 C1         51.0350  159.0890   29.3410 C.3        1 <1>       -0.030
     35 C2         50.9980  157.7530   30.0790 C.3        1 <1>        0.010
     36 H3         50.4111  159.0260   28.4372 H          1 <1>        0.000
     37 H5         52.0717  159.3212   29.0558 H          1 <1>        0.000
     38 H6         51.6223  157.8160   30.9825 H          1 <1>        0.000
     39 H8         49.9612  157.5210   30.3640 H          1 <1>        0.000
     40 C1         49.5180  162.2030   31.9240 C.ar       1 <1>        0.170
     41 C2         48.6360  161.2960   31.3300 C.ar       1 <1>        0.210
     42 C3         49.1260  160.2880   30.4950 C.ar       1 <1>        0.210
     43 C4         50.5000  160.1880   30.2520 C.ar       1 <1>        0.160
     44 C5         51.3820  161.0950   30.8460 C.ar       1 <1>        0.220
     45 C6         50.8920  162.1030   31.6820 C.ar       1 <1>        0.070
     46 H1         49.1381  162.9847   32.5718 H          1 <1>        0.000
     47 H2         47.5713  161.3740   31.5180 H          1 <1>        0.000
     48 H3         48.4416  159.5846   30.0347 H          1 <1>        0.000
     49 H5         52.4467  161.0170   30.6580 H          1 <1>        0.000
     50 H6         51.5760  162.8070   32.1420 H          1 <1>        0.000
@<TRIPOS>BOND
     1    5    6 ar 
     2    5    4 ar 
     3    6    3 ar 
     4    4    1 ar 
     5    3    2 ar 
     6    1    2 ar 
     7    2    7 1  
     8    3    8 1  
     9    4    9 1  
    10    5   10 1  
    11   12   11 2  
    12    6   12 1  
    13   13   14 1  
    14   13   17 1  
    15   14   15 2  
    16   15   16 1  
    17   16   17 2  
    18   13   18 1  
    19   12   15 1  
    20   20   19 1  
    21   20   21 1  
    22   20   22 2  
    23   19   23 1  
    24   19   24 1  
    25   21   25 1  
    26   21   26 1  
    27   17   19 1  
    28   27   28 2  
    29   27   29 am 
    30   27   30 am 
    31   29   31 1  
    32   29   32 1  
    33   30   33 1  
    34   21   30 1  
    35   35   34 1  
    36   34   36 1  
    37   34   37 1  
    38   35   38 1  
    39   35   39 1  
    40    1   35 1  
    41   40   41 ar 
    42   40   45 ar 
    43   41   42 ar 
    44   42   43 ar 
    45   43   44 ar 
    46   44   45 ar 
    47   40   46 1  
    48   41   47 1  
    49   42   48 1  
    50   44   49 1  
    51   45   50 1  
    52   34   43 1  
# Name:          No_7_186
# Creation time: Thu Mar 21 15:54:18 2024


@<TRIPOS>MOLECULE
000001_000005
   53    54     1     1     1
SMALL
USER_CHARGES


@<TRIPOS>ATOM
      1 C9         51.5330  156.6540   29.1670 C.ar       1 <1>        0.170
      2 C10        51.0810  155.3840   29.3060 C.ar       1 <1>        0.240
      3 C11        51.5320  154.3980   28.4740 C.ar       1 <1>        0.240
      4 C14        52.4340  156.8960   28.1560 C.ar       1 <1>        0.230
      5 C13        52.8680  155.8980   27.2900 C.ar       1 <1>        0.220
      6 C12        52.4150  154.6130   27.4780 C.ar       1 <1>        0.210
      7 H          50.3592  155.1490   30.0798 H          1 <1>        0.000
      8 H          51.1599  153.3908   28.6230 H          1 <1>        0.000
      9 H          52.8200  157.9011   28.0300 H          1 <1>        0.000
     10 H          53.5512  156.1291   26.4808 H          1 <1>        0.000
     11 O1         52.6970  152.2820   27.1620 O.2        1 <1>        0.540
     12 C1         52.7940  153.3950   26.6700 C.2        1 <1>        0.100
     13 N1         54.0700  154.3570   23.3980 N.pl3      1 <1>        0.020
     14 N2         53.6950  154.6000   24.6860 N.2        1 <1>        0.210
     15 C1         53.2800  153.5490   25.2920 C.2        1 <1>        0.090
     16 N3         53.4190  152.5640   24.2540 N.2        1 <1>        0.070
     17 C2         53.8720  153.0900   23.2080 C.2        1 <1>        0.040
     18 H1         54.4339  155.0408   22.7192 H          1 <1>        0.000
     19 C1         54.1400  152.3470   21.9320 C.3        1 <1>       -0.110
     20 C2         55.1550  151.2580   22.1870 C.2        1 <1>        0.000
     21 C3         55.5990  150.3610   21.0560 C.3        1 <1>       -0.000
     22 O4         55.6120  151.1050   23.2960 O.2        1 <1>        0.050
     23 H5         53.2049  151.8979   21.5660 H          1 <1>        0.000
     24 H6         54.5321  153.0441   21.1768 H          1 <1>        0.000
     25 H8         56.0563  150.9704   20.2625 H          1 <1>        0.000
     26 H9         54.7291  149.8231   20.6511 H          1 <1>        0.000
     27 C1         56.2800  148.5720   22.5770 C.2        1 <1>        0.100
     28 O1         57.1170  147.7750   22.9750 O.2        1 <1>        0.330
     29 N1         55.0610  148.6230   23.1610 N.am       1 <1>        0.420
     30 N2         56.5700  149.4050   21.5520 N.am       1 <1>       -0.030
     31 H1         54.3613  149.2667   22.8511 H          1 <1>        0.000
     32 H2         54.8440  148.0080   23.9190 H          1 <1>        0.000
     33 H4         57.4707  149.3680   21.1191 H          1 <1>        0.000
     34 C1         51.0350  159.0890   29.3410 C.3        1 <1>        0.100
     35 C2         50.9980  157.7530   30.0790 C.3        1 <1>        0.010
     36 H3         50.4111  159.0260   28.4372 H          1 <1>        0.000
     37 H5         52.0717  159.3212   29.0558 H          1 <1>        0.000
     38 H6         51.6223  157.8160   30.9825 H          1 <1>        0.000
     39 H8         49.9612  157.5210   30.3640 H          1 <1>        0.000
     40 C1         50.4940  160.1990   30.2610 C.3        1 <1>        0.020
     41 O3         49.3030  159.7430   30.9080 O.3        1 <1>       -0.010
     42 H4         50.2678  161.0938   29.6625 H          1 <1>        0.000
     43 H5         51.2513  160.4468   31.0193 H          1 <1>        0.000
     44 C1         48.7910  160.7660   31.7670 C.3        1 <1>        0.010
     45 C2         47.7620  160.1630   32.7190 C.3        1 <1>        0.160
     46 C3         46.6180  159.5560   31.9130 C.3        1 <1>        0.280
     47 H4         49.6160  161.2040   32.3480 H          1 <1>        0.000
     48 H6         48.3141  161.5498   31.1602 H          1 <1>        0.000
     49 H7         47.3680  160.9499   33.3789 H          1 <1>        0.000
     50 H8         48.2392  159.3797   33.3262 H          1 <1>        0.000
     51 H9         45.8761  159.1211   32.5989 H          1 <1>        0.000
     52 H10        47.0118  158.7695   31.2524 H          1 <1>        0.000
     53 H11        46.1411  160.3389   31.3051 H          1 <1>        0.000
@<TRIPOS>BOND
     1    5    6 ar 
     2    5    4 ar 
     3    6    3 ar 
     4    4    1 ar 
     5    3    2 ar 
     6    1    2 ar 
     7    2    7 1  
     8    3    8 1  
     9    4    9 1  
    10    5   10 1  
    11   12   11 2  
    12    6   12 1  
    13   13   14 1  
    14   13   17 1  
    15   14   15 2  
    16   15   16 1  
    17   16   17 2  
    18   13   18 1  
    19   12   15 1  
    20   20   19 1  
    21   20   21 1  
    22   20   22 2  
    23   19   23 1  
    24   19   24 1  
    25   21   25 1  
    26   21   26 1  
    27   17   19 1  
    28   27   28 2  
    29   27   29 am 
    30   27   30 am 
    31   29   31 1  
    32   29   32 1  
    33   30   33 1  
    34   21   30 1  
    35   35   34 1  
    36   34   36 1  
    37   34   37 1  
    38   35   38 1  
    39   35   39 1  
    40    1   35 1  
    41   40   41 1  
    42   40   42 1  
    43   40   43 1  
    44   34   40 1  
    45   45   44 1  
    46   45   46 1  
    47   44   47 1  
    48   44   48 1  
    49   45   49 1  
    50   45   50 1  
    51   46   51 1  
    52   46   52 1  
    53   46   53 1  
    54   41   44 1  
# Name:          No_7_110
# Creation time: Thu Mar 21 15:54:18 2024


@<TRIPOS>MOLECULE
000002_000001
   33    34     1     1     1
SMALL
USER_CHARGES


@<TRIPOS>ATOM
      1 C9         51.5330  156.6540   29.1670 C.ar       1 <1>        0.170
      2 C10        51.0810  155.3840   29.3060 C.ar       1 <1>        0.240
      3 C11        51.5320  154.3980   28.4740 C.ar       1 <1>        0.120
      4 C14        52.4340  156.8960   28.1560 C.ar       1 <1>        0.230
      5 C13        52.8680  155.8980   27.2900 C.ar       1 <1>        0.220
      6 C12        52.4150  154.6130   27.4780 C.ar       1 <1>        0.210
      7 H          50.3592  155.1490   30.0798 H          1 <1>        0.000
      8 H          52.8200  157.9011   28.0300 H          1 <1>        0.000
      9 H          53.5512  156.1291   26.4808 H          1 <1>        0.000
     10 O1         52.3330  152.1800   26.9840 O.3        1 <1>        0.690
     11 C1         52.9060  151.4340   26.0330 C.2        1 <1>        0.100
     12 C2         53.6810  152.0800   25.1600 C.2        1 <1>        0.090
     13 C3         53.6020  153.4670   25.6110 C.2        1 <1>        0.090
     14 C4         52.7940  153.3950   26.6700 C.2        1 <1>        0.100
     15 H2         54.2380  151.6780   24.3150 H          1 <1>        0.000
     16 N1         51.0690  153.1430   28.6590 N.pl3      1 <1>       -0.160
     17 H1         51.5389  152.5142   29.3258 H          1 <1>        0.000
     18 H3         50.2462  152.8147   28.1335 H          1 <1>        0.000
     19 C1         52.6880  149.9810   25.9640 C.2        1 <1>        0.100
     20 O1         53.1900  149.3540   25.0430 O.2        1 <1>        0.100
     21 O2         51.9480  149.3940   26.9100 O.3        1 <1>        0.830
     22 H2         51.8580  148.4560   26.7890 H          1 <1>        0.000
     23 C1         49.4800  157.8330   29.9430 C.3        1 <1>        0.260
     24 C2         50.9980  157.7530   30.0790 C.3        1 <1>        0.050
     25 H3         49.2171  158.0609   28.8995 H          1 <1>        0.000
     26 H4         49.0349  156.8689   30.2300 H          1 <1>        0.000
     27 H5         49.0937  158.6257   30.6006 H          1 <1>        0.000
     28 H6         51.2611  157.5249   31.1224 H          1 <1>        0.000
     29 H7         51.4430  158.7169   29.7910 H          1 <1>        0.000
     30 C1         54.2570  154.6480   25.0310 C.2        1 <1>        0.090
     31 O1         53.5860  155.4340   24.3790 O.2        1 <1>        0.060
     32 O2         55.5670  154.8240   25.2350 O.3        1 <1>        0.490
     33 H2         55.9088  155.6105   24.8262 H          1 <1>        0.000
@<TRIPOS>BOND
     1    5    6 ar 
     2    5    4 ar 
     3    6    3 ar 
     4    4    1 ar 
     5    3    2 ar 
     6    1    2 ar 
     7    2    7 1  
     8    4    8 1  
     9    5    9 1  
    10   10   11 1  
    11   10   14 1  
    12   11   12 2  
    13   12   13 1  
    14   13   14 2  
    15   12   15 1  
    16    6   14 1  
    17   16   17 1  
    18   16   18 1  
    19    3   16 1  
    20   19   20 2  
    21   19   21 1  
    22   21   22 1  
    23   11   19 1  
    24   24   23 1  
    25   23   25 1  
    26   23   26 1  
    27   23   27 1  
    28   24   28 1  
    29   24   29 1  
    30    1   24 1  
    31   30   31 2  
    32   30   32 1  
    33   32   33 1  
    34   13   30 1  
# Name:          No_7_133
# Creation time: Thu Mar 21 15:54:18 2024


@<TRIPOS>MOLECULE
000003_000001
   43    44     1     1     1
SMALL
USER_CHARGES


@<TRIPOS>ATOM
      1 C9         51.5330  156.6540   29.1670 C.ar       1 <1>        0.170
      2 C10        51.0810  155.3840   29.3060 C.ar       1 <1>        0.240
      3 C11        51.5320  154.3980   28.4740 C.ar       1 <1>        0.240
      4 C14        52.4340  156.8960   28.1560 C.ar       1 <1>        0.110
      5 C13        52.8680  155.8980   27.2900 C.ar       1 <1>        0.220
      6 C12        52.4150  154.6130   27.4780 C.ar       1 <1>        0.210
      7 H          50.3592  155.1490   30.0798 H          1 <1>        0.000
      8 H          51.1599  153.3908   28.6230 H          1 <1>        0.000
      9 H          53.5512  156.1291   26.4808 H          1 <1>        0.000
     10 N1         53.5160  152.0540   25.1160 N.pl3      1 <1>        0.270
     11 C1         53.0830  151.2890   26.0690 C.2        1 <1>        0.050
     12 N2         52.6490  152.0030   27.0040 N.2        1 <1>        0.550
     13 C2         52.7940  153.3950   26.6700 C.2        1 <1>        0.100
     14 C3         53.3560  153.3160   25.4470 C.2        1 <1>        0.050
     15 H1         53.9242  151.7218   24.2306 H          1 <1>        0.000
     16 C1         55.1870  154.9070   24.9180 C.3        1 <1>        0.040
     17 C2         53.7380  154.4950   24.6010 C.3        1 <1>        0.020
     18 H1         55.2680  155.1771   25.9812 H          1 <1>        0.000
     19 H3         55.8626  154.0665   24.7011 H          1 <1>        0.000
     20 H4         53.0624  155.3355   24.8179 H          1 <1>        0.000
     21 H6         53.6570  154.2249   23.5377 H          1 <1>        0.000
     22 C          49.0220  158.9440   30.4490 C.2        1 <1>        0.030
     23 O          49.5840  159.5600   31.3410 O.2        1 <1>        0.070
     24 O          49.6230  157.9920   29.7200 O.3        1 <1>        0.110
     25 C5         50.9980  157.7530   30.0790 C.3        1 <1>        0.010
     26 H1         51.6108  158.6546   29.9321 H          1 <1>        0.000
     27 H3         51.0850  157.4128   31.1215 H          1 <1>        0.000
     28 O1         52.9290  158.1850   27.9940 O.3        1 <1>        0.430
     29 H1         53.3654  158.1680   27.1503 H          1 <1>        0.000
     30 C1         47.0830  160.3270   31.1510 C.3        1 <1>        0.290
     31 C2         47.5870  159.2690   30.1530 C.3        1 <1>        0.000
     32 H1         47.1670  159.9349   32.1753 H          1 <1>        0.000
     33 H2         46.0312  160.5650   30.9340 H          1 <1>        0.000
     34 H3         47.6916  161.2384   31.0571 H          1 <1>        0.000
     35 H4         46.9784  158.3575   30.2469 H          1 <1>        0.000
     36 H6         47.5030  159.6611   29.1287 H          1 <1>        0.000
     37 C1         53.0920  149.7880   26.0700 C.3        1 <1>       -0.060
     38 O3         51.7610  149.3040   26.2660 O.3        1 <1>        0.830
     39 H4         53.7377  149.4261   26.8837 H          1 <1>        0.000
     40 H5         53.4772  149.4228   25.1065 H          1 <1>        0.000
     41 H6         51.7580  148.3540   26.2690 H          1 <1>        0.000
     42 O1         55.5510  156.0300   24.1110 O.3        1 <1>        0.070
     43 H1         54.7865  156.5936   24.1300 H          1 <1>        0.000
@<TRIPOS>BOND
     1    5    6 ar 
     2    5    4 ar 
     3    6    3 ar 
     4    4    1 ar 
     5    3    2 ar 
     6    1    2 ar 
     7    2    7 1  
     8    3    8 1  
     9    5    9 1  
    10   10   11 1  
    11   10   14 1  
    12   11   12 2  
    13   12   13 1  
    14   13   14 2  
    15   10   15 1  
    16    6   13 1  
    17   17   16 1  
    18   16   18 1  
    19   16   19 1  
    20   17   20 1  
    21   17   21 1  
    22   14   17 1  
    23   22   23 2  
    24   22   24 1  
    25   24   25 1  
    26   25   26 1  
    27   25   27 1  
    28    1   25 1  
    29   28   29 1  
    30    4   28 1  
    31   31   30 1  
    32   30   32 1  
    33   30   33 1  
    34   30   34 1  
    35   31   35 1  
    36   31   36 1  
    37   22   31 1  
    38   37   38 1  
    39   37   39 1  
    40   37   40 1  
    41   38   41 1  
    42   11   37 1  
    43   42   43 1  
    44   16   42 1  
# Name:          No_7_134
# Creation time: Thu Mar 21 15:54:18 2024


@<TRIPOS>MOLECULE
000003_000002
   43    44     1     1     1
SMALL
USER_CHARGES


@<TRIPOS>ATOM
      1 C9         51.5330  156.6540   29.1670 C.ar       1 <1>        0.170
      2 C10        51.0810  155.3840   29.3060 C.ar       1 <1>        0.240
      3 C11        51.5320  154.3980   28.4740 C.ar       1 <1>        0.240
      4 C14        52.4340  156.8960   28.1560 C.ar       1 <1>        0.110
      5 C13        52.8680  155.8980   27.2900 C.ar       1 <1>        0.220
      6 C12        52.4150  154.6130   27.4780 C.ar       1 <1>        0.210
      7 H          50.3592  155.1490   30.0798 H          1 <1>        0.000
      8 H          51.1599  153.3908   28.6230 H          1 <1>        0.000
      9 H          53.5512  156.1291   26.4808 H          1 <1>        0.000
     10 N1         53.5160  152.0540   25.1160 N.pl3      1 <1>        0.270
     11 C1         53.0830  151.2890   26.0690 C.2        1 <1>        0.050
     12 N2         52.6490  152.0030   27.0040 N.2        1 <1>        0.550
     13 C2         52.7940  153.3950   26.6700 C.2        1 <1>        0.100
     14 C3         53.3560  153.3160   25.4470 C.2        1 <1>        0.050
     15 H1         53.9242  151.7218   24.2306 H          1 <1>        0.000
     16 C1         55.1870  154.9070   24.9180 C.3        1 <1>        0.040
     17 C2         53.7380  154.4950   24.6010 C.3        1 <1>        0.020
     18 H1         55.2680  155.1771   25.9812 H          1 <1>        0.000
     19 H3         55.8626  154.0665   24.7011 H          1 <1>        0.000
     20 H4         53.0624  155.3355   24.8179 H          1 <1>        0.000
     21 H6         53.6570  154.2249   23.5377 H          1 <1>        0.000
     22 C          49.0220  158.9440   30.4490 C.2        1 <1>        0.030
     23 O          49.5840  159.5600   31.3410 O.2        1 <1>        0.070
     24 O          49.6230  157.9920   29.7200 O.3        1 <1>        0.110
     25 C5         50.9980  157.7530   30.0790 C.3        1 <1>        0.010
     26 H1         51.6108  158.6546   29.9321 H          1 <1>        0.000
     27 H3         51.0850  157.4128   31.1215 H          1 <1>        0.000
     28 O1         52.9290  158.1850   27.9940 O.3        1 <1>        0.430
     29 H1         53.3654  158.1680   27.1503 H          1 <1>        0.000
     30 C1         47.0830  160.3270   31.1510 C.3        1 <1>        0.290
     31 C2         47.5870  159.2690   30.1530 C.3        1 <1>        0.000
     32 H1         47.1670  159.9349   32.1753 H          1 <1>        0.000
     33 H2         46.0312  160.5650   30.9340 H          1 <1>        0.000
     34 H3         47.6916  161.2384   31.0571 H          1 <1>        0.000
     35 H4         46.9784  158.3575   30.2469 H          1 <1>        0.000
     36 H6         47.5030  159.6611   29.1287 H          1 <1>        0.000
     37 C1         53.0920  149.7880   26.0700 C.3        1 <1>       -0.060
     38 O3         51.7610  149.3040   26.2660 O.3        1 <1>        0.830
     39 H4         53.7377  149.4261   26.8837 H          1 <1>        0.000
     40 H5         53.4772  149.4228   25.1065 H          1 <1>        0.000
     41 H6         51.7580  148.3540   26.2690 H          1 <1>        0.000
     42 O1         55.5510  156.0300   24.1110 O.3        1 <1>        0.070
     43 H1         55.1011  156.7649   24.5110 H          1 <1>        0.000
@<TRIPOS>BOND
     1    5    6 ar 
     2    5    4 ar 
     3    6    3 ar 
     4    4    1 ar 
     5    3    2 ar 
     6    1    2 ar 
     7    2    7 1  
     8    3    8 1  
     9    5    9 1  
    10   10   11 1  
    11   10   14 1  
    12   11   12 2  
    13   12   13 1  
    14   13   14 2  
    15   10   15 1  
    16    6   13 1  
    17   17   16 1  
    18   16   18 1  
    19   16   19 1  
    20   17   20 1  
    21   17   21 1  
    22   14   17 1  
    23   22   23 2  
    24   22   24 1  
    25   24   25 1  
    26   25   26 1  
    27   25   27 1  
    28    1   25 1  
    29   28   29 1  
    30    4   28 1  
    31   31   30 1  
    32   30   32 1  
    33   30   33 1  
    34   30   34 1  
    35   31   35 1  
    36   31   36 1  
    37   22   31 1  
    38   37   38 1  
    39   37   39 1  
    40   37   40 1  
    41   38   41 1  
    42   11   37 1  
    43   42   43 1  
    44   16   42 1  
# Name:          No_7_135
# Creation time: Thu Mar 21 15:54:18 2024


@<TRIPOS>MOLECULE
000003_000003
   43    44     1     1     1
SMALL
USER_CHARGES


@<TRIPOS>ATOM
      1 C9         51.5330  156.6540   29.1670 C.ar       1 <1>        0.170
      2 C10        51.0810  155.3840   29.3060 C.ar       1 <1>        0.240
      3 C11        51.5320  154.3980   28.4740 C.ar       1 <1>        0.240
      4 C14        52.4340  156.8960   28.1560 C.ar       1 <1>        0.110
      5 C13        52.8680  155.8980   27.2900 C.ar       1 <1>        0.220
      6 C12        52.4150  154.6130   27.4780 C.ar       1 <1>        0.210
      7 H          50.3592  155.1490   30.0798 H          1 <1>        0.000
      8 H          51.1599  153.3908   28.6230 H          1 <1>        0.000
      9 H          53.5512  156.1291   26.4808 H          1 <1>        0.000
     10 N1         53.5160  152.0540   25.1160 N.pl3      1 <1>        0.270
     11 C1         53.0830  151.2890   26.0690 C.2        1 <1>        0.050
     12 N2         52.6490  152.0030   27.0040 N.2        1 <1>        0.550
     13 C2         52.7940  153.3950   26.6700 C.2        1 <1>        0.100
     14 C3         53.3560  153.3160   25.4470 C.2        1 <1>        0.050
     15 H1         53.9242  151.7218   24.2306 H          1 <1>        0.000
     16 C1         55.1870  154.9070   24.9180 C.3        1 <1>        0.040
     17 C2         53.7380  154.4950   24.6010 C.3        1 <1>        0.020
     18 H1         55.2680  155.1771   25.9812 H          1 <1>        0.000
     19 H3         55.8626  154.0665   24.7011 H          1 <1>        0.000
     20 H4         53.0624  155.3355   24.8179 H          1 <1>        0.000
     21 H6         53.6570  154.2249   23.5377 H          1 <1>        0.000
     22 C          49.0220  158.9440   30.4490 C.2        1 <1>        0.030
     23 O          49.5840  159.5600   31.3410 O.2        1 <1>        0.070
     24 O          49.6230  157.9920   29.7200 O.3        1 <1>        0.110
     25 C5         50.9980  157.7530   30.0790 C.3        1 <1>        0.010
     26 H1         51.6108  158.6546   29.9321 H          1 <1>        0.000
     27 H3         51.0850  157.4128   31.1215 H          1 <1>        0.000
     28 O1         52.9290  158.1850   27.9940 O.3        1 <1>        0.430
     29 H1         53.3654  158.1680   27.1503 H          1 <1>        0.000
     30 C1         47.0830  160.3270   31.1510 C.3        1 <1>        0.290
     31 C2         47.5870  159.2690   30.1530 C.3        1 <1>        0.000
     32 H1         47.1670  159.9349   32.1753 H          1 <1>        0.000
     33 H2         46.0312  160.5650   30.9340 H          1 <1>        0.000
     34 H3         47.6916  161.2384   31.0571 H          1 <1>        0.000
     35 H4         46.9784  158.3575   30.2469 H          1 <1>        0.000
     36 H6         47.5030  159.6611   29.1287 H          1 <1>        0.000
     37 C1         53.0920  149.7880   26.0700 C.3        1 <1>       -0.060
     38 O3         51.7610  149.3040   26.2660 O.3        1 <1>        0.830
     39 H4         53.7377  149.4261   26.8837 H          1 <1>        0.000
     40 H5         53.4772  149.4228   25.1065 H          1 <1>        0.000
     41 H6         51.7580  148.3540   26.2690 H          1 <1>        0.000
     42 O1         55.5510  156.0300   24.1110 O.3        1 <1>        0.070
     43 H1         56.3118  156.3979   24.5449 H          1 <1>        0.000
@<TRIPOS>BOND
     1    5    6 ar 
     2    5    4 ar 
     3    6    3 ar 
     4    4    1 ar 
     5    3    2 ar 
     6    1    2 ar 
     7    2    7 1  
     8    3    8 1  
     9    5    9 1  
    10   10   11 1  
    11   10   14 1  
    12   11   12 2  
    13   12   13 1  
    14   13   14 2  
    15   10   15 1  
    16    6   13 1  
    17   17   16 1  
    18   16   18 1  
    19   16   19 1  
    20   17   20 1  
    21   17   21 1  
    22   14   17 1  
    23   22   23 2  
    24   22   24 1  
    25   24   25 1  
    26   25   26 1  
    27   25   27 1  
    28    1   25 1  
    29   28   29 1  
    30    4   28 1  
    31   31   30 1  
    32   30   32 1  
    33   30   33 1  
    34   30   34 1  
    35   31   35 1  
    36   31   36 1  
    37   22   31 1  
    38   37   38 1  
    39   37   39 1  
    40   37   40 1  
    41   38   41 1  
    42   11   37 1  
    43   42   43 1  
    44   16   42 1  
# Name:          No_7_136
# Creation time: Thu Mar 21 15:54:18 2024


@<TRIPOS>MOLECULE
000003_000004
   43    44     1     1     1
SMALL
USER_CHARGES


@<TRIPOS>ATOM
      1 C9         51.5330  156.6540   29.1670 C.ar       1 <1>        0.170
      2 C10        51.0810  155.3840   29.3060 C.ar       1 <1>        0.240
      3 C11        51.5320  154.3980   28.4740 C.ar       1 <1>        0.240
      4 C14        52.4340  156.8960   28.1560 C.ar       1 <1>        0.110
      5 C13        52.8680  155.8980   27.2900 C.ar       1 <1>        0.220
      6 C12        52.4150  154.6130   27.4780 C.ar       1 <1>        0.210
      7 H          50.3592  155.1490   30.0798 H          1 <1>        0.000
      8 H          51.1599  153.3908   28.6230 H          1 <1>        0.000
      9 H          53.5512  156.1291   26.4808 H          1 <1>        0.000
     10 N1         53.5160  152.0540   25.1160 N.pl3      1 <1>        0.270
     11 C1         53.0830  151.2890   26.0690 C.2        1 <1>        0.050
     12 N2         52.6490  152.0030   27.0040 N.2        1 <1>        0.550
     13 C2         52.7940  153.3950   26.6700 C.2        1 <1>        0.100
     14 C3         53.3560  153.3160   25.4470 C.2        1 <1>        0.050
     15 H1         53.9242  151.7218   24.2306 H          1 <1>        0.000
     16 C1         55.1870  154.9070   24.9180 C.3        1 <1>        0.040
     17 C2         53.7380  154.4950   24.6010 C.3        1 <1>        0.020
     18 H1         55.2680  155.1771   25.9812 H          1 <1>        0.000
     19 H3         55.8626  154.0665   24.7011 H          1 <1>        0.000
     20 H4         53.0624  155.3355   24.8179 H          1 <1>        0.000
     21 H6         53.6570  154.2249   23.5377 H          1 <1>        0.000
     22 C          49.0220  158.9440   30.4490 C.2        1 <1>        0.030
     23 O          49.5840  159.5600   31.3410 O.2        1 <1>        0.070
     24 O          49.6230  157.9920   29.7200 O.3        1 <1>        0.110
     25 C5         50.9980  157.7530   30.0790 C.3        1 <1>        0.010
     26 H1         51.6108  158.6546   29.9321 H          1 <1>        0.000
     27 H3         51.0850  157.4128   31.1215 H          1 <1>        0.000
     28 O1         52.9290  158.1850   27.9940 O.3        1 <1>        0.430
     29 H1         53.3654  158.1680   27.1503 H          1 <1>        0.000
     30 C1         47.0830  160.3270   31.1510 C.3        1 <1>        0.290
     31 C2         47.5870  159.2690   30.1530 C.3        1 <1>        0.000
     32 H1         47.1670  159.9349   32.1753 H          1 <1>        0.000
     33 H2         46.0312  160.5650   30.9340 H          1 <1>        0.000
     34 H3         47.6916  161.2384   31.0571 H          1 <1>        0.000
     35 H4         46.9784  158.3575   30.2469 H          1 <1>        0.000
     36 H6         47.5030  159.6611   29.1287 H          1 <1>        0.000
     37 C1         53.0920  149.7880   26.0700 C.3        1 <1>       -0.060
     38 O3         51.7610  149.3040   26.2660 O.3        1 <1>        0.830
     39 H4         53.7377  149.4261   26.8837 H          1 <1>        0.000
     40 H5         53.4772  149.4228   25.1065 H          1 <1>        0.000
     41 H6         51.7580  148.3540   26.2690 H          1 <1>        0.000
     42 O1         55.5510  156.0300   24.1110 O.3        1 <1>        0.070
     43 H1         56.4976  156.0750   24.1780 H          1 <1>        0.000
@<TRIPOS>BOND
     1    5    6 ar 
     2    5    4 ar 
     3    6    3 ar 
     4    4    1 ar 
     5    3    2 ar 
     6    1    2 ar 
     7    2    7 1  
     8    3    8 1  
     9    5    9 1  
    10   10   11 1  
    11   10   14 1  
    12   11   12 2  
    13   12   13 1  
    14   13   14 2  
    15   10   15 1  
    16    6   13 1  
    17   17   16 1  
    18   16   18 1  
    19   16   19 1  
    20   17   20 1  
    21   17   21 1  
    22   14   17 1  
    23   22   23 2  
    24   22   24 1  
    25   24   25 1  
    26   25   26 1  
    27   25   27 1  
    28    1   25 1  
    29   28   29 1  
    30    4   28 1  
    31   31   30 1  
    32   30   32 1  
    33   30   33 1  
    34   30   34 1  
    35   31   35 1  
    36   31   36 1  
    37   22   31 1  
    38   37   38 1  
    39   37   39 1  
    40   37   40 1  
    41   38   41 1  
    42   11   37 1  
    43   42   43 1  
    44   16   42 1  
# Name:          No_7_137
# Creation time: Thu Mar 21 15:54:18 2024


@<TRIPOS>MOLECULE
000003_000005
   43    44     1     1     1
SMALL
USER_CHARGES


@<TRIPOS>ATOM
      1 C9         51.5330  156.6540   29.1670 C.ar       1 <1>        0.170
      2 C10        51.0810  155.3840   29.3060 C.ar       1 <1>        0.240
      3 C11        51.5320  154.3980   28.4740 C.ar       1 <1>        0.240
      4 C14        52.4340  156.8960   28.1560 C.ar       1 <1>        0.110
      5 C13        52.8680  155.8980   27.2900 C.ar       1 <1>        0.220
      6 C12        52.4150  154.6130   27.4780 C.ar       1 <1>        0.210
      7 H          50.3592  155.1490   30.0798 H          1 <1>        0.000
      8 H          51.1599  153.3908   28.6230 H          1 <1>        0.000
      9 H          53.5512  156.1291   26.4808 H          1 <1>        0.000
     10 N1         53.5160  152.0540   25.1160 N.pl3      1 <1>        0.270
     11 C1         53.0830  151.2890   26.0690 C.2        1 <1>        0.050
     12 N2         52.6490  152.0030   27.0040 N.2        1 <1>        0.550
     13 C2         52.7940  153.3950   26.6700 C.2        1 <1>        0.100
     14 C3         53.3560  153.3160   25.4470 C.2        1 <1>        0.050
     15 H1         53.9242  151.7218   24.2306 H          1 <1>        0.000
     16 C1         55.1870  154.9070   24.9180 C.3        1 <1>        0.040
     17 C2         53.7380  154.4950   24.6010 C.3        1 <1>        0.020
     18 H1         55.2680  155.1771   25.9812 H          1 <1>        0.000
     19 H3         55.8626  154.0665   24.7011 H          1 <1>        0.000
     20 H4         53.0624  155.3355   24.8179 H          1 <1>        0.000
     21 H6         53.6570  154.2249   23.5377 H          1 <1>        0.000
     22 C          49.0220  158.9440   30.4490 C.2        1 <1>        0.030
     23 O          49.5840  159.5600   31.3410 O.2        1 <1>        0.070
     24 O          49.6230  157.9920   29.7200 O.3        1 <1>        0.110
     25 C5         50.9980  157.7530   30.0790 C.3        1 <1>        0.010
     26 H1         51.6108  158.6546   29.9321 H          1 <1>        0.000
     27 H3         51.0850  157.4128   31.1215 H          1 <1>        0.000
     28 O1         52.9290  158.1850   27.9940 O.3        1 <1>        0.430
     29 H1         53.3654  158.1680   27.1503 H          1 <1>        0.000
     30 C1         47.0830  160.3270   31.1510 C.3        1 <1>        0.290
     31 C2         47.5870  159.2690   30.1530 C.3        1 <1>        0.000
     32 H1         47.1670  159.9349   32.1753 H          1 <1>        0.000
     33 H2         46.0312  160.5650   30.9340 H          1 <1>        0.000
     34 H3         47.6916  161.2384   31.0571 H          1 <1>        0.000
     35 H4         46.9784  158.3575   30.2469 H          1 <1>        0.000
     36 H6         47.5030  159.6611   29.1287 H          1 <1>        0.000
     37 C1         53.0920  149.7880   26.0700 C.3        1 <1>       -0.060
     38 O3         51.7610  149.3040   26.2660 O.3        1 <1>        0.830
     39 H4         53.7377  149.4261   26.8837 H          1 <1>        0.000
     40 H5         53.4772  149.4228   25.1065 H          1 <1>        0.000
     41 H6         51.7580  148.3540   26.2690 H          1 <1>        0.000
     42 O1         55.5510  156.0300   24.1110 O.3        1 <1>        0.070
     43 H1         55.7351  155.6599   23.2557 H          1 <1>        0.000
@<TRIPOS>BOND
     1    5    6 ar 
     2    5    4 ar 
     3    6    3 ar 
     4    4    1 ar 
     5    3    2 ar 
     6    1    2 ar 
     7    2    7 1  
     8    3    8 1  
     9    5    9 1  
    10   10   11 1  
    11   10   14 1  
    12   11   12 2  
    13   12   13 1  
    14   13   14 2  
    15   10   15 1  
    16    6   13 1  
    17   17   16 1  
    18   16   18 1  
    19   16   19 1  
    20   17   20 1  
    21   17   21 1  
    22   14   17 1  
    23   22   23 2  
    24   22   24 1  
    25   24   25 1  
    26   25   26 1  
    27   25   27 1  
    28    1   25 1  
    29   28   29 1  
    30    4   28 1  
    31   31   30 1  
    32   30   32 1  
    33   30   33 1  
    34   30   34 1  
    35   31   35 1  
    36   31   36 1  
    37   22   31 1  
    38   37   38 1  
    39   37   39 1  
    40   37   40 1  
    41   38   41 1  
    42   11   37 1  
    43   42   43 1  
    44   16   42 1  
# Name:          No_7_138
# Creation time: Thu Mar 21 15:54:18 2024


@<TRIPOS>MOLECULE
000003_000006
   43    44     1     1     1
SMALL
USER_CHARGES


@<TRIPOS>ATOM
      1 C9         51.5330  156.6540   29.1670 C.ar       1 <1>        0.170
      2 C10        51.0810  155.3840   29.3060 C.ar       1 <1>        0.240
      3 C11        51.5320  154.3980   28.4740 C.ar       1 <1>        0.240
      4 C14        52.4340  156.8960   28.1560 C.ar       1 <1>        0.110
      5 C13        52.8680  155.8980   27.2900 C.ar       1 <1>        0.220
      6 C12        52.4150  154.6130   27.4780 C.ar       1 <1>        0.210
      7 H          50.3592  155.1490   30.0798 H          1 <1>        0.000
      8 H          51.1599  153.3908   28.6230 H          1 <1>        0.000
      9 H          53.5512  156.1291   26.4808 H          1 <1>        0.000
     10 N1         53.5160  152.0540   25.1160 N.pl3      1 <1>        0.270
     11 C1         53.0830  151.2890   26.0690 C.2        1 <1>        0.050
     12 N2         52.6490  152.0030   27.0040 N.2        1 <1>        0.550
     13 C2         52.7940  153.3950   26.6700 C.2        1 <1>        0.100
     14 C3         53.3560  153.3160   25.4470 C.2        1 <1>        0.050
     15 H1         53.9242  151.7218   24.2306 H          1 <1>        0.000
     16 C1         55.1870  154.9070   24.9180 C.3        1 <1>        0.040
     17 C2         53.7380  154.4950   24.6010 C.3        1 <1>        0.020
     18 H1         55.2680  155.1771   25.9812 H          1 <1>        0.000
     19 H3         55.8626  154.0665   24.7011 H          1 <1>        0.000
     20 H4         53.0624  155.3355   24.8179 H          1 <1>        0.000
     21 H6         53.6570  154.2249   23.5377 H          1 <1>        0.000
     22 C          49.0220  158.9440   30.4490 C.2        1 <1>        0.030
     23 O          49.5840  159.5600   31.3410 O.2        1 <1>        0.070
     24 O          49.6230  157.9920   29.7200 O.3        1 <1>        0.110
     25 C5         50.9980  157.7530   30.0790 C.3        1 <1>        0.010
     26 H1         51.6108  158.6546   29.9321 H          1 <1>        0.000
     27 H3         51.0850  157.4128   31.1215 H          1 <1>        0.000
     28 O1         52.9290  158.1850   27.9940 O.3        1 <1>        0.430
     29 H1         53.3654  158.1680   27.1503 H          1 <1>        0.000
     30 C1         47.0830  160.3270   31.1510 C.3        1 <1>        0.290
     31 C2         47.5870  159.2690   30.1530 C.3        1 <1>        0.000
     32 H1         47.1670  159.9349   32.1753 H          1 <1>        0.000
     33 H2         46.0312  160.5650   30.9340 H          1 <1>        0.000
     34 H3         47.6916  161.2384   31.0571 H          1 <1>        0.000
     35 H4         46.9784  158.3575   30.2469 H          1 <1>        0.000
     36 H6         47.5030  159.6611   29.1287 H          1 <1>        0.000
     37 C1         53.0920  149.7880   26.0700 C.3        1 <1>       -0.060
     38 O3         51.7610  149.3040   26.2660 O.3        1 <1>        0.830
     39 H4         53.7377  149.4261   26.8837 H          1 <1>        0.000
     40 H5         53.4772  149.4228   25.1065 H          1 <1>        0.000
     41 H6         51.7580  148.3540   26.2690 H          1 <1>        0.000
     42 O1         55.5510  156.0300   24.1110 O.3        1 <1>        0.070
     43 H1         55.2360  155.8110   23.2419 H          1 <1>        0.000
@<TRIPOS>BOND
     1    5    6 ar 
     2    5    4 ar 
     3    6    3 ar 
     4    4    1 ar 
     5    3    2 ar 
     6    1    2 ar 
     7    2    7 1  
     8    3    8 1  
     9    5    9 1  
    10   10   11 1  
    11   10   14 1  
    12   11   12 2  
    13   12   13 1  
    14   13   14 2  
    15   10   15 1  
    16    6   13 1  
    17   17   16 1  
    18   16   18 1  
    19   16   19 1  
    20   17   20 1  
    21   17   21 1  
    22   14   17 1  
    23   22   23 2  
    24   22   24 1  
    25   24   25 1  
    26   25   26 1  
    27   25   27 1  
    28    1   25 1  
    29   28   29 1  
    30    4   28 1  
    31   31   30 1  
    32   30   32 1  
    33   30   33 1  
    34   30   34 1  
    35   31   35 1  
    36   31   36 1  
    37   22   31 1  
    38   37   38 1  
    39   37   39 1  
    40   37   40 1  
    41   38   41 1  
    42   11   37 1  
    43   42   43 1  
    44   16   42 1  
# Name:          No_7_76
# Creation time: Thu Mar 21 15:54:18 2024


@<TRIPOS>MOLECULE
000004_000001
   47    48     1     1     1
SMALL
USER_CHARGES


@<TRIPOS>ATOM
      1 C9         51.5330  156.6540   29.1670 C.ar       1 <1>        0.170
      2 C10        51.0810  155.3840   29.3060 C.ar       1 <1>        0.240
      3 C11        51.5320  154.3980   28.4740 C.ar       1 <1>        0.240
      4 C14        52.4340  156.8960   28.1560 C.ar       1 <1>        0.230
      5 C13        52.8680  155.8980   27.2900 C.ar       1 <1>        0.220
      6 C12        52.4150  154.6130   27.4780 C.ar       1 <1>        0.210
      7 H          50.3592  155.1490   30.0798 H          1 <1>        0.000
      8 H          51.1599  153.3908   28.6230 H          1 <1>        0.000
      9 H          52.8200  157.9011   28.0300 H          1 <1>        0.000
     10 H          53.5512  156.1291   26.4808 H          1 <1>        0.000
     11 N1         53.5160  152.0540   25.1160 N.pl3      1 <1>        0.270
     12 C1         53.0830  151.2890   26.0690 C.2        1 <1>        0.050
     13 N2         52.6490  152.0030   27.0040 N.2        1 <1>        0.550
     14 C2         52.7940  153.3950   26.6700 C.2        1 <1>        0.100
     15 C3         53.3560  153.3160   25.4470 C.2        1 <1>        0.050
     16 H1         53.9242  151.7218   24.2306 H          1 <1>        0.000
     17 C1         55.1870  154.9070   24.9180 C.3        1 <1>        0.260
     18 C2         53.7380  154.4950   24.6010 C.3        1 <1>        0.060
     19 H1         55.2680  155.1771   25.9812 H          1 <1>        0.000
     20 H2         55.4669  155.7708   24.2971 H          1 <1>        0.000
     21 H3         55.8626  154.0665   24.7011 H          1 <1>        0.000
     22 H4         53.0624  155.3355   24.8179 H          1 <1>        0.000
     23 H6         53.6570  154.2249   23.5377 H          1 <1>        0.000
     24 C          49.0220  158.9440   30.4490 C.2        1 <1>        0.030
     25 O          49.5840  159.5600   31.3410 O.2        1 <1>        0.070
     26 O          49.6230  157.9920   29.7200 O.3        1 <1>        0.110
     27 C5         50.9980  157.7530   30.0790 C.3        1 <1>        0.010
     28 H1         51.6108  158.6546   29.9321 H          1 <1>        0.000
     29 H3         51.0850  157.4128   31.1215 H          1 <1>        0.000
     30 C1         53.0920  149.7880   26.0700 C.3        1 <1>       -0.060
     31 H2         53.2151  149.4217   25.0401 H          1 <1>        0.000
     32 O3         51.8570  149.3050   26.6050 O.3        1 <1>        0.840
     33 H5         53.9263  149.4273   26.6895 H          1 <1>        0.000
     34 H6         51.7440  149.6179   27.4948 H          1 <1>        0.000
     35 C1         47.1970  160.5560   30.8730 C.3        1 <1>        0.000
     36 C2         47.5870  159.2690   30.1530 C.3        1 <1>       -0.040
     37 H3         47.8379  161.3799   30.5260 H          1 <1>        0.000
     38 H4         46.1452  160.7940   30.6560 H          1 <1>        0.000
     39 H6         46.9463  158.4453   30.5009 H          1 <1>        0.000
     40 H8         47.4570  159.4010   29.0687 H          1 <1>        0.000
     41 C1         48.0240  161.3200   33.0230 C.2        1 <1>        0.110
     42 O1         48.4720  162.3140   32.4720 O.2        1 <1>        0.090
     43 N1         47.3680  160.3810   32.3030 N.am       1 <1>        0.060
     44 N2         48.1830  161.1540   34.3570 N.am       1 <1>       -0.020
     45 H1         46.9939  159.5599   32.7341 H          1 <1>        0.000
     46 H3         47.8241  160.3481   34.8279 H          1 <1>        0.000
     47 H4         48.6674  161.8466   34.8915 H          1 <1>        0.000
@<TRIPOS>BOND
     1    5    6 ar 
     2    5    4 ar 
     3    6    3 ar 
     4    4    1 ar 
     5    3    2 ar 
     6    1    2 ar 
     7    2    7 1  
     8    3    8 1  
     9    4    9 1  
    10    5   10 1  
    11   11   12 1  
    12   11   15 1  
    13   12   13 2  
    14   13   14 1  
    15   14   15 2  
    16   11   16 1  
    17    6   14 1  
    18   18   17 1  
    19   17   19 1  
    20   17   20 1  
    21   17   21 1  
    22   18   22 1  
    23   18   23 1  
    24   15   18 1  
    25   24   25 2  
    26   24   26 1  
    27   26   27 1  
    28   27   28 1  
    29   27   29 1  
    30    1   27 1  
    31   30   31 1  
    32   30   32 1  
    33   30   33 1  
    34   32   34 1  
    35   12   30 1  
    36   36   35 1  
    37   35   37 1  
    38   35   38 1  
    39   36   39 1  
    40   36   40 1  
    41   24   36 1  
    42   41   42 2  
    43   41   43 am 
    44   41   44 am 
    45   43   45 1  
    46   44   46 1  
    47   44   47 1  
    48   35   43 1   
# Name:          No_5_63
# Creation time: Thu Mar 21 16:03:10 2024


@<TRIPOS>MOLECULE
000001_000001
   39    40     1     1     1
SMALL
USER_CHARGES


@<TRIPOS>ATOM
      1 C3         48.3850  160.2610   31.8350 C.ar       1 <1>        0.160
      2 C2         49.1650  159.5160   30.9410 C.ar       1 <1>        0.210
      3 C4         48.9530  161.3100   32.5280 C.ar       1 <1>        0.220
      4 C5         50.2720  161.6360   32.3310 C.ar       1 <1>        0.220
      5 C6         51.0530  160.9240   31.4430 C.ar       1 <1>        0.220
      6 C1         50.4850  159.8520   30.7440 C.ar       1 <1>        0.200
      7 H          48.7308  158.6786   30.4068 H          1 <1>        0.000
      8 H          48.3551  161.8789   33.2308 H          1 <1>        0.000
      9 H          50.7059  162.4639   32.8799 H          1 <1>        0.000
     10 H          52.0922  161.1911   31.2890 H          1 <1>        0.000
     11 N1         46.2450  159.6930   30.7440 N.4        1 <1>        0.470
     12 C1         46.9120  159.9250   32.0440 C.3        1 <1>        0.080
     13 H2         46.6709  158.9282   30.2442 H          1 <1>        0.000
     14 H3         45.2696  159.4699   30.8660 H          1 <1>        0.000
     15 H5         46.4362  160.7616   32.5767 H          1 <1>        0.000
     16 H7         46.8460  159.0271   32.6759 H          1 <1>        0.000
     17 H1         46.2980  160.5079   30.1531 H          1 <1>        0.000
     18 N1         52.5550  159.2530   29.4830 N.pl3      1 <1>        0.020
     19 N2         52.9070  158.2600   28.6180 N.2        1 <1>        0.660
     20 C1         51.9530  157.4330   28.3920 C.2        1 <1>       -0.010
     21 N3         50.9120  157.9890   29.2120 N.2        1 <1>       -0.070
     22 C2         51.3210  159.0180   29.8020 C.2        1 <1>        0.110
     23 H1         53.1497  160.0266   29.8128 H          1 <1>        0.000
     24 C1         51.6620  153.6710   27.4840 C.3        1 <1>        0.160
     25 C2         51.6900  154.9460   28.3660 C.3        1 <1>        0.160
     26 C3         51.9310  156.2180   27.5120 C.3        1 <1>       -0.060
     27 H1         51.4900  152.7817   28.1082 H          1 <1>        0.000
     28 H3         50.8543  153.7370   26.7402 H          1 <1>        0.000
     29 H4         52.4910  154.8520   29.1140 H          1 <1>        0.000
     30 H5         50.7319  155.0410   28.8980 H          1 <1>        0.000
     31 H7         51.1289  156.3380   26.7689 H          1 <1>        0.000
     32 H8         52.8941  156.1490   26.9850 H          1 <1>        0.000
     33 N1         54.1140  153.3750   27.7140 N.4        1 <1>        1.280
     34 C1         53.0020  153.4990   26.7450 C.3        1 <1>        0.050
     35 H2         53.9870  152.5780   28.3180 H          1 <1>        0.000
     36 H3         54.9986  153.2620   27.2442 H          1 <1>        0.000
     37 H5         53.1550  154.3718   26.0932 H          1 <1>        0.000
     38 H7         52.9400  152.6001   26.1140 H          1 <1>        0.000
     39 H1         54.1830  154.1922   28.3001 H          1 <1>        0.000
@<TRIPOS>BOND
     1    6    2 ar 
     2    6    5 ar 
     3    2    1 ar 
     4    5    4 ar 
     5    1    3 ar 
     6    4    3 ar 
     7    2    7 1  
     8    3    8 1  
     9    4    9 1  
    10    5   10 1  
    11   11   12 1  
    12   11   13 1  
    13   11   14 1  
    14   12   15 1  
    15   12   16 1  
    16   11   17 1  
    17    1   12 1  
    18   18   19 1  
    19   18   22 1  
    20   19   20 2  
    21   20   21 1  
    22   21   22 2  
    23   18   23 1  
    24    6   22 1  
    25   25   24 1  
    26   25   26 1  
    27   24   27 1  
    28   24   28 1  
    29   25   29 1  
    30   25   30 1  
    31   26   31 1  
    32   26   32 1  
    33   20   26 1  
    34   33   34 1  
    35   33   35 1  
    36   33   36 1  
    37   34   37 1  
    38   34   38 1  
    39   33   39 1  
    40   24   34 1  
# Name:          No_6_2
# Creation time: Thu Mar 21 16:03:10 2024


@<TRIPOS>MOLECULE
000001_000002
   39    40     1     1     1
SMALL
USER_CHARGES


@<TRIPOS>ATOM
      1 C3         48.3850  160.2610   31.8350 C.ar       1 <1>        0.160
      2 C2         49.1650  159.5160   30.9410 C.ar       1 <1>        0.210
      3 C4         48.9530  161.3100   32.5280 C.ar       1 <1>        0.220
      4 C5         50.2720  161.6360   32.3310 C.ar       1 <1>        0.220
      5 C6         51.0530  160.9240   31.4430 C.ar       1 <1>        0.220
      6 C1         50.4850  159.8520   30.7440 C.ar       1 <1>        0.200
      7 H          48.7308  158.6786   30.4068 H          1 <1>        0.000
      8 H          48.3551  161.8789   33.2308 H          1 <1>        0.000
      9 H          50.7059  162.4639   32.8799 H          1 <1>        0.000
     10 H          52.0922  161.1911   31.2890 H          1 <1>        0.000
     11 N1         46.2450  159.6930   30.7440 N.4        1 <1>        0.470
     12 C1         46.9120  159.9250   32.0440 C.3        1 <1>        0.080
     13 H2         46.6709  158.9282   30.2442 H          1 <1>        0.000
     14 H3         45.2696  159.4699   30.8660 H          1 <1>        0.000
     15 H5         46.4362  160.7616   32.5767 H          1 <1>        0.000
     16 H7         46.8460  159.0271   32.6759 H          1 <1>        0.000
     17 H1         46.2980  160.5079   30.1531 H          1 <1>        0.000
     18 N1         52.5550  159.2530   29.4830 N.pl3      1 <1>        0.020
     19 N2         52.9070  158.2600   28.6180 N.2        1 <1>        0.660
     20 C1         51.9530  157.4330   28.3920 C.2        1 <1>       -0.010
     21 N3         50.9120  157.9890   29.2120 N.2        1 <1>       -0.070
     22 C2         51.3210  159.0180   29.8020 C.2        1 <1>        0.110
     23 H1         53.1497  160.0266   29.8128 H          1 <1>        0.000
     24 C1         51.6620  153.6710   27.4840 C.3        1 <1>        0.160
     25 C2         51.6900  154.9460   28.3660 C.3        1 <1>        0.160
     26 C3         51.9310  156.2180   27.5120 C.3        1 <1>       -0.060
     27 H1         51.4900  152.7817   28.1082 H          1 <1>        0.000
     28 H3         50.8543  153.7370   26.7402 H          1 <1>        0.000
     29 H4         52.4910  154.8520   29.1140 H          1 <1>        0.000
     30 H5         50.7319  155.0410   28.8980 H          1 <1>        0.000
     31 H7         51.1289  156.3380   26.7689 H          1 <1>        0.000
     32 H8         52.8941  156.1490   26.9850 H          1 <1>        0.000
     33 N1         54.1140  153.3750   27.7140 N.4        1 <1>        1.280
     34 C1         53.0020  153.4990   26.7450 C.3        1 <1>        0.050
     35 H2         53.9870  152.5780   28.3180 H          1 <1>        0.000
     36 H3         54.9986  153.2620   27.2442 H          1 <1>        0.000
     37 H5         53.1550  154.3718   26.0932 H          1 <1>        0.000
     38 H7         52.9400  152.6001   26.1140 H          1 <1>        0.000
     39 H1         54.1830  154.1922   28.3001 H          1 <1>        0.000
@<TRIPOS>BOND
     1    6    2 ar 
     2    6    5 ar 
     3    2    1 ar 
     4    5    4 ar 
     5    1    3 ar 
     6    4    3 ar 
     7    2    7 1  
     8    3    8 1  
     9    4    9 1  
    10    5   10 1  
    11   11   12 1  
    12   11   13 1  
    13   11   14 1  
    14   12   15 1  
    15   12   16 1  
    16   11   17 1  
    17    1   12 1  
    18   18   19 1  
    19   18   22 1  
    20   19   20 2  
    21   20   21 1  
    22   21   22 2  
    23   18   23 1  
    24    6   22 1  
    25   25   24 1  
    26   25   26 1  
    27   24   27 1  
    28   24   28 1  
    29   25   29 1  
    30   25   30 1  
    31   26   31 1  
    32   26   32 1  
    33   20   26 1  
    34   33   34 1  
    35   33   35 1  
    36   33   36 1  
    37   34   37 1  
    38   34   38 1  
    39   33   39 1  
    40   24   34 1  
# Name:          No_7_2
# Creation time: Thu Mar 21 16:03:10 2024


@<TRIPOS>MOLECULE
000001_000003
   39    40     1     1     1
SMALL
USER_CHARGES


@<TRIPOS>ATOM
      1 C3         48.3850  160.2610   31.8350 C.ar       1 <1>        0.160
      2 C2         49.1650  159.5160   30.9410 C.ar       1 <1>        0.210
      3 C4         48.9530  161.3100   32.5280 C.ar       1 <1>        0.220
      4 C5         50.2720  161.6360   32.3310 C.ar       1 <1>        0.220
      5 C6         51.0530  160.9240   31.4430 C.ar       1 <1>        0.220
      6 C1         50.4850  159.8520   30.7440 C.ar       1 <1>        0.200
      7 H          48.7308  158.6786   30.4068 H          1 <1>        0.000
      8 H          48.3551  161.8789   33.2308 H          1 <1>        0.000
      9 H          50.7059  162.4639   32.8799 H          1 <1>        0.000
     10 H          52.0922  161.1911   31.2890 H          1 <1>        0.000
     11 N1         46.2450  159.6930   30.7440 N.4        1 <1>        0.470
     12 C1         46.9120  159.9250   32.0440 C.3        1 <1>        0.080
     13 H2         46.6709  158.9282   30.2442 H          1 <1>        0.000
     14 H3         45.2696  159.4699   30.8660 H          1 <1>        0.000
     15 H5         46.4362  160.7616   32.5767 H          1 <1>        0.000
     16 H7         46.8460  159.0271   32.6759 H          1 <1>        0.000
     17 H1         46.2980  160.5079   30.1531 H          1 <1>        0.000
     18 N1         52.5550  159.2530   29.4830 N.pl3      1 <1>        0.020
     19 N2         52.9070  158.2600   28.6180 N.2        1 <1>        0.660
     20 C1         51.9530  157.4330   28.3920 C.2        1 <1>       -0.010
     21 N3         50.9120  157.9890   29.2120 N.2        1 <1>       -0.070
     22 C2         51.3210  159.0180   29.8020 C.2        1 <1>        0.110
     23 H1         53.1497  160.0266   29.8128 H          1 <1>        0.000
     24 C1         51.6620  153.6710   27.4840 C.3        1 <1>        0.160
     25 C2         51.6900  154.9460   28.3660 C.3        1 <1>        0.160
     26 C3         51.9310  156.2180   27.5120 C.3        1 <1>       -0.060
     27 H1         51.4900  152.7817   28.1082 H          1 <1>        0.000
     28 H3         50.8543  153.7370   26.7402 H          1 <1>        0.000
     29 H4         52.4910  154.8520   29.1140 H          1 <1>        0.000
     30 H5         50.7319  155.0410   28.8980 H          1 <1>        0.000
     31 H7         51.1289  156.3380   26.7689 H          1 <1>        0.000
     32 H8         52.8941  156.1490   26.9850 H          1 <1>        0.000
     33 N1         54.1140  153.3750   27.7140 N.4        1 <1>        1.280
     34 C1         53.0020  153.4990   26.7450 C.3        1 <1>        0.050
     35 H2         53.9870  152.5780   28.3180 H          1 <1>        0.000
     36 H3         54.9986  153.2620   27.2442 H          1 <1>        0.000
     37 H5         53.1550  154.3718   26.0932 H          1 <1>        0.000
     38 H7         52.9400  152.6001   26.1140 H          1 <1>        0.000
     39 H1         54.1830  154.1922   28.3001 H          1 <1>        0.000
@<TRIPOS>BOND
     1    6    2 ar 
     2    6    5 ar 
     3    2    1 ar 
     4    5    4 ar 
     5    1    3 ar 
     6    4    3 ar 
     7    2    7 1  
     8    3    8 1  
     9    4    9 1  
    10    5   10 1  
    11   11   12 1  
    12   11   13 1  
    13   11   14 1  
    14   12   15 1  
    15   12   16 1  
    16   11   17 1  
    17    1   12 1  
    18   18   19 1  
    19   18   22 1  
    20   19   20 2  
    21   20   21 1  
    22   21   22 2  
    23   18   23 1  
    24    6   22 1  
    25   25   24 1  
    26   25   26 1  
    27   24   27 1  
    28   24   28 1  
    29   25   29 1  
    30   25   30 1  
    31   26   31 1  
    32   26   32 1  
    33   20   26 1  
    34   33   34 1  
    35   33   35 1  
    36   33   36 1  
    37   34   37 1  
    38   34   38 1  
    39   33   39 1  
    40   24   34 1  
# Name:          No_6_143
# Creation time: Thu Mar 21 16:03:10 2024


@<TRIPOS>MOLECULE
000001_000004
   45    46     1     1     1
SMALL
USER_CHARGES


@<TRIPOS>ATOM
      1 C3         48.3850  160.2610   31.8350 C.ar       1 <1>        0.160
      2 C2         49.1650  159.5160   30.9410 C.ar       1 <1>        0.210
      3 C4         48.9530  161.3100   32.5280 C.ar       1 <1>        0.220
      4 C5         50.2720  161.6360   32.3310 C.ar       1 <1>        0.220
      5 C6         51.0530  160.9240   31.4430 C.ar       1 <1>        0.220
      6 C1         50.4850  159.8520   30.7440 C.ar       1 <1>        0.200
      7 H          48.7308  158.6786   30.4068 H          1 <1>        0.000
      8 H          48.3551  161.8789   33.2308 H          1 <1>        0.000
      9 H          50.7059  162.4639   32.8799 H          1 <1>        0.000
     10 H          52.0922  161.1911   31.2890 H          1 <1>        0.000
     11 N1         46.2450  159.6930   30.7440 N.4        1 <1>        0.470
     12 C1         46.9120  159.9250   32.0440 C.3        1 <1>        0.080
     13 H2         46.6709  158.9282   30.2442 H          1 <1>        0.000
     14 H3         45.2696  159.4699   30.8660 H          1 <1>        0.000
     15 H5         46.4362  160.7616   32.5767 H          1 <1>        0.000
     16 H7         46.8460  159.0271   32.6759 H          1 <1>        0.000
     17 H1         46.2980  160.5079   30.1531 H          1 <1>        0.000
     18 N1         52.5550  159.2530   29.4830 N.pl3      1 <1>        0.020
     19 N2         52.9070  158.2600   28.6180 N.2        1 <1>        0.660
     20 C1         51.9530  157.4330   28.3920 C.2        1 <1>       -0.010
     21 N3         50.9120  157.9890   29.2120 N.2        1 <1>       -0.070
     22 C2         51.3210  159.0180   29.8020 C.2        1 <1>        0.110
     23 H1         53.1497  160.0266   29.8128 H          1 <1>        0.000
     24 C1         51.6620  153.6710   27.4840 C.3        1 <1>        0.160
     25 C2         51.6900  154.9460   28.3660 C.3        1 <1>        0.160
     26 C3         51.9310  156.2180   27.5120 C.3        1 <1>       -0.060
     27 H1         51.4900  152.7817   28.1082 H          1 <1>        0.000
     28 H3         50.8543  153.7370   26.7402 H          1 <1>        0.000
     29 H4         52.4910  154.8520   29.1140 H          1 <1>        0.000
     30 H5         50.7319  155.0410   28.8980 H          1 <1>        0.000
     31 H7         51.1289  156.3380   26.7689 H          1 <1>        0.000
     32 H8         52.8941  156.1490   26.9850 H          1 <1>        0.000
     33 C1         52.8260  153.8780   25.2770 C.3        1 <1>        0.150
     34 C2         53.0020  153.4990   26.7450 C.3        1 <1>        0.010
     35 H3         52.0686  153.2257   24.8178 H          1 <1>        0.000
     36 H4         52.4999  154.9262   25.2060 H          1 <1>        0.000
     37 H6         53.7599  154.1509   27.2039 H          1 <1>        0.000
     38 H7         53.3281  152.4508   26.8160 H          1 <1>        0.000
     39 N1         55.1180  154.7670   24.9400 N.4        1 <1>        0.540
     40 C1         54.1670  153.7060   24.5390 C.3        1 <1>        0.050
     41 H2         56.0010  154.6680   24.4640 H          1 <1>        0.000
     42 H3         54.7579  155.6833   24.7239 H          1 <1>        0.000
     43 H6         54.5734  152.7130   24.7813 H          1 <1>        0.000
     44 H7         53.9761  153.7500   23.4566 H          1 <1>        0.000
     45 H1         55.3021  154.7390   25.9306 H          1 <1>        0.000
@<TRIPOS>BOND
     1    6    2 ar 
     2    6    5 ar 
     3    2    1 ar 
     4    5    4 ar 
     5    1    3 ar 
     6    4    3 ar 
     7    2    7 1  
     8    3    8 1  
     9    4    9 1  
    10    5   10 1  
    11   11   12 1  
    12   11   13 1  
    13   11   14 1  
    14   12   15 1  
    15   12   16 1  
    16   11   17 1  
    17    1   12 1  
    18   18   19 1  
    19   18   22 1  
    20   19   20 2  
    21   20   21 1  
    22   21   22 2  
    23   18   23 1  
    24    6   22 1  
    25   25   24 1  
    26   25   26 1  
    27   24   27 1  
    28   24   28 1  
    29   25   29 1  
    30   25   30 1  
    31   26   31 1  
    32   26   32 1  
    33   20   26 1  
    34   34   33 1  
    35   33   35 1  
    36   33   36 1  
    37   34   37 1  
    38   34   38 1  
    39   24   34 1  
    40   39   40 1  
    41   39   41 1  
    42   39   42 1  
    43   40   43 1  
    44   40   44 1  
    45   39   45 1  
    46   33   40 1  
# Name:          No_7_11
# Creation time: Thu Mar 21 16:03:10 2024


@<TRIPOS>MOLECULE
000001_000005
   45    46     1     1     1
SMALL
USER_CHARGES


@<TRIPOS>ATOM
      1 C3         48.3850  160.2610   31.8350 C.ar       1 <1>        0.160
      2 C2         49.1650  159.5160   30.9410 C.ar       1 <1>        0.210
      3 C4         48.9530  161.3100   32.5280 C.ar       1 <1>        0.220
      4 C5         50.2720  161.6360   32.3310 C.ar       1 <1>        0.220
      5 C6         51.0530  160.9240   31.4430 C.ar       1 <1>        0.220
      6 C1         50.4850  159.8520   30.7440 C.ar       1 <1>        0.200
      7 H          48.7308  158.6786   30.4068 H          1 <1>        0.000
      8 H          48.3551  161.8789   33.2308 H          1 <1>        0.000
      9 H          50.7059  162.4639   32.8799 H          1 <1>        0.000
     10 H          52.0922  161.1911   31.2890 H          1 <1>        0.000
     11 N1         46.2450  159.6930   30.7440 N.4        1 <1>        0.470
     12 C1         46.9120  159.9250   32.0440 C.3        1 <1>        0.080
     13 H2         46.6709  158.9282   30.2442 H          1 <1>        0.000
     14 H3         45.2696  159.4699   30.8660 H          1 <1>        0.000
     15 H5         46.4362  160.7616   32.5767 H          1 <1>        0.000
     16 H7         46.8460  159.0271   32.6759 H          1 <1>        0.000
     17 H1         46.2980  160.5079   30.1531 H          1 <1>        0.000
     18 N1         52.5550  159.2530   29.4830 N.pl3      1 <1>        0.020
     19 N2         52.9070  158.2600   28.6180 N.2        1 <1>        0.660
     20 C1         51.9530  157.4330   28.3920 C.2        1 <1>       -0.010
     21 N3         50.9120  157.9890   29.2120 N.2        1 <1>       -0.070
     22 C2         51.3210  159.0180   29.8020 C.2        1 <1>        0.110
     23 H1         53.1497  160.0266   29.8128 H          1 <1>        0.000
     24 C1         51.6620  153.6710   27.4840 C.3        1 <1>        0.160
     25 C2         51.6900  154.9460   28.3660 C.3        1 <1>        0.160
     26 C3         51.9310  156.2180   27.5120 C.3        1 <1>       -0.060
     27 H1         51.4900  152.7817   28.1082 H          1 <1>        0.000
     28 H3         50.8543  153.7370   26.7402 H          1 <1>        0.000
     29 H4         52.4910  154.8520   29.1140 H          1 <1>        0.000
     30 H5         50.7319  155.0410   28.8980 H          1 <1>        0.000
     31 H7         51.1289  156.3380   26.7689 H          1 <1>        0.000
     32 H8         52.8941  156.1490   26.9850 H          1 <1>        0.000
     33 C1         52.8260  153.8780   25.2770 C.3        1 <1>        0.150
     34 C2         53.0020  153.4990   26.7450 C.3        1 <1>        0.010
     35 H3         52.0686  153.2257   24.8178 H          1 <1>        0.000
     36 H4         52.4999  154.9262   25.2060 H          1 <1>        0.000
     37 H6         53.7599  154.1509   27.2039 H          1 <1>        0.000
     38 H7         53.3281  152.4508   26.8160 H          1 <1>        0.000
     39 N1         55.1180  154.7670   24.9400 N.4        1 <1>        0.540
     40 C1         54.1670  153.7060   24.5390 C.3        1 <1>        0.050
     41 H2         56.0010  154.6680   24.4640 H          1 <1>        0.000
     42 H3         54.7579  155.6833   24.7239 H          1 <1>        0.000
     43 H6         54.5734  152.7130   24.7813 H          1 <1>        0.000
     44 H7         53.9761  153.7500   23.4566 H          1 <1>        0.000
     45 H1         55.3021  154.7390   25.9306 H          1 <1>        0.000
@<TRIPOS>BOND
     1    6    2 ar 
     2    6    5 ar 
     3    2    1 ar 
     4    5    4 ar 
     5    1    3 ar 
     6    4    3 ar 
     7    2    7 1  
     8    3    8 1  
     9    4    9 1  
    10    5   10 1  
    11   11   12 1  
    12   11   13 1  
    13   11   14 1  
    14   12   15 1  
    15   12   16 1  
    16   11   17 1  
    17    1   12 1  
    18   18   19 1  
    19   18   22 1  
    20   19   20 2  
    21   20   21 1  
    22   21   22 2  
    23   18   23 1  
    24    6   22 1  
    25   25   24 1  
    26   25   26 1  
    27   24   27 1  
    28   24   28 1  
    29   25   29 1  
    30   25   30 1  
    31   26   31 1  
    32   26   32 1  
    33   20   26 1  
    34   34   33 1  
    35   33   35 1  
    36   33   36 1  
    37   34   37 1  
    38   34   38 1  
    39   24   34 1  
    40   39   40 1  
    41   39   41 1  
    42   39   42 1  
    43   40   43 1  
    44   40   44 1  
    45   39   45 1  
    46   33   40 1  
# Name:          No_7_109
# Creation time: Thu Mar 21 16:03:10 2024


@<TRIPOS>MOLECULE
000001_000006
   45    46     1     1     1
SMALL
USER_CHARGES


@<TRIPOS>ATOM
      1 C3         48.3850  160.2610   31.8350 C.ar       1 <1>        0.160
      2 C2         49.1650  159.5160   30.9410 C.ar       1 <1>        0.210
      3 C4         48.9530  161.3100   32.5280 C.ar       1 <1>        0.220
      4 C5         50.2720  161.6360   32.3310 C.ar       1 <1>        0.100
      5 C6         51.0530  160.9240   31.4430 C.ar       1 <1>        0.220
      6 C1         50.4850  159.8520   30.7440 C.ar       1 <1>        0.200
      7 H          48.7308  158.6786   30.4068 H          1 <1>        0.000
      8 H          48.3551  161.8789   33.2308 H          1 <1>        0.000
      9 H          52.0922  161.1911   31.2890 H          1 <1>        0.000
     10 N1         46.2450  159.6930   30.7440 N.4        1 <1>        0.470
     11 C1         46.9120  159.9250   32.0440 C.3        1 <1>        0.080
     12 H2         46.6709  158.9282   30.2442 H          1 <1>        0.000
     13 H3         45.2696  159.4699   30.8660 H          1 <1>        0.000
     14 H5         46.4362  160.7616   32.5767 H          1 <1>        0.000
     15 H7         46.8460  159.0271   32.6759 H          1 <1>        0.000
     16 H1         46.2980  160.5079   30.1531 H          1 <1>        0.000
     17 N1         52.5550  159.2530   29.4830 N.pl3      1 <1>        0.020
     18 N2         52.9070  158.2600   28.6180 N.2        1 <1>        0.660
     19 C1         51.9530  157.4330   28.3920 C.2        1 <1>       -0.010
     20 N3         50.9120  157.9890   29.2120 N.2        1 <1>       -0.070
     21 C2         51.3210  159.0180   29.8020 C.2        1 <1>        0.110
     22 H1         53.1497  160.0266   29.8128 H          1 <1>        0.000
     23 C1         51.6620  153.6710   27.4840 C.3        1 <1>        0.160
     24 C2         51.6900  154.9460   28.3660 C.3        1 <1>        0.160
     25 C3         51.9310  156.2180   27.5120 C.3        1 <1>       -0.060
     26 H1         51.4900  152.7817   28.1082 H          1 <1>        0.000
     27 H3         50.8543  153.7370   26.7402 H          1 <1>        0.000
     28 H4         52.4910  154.8520   29.1140 H          1 <1>        0.000
     29 H5         50.7319  155.0410   28.8980 H          1 <1>        0.000
     30 H7         51.1289  156.3380   26.7689 H          1 <1>        0.000
     31 H8         52.8941  156.1490   26.9850 H          1 <1>        0.000
     32 C1         52.8260  153.8780   25.2770 C.3        1 <1>        0.020
     33 C2         53.0020  153.4990   26.7450 C.3        1 <1>        0.010
     34 H3         52.0686  153.2257   24.8178 H          1 <1>        0.000
     35 H4         52.4999  154.9262   25.2060 H          1 <1>        0.000
     36 H6         53.7599  154.1509   27.2039 H          1 <1>        0.000
     37 H7         53.3281  152.4508   26.8160 H          1 <1>        0.000
     38 O1         50.8290  162.6970   33.0350 O.3        1 <1>        0.550
     39 H1         51.7200  162.4217   33.2162 H          1 <1>        0.000
     40 C1         54.8010  155.0080   24.5120 C.3        1 <1>        0.100
     41 N2         54.1060  153.7140   24.5730 N.3        1 <1>        0.040
     42 H1         54.9890  155.3711   25.5332 H          1 <1>        0.000
     43 H2         54.1759  155.7351   23.9729 H          1 <1>        0.000
     44 H3         55.7588  154.8850   23.9851 H          1 <1>        0.000
     45 H5         54.7193  152.9997   25.1022 H          1 <1>        0.000
@<TRIPOS>BOND
     1    6    2 ar 
     2    6    5 ar 
     3    2    1 ar 
     4    5    4 ar 
     5    1    3 ar 
     6    4    3 ar 
     7    2    7 1  
     8    3    8 1  
     9    5    9 1  
    10   10   11 1  
    11   10   12 1  
    12   10   13 1  
    13   11   14 1  
    14   11   15 1  
    15   10   16 1  
    16    1   11 1  
    17   17   18 1  
    18   17   21 1  
    19   18   19 2  
    20   19   20 1  
    21   20   21 2  
    22   17   22 1  
    23    6   21 1  
    24   24   23 1  
    25   24   25 1  
    26   23   26 1  
    27   23   27 1  
    28   24   28 1  
    29   24   29 1  
    30   25   30 1  
    31   25   31 1  
    32   19   25 1  
    33   33   32 1  
    34   32   34 1  
    35   32   35 1  
    36   33   36 1  
    37   33   37 1  
    38   23   33 1  
    39   38   39 1  
    40    4   38 1  
    41   41   40 1  
    42   40   42 1  
    43   40   43 1  
    44   40   44 1  
    45   41   45 1  
    46   32   41 1  
# Name:          No_7_131
# Creation time: Thu Mar 21 16:03:10 2024


@<TRIPOS>MOLECULE
000001_000007
   45    46     1     1     1
SMALL
USER_CHARGES


@<TRIPOS>ATOM
      1 C3         48.3850  160.2610   31.8350 C.ar       1 <1>        0.160
      2 C2         49.1650  159.5160   30.9410 C.ar       1 <1>        0.210
      3 C4         48.9530  161.3100   32.5280 C.ar       1 <1>        0.220
      4 C5         50.2720  161.6360   32.3310 C.ar       1 <1>        0.100
      5 C6         51.0530  160.9240   31.4430 C.ar       1 <1>        0.220
      6 C1         50.4850  159.8520   30.7440 C.ar       1 <1>        0.200
      7 H          48.7308  158.6786   30.4068 H          1 <1>        0.000
      8 H          48.3551  161.8789   33.2308 H          1 <1>        0.000
      9 H          52.0922  161.1911   31.2890 H          1 <1>        0.000
     10 N1         46.2450  159.6930   30.7440 N.4        1 <1>        0.470
     11 C1         46.9120  159.9250   32.0440 C.3        1 <1>        0.080
     12 H2         46.6709  158.9282   30.2442 H          1 <1>        0.000
     13 H3         45.2696  159.4699   30.8660 H          1 <1>        0.000
     14 H5         46.4362  160.7616   32.5767 H          1 <1>        0.000
     15 H7         46.8460  159.0271   32.6759 H          1 <1>        0.000
     16 H1         46.2980  160.5079   30.1531 H          1 <1>        0.000
     17 N1         52.5550  159.2530   29.4830 N.pl3      1 <1>        0.020
     18 N2         52.9070  158.2600   28.6180 N.2        1 <1>        0.660
     19 C1         51.9530  157.4330   28.3920 C.2        1 <1>       -0.010
     20 N3         50.9120  157.9890   29.2120 N.2        1 <1>       -0.070
     21 C2         51.3210  159.0180   29.8020 C.2        1 <1>        0.110
     22 H1         53.1497  160.0266   29.8128 H          1 <1>        0.000
     23 C1         51.6620  153.6710   27.4840 C.3        1 <1>        0.160
     24 C2         51.6900  154.9460   28.3660 C.3        1 <1>        0.160
     25 C3         51.9310  156.2180   27.5120 C.3        1 <1>       -0.060
     26 H1         51.4900  152.7817   28.1082 H          1 <1>        0.000
     27 H3         50.8543  153.7370   26.7402 H          1 <1>        0.000
     28 H4         52.4910  154.8520   29.1140 H          1 <1>        0.000
     29 H5         50.7319  155.0410   28.8980 H          1 <1>        0.000
     30 H7         51.1289  156.3380   26.7689 H          1 <1>        0.000
     31 H8         52.8941  156.1490   26.9850 H          1 <1>        0.000
     32 C1         52.8260  153.8780   25.2770 C.3        1 <1>        0.020
     33 C2         53.0020  153.4990   26.7450 C.3        1 <1>        0.010
     34 H3         52.0686  153.2257   24.8178 H          1 <1>        0.000
     35 H4         52.4999  154.9262   25.2060 H          1 <1>        0.000
     36 H6         53.7599  154.1509   27.2039 H          1 <1>        0.000
     37 H7         53.3281  152.4508   26.8160 H          1 <1>        0.000
     38 O1         50.8290  162.6970   33.0350 O.3        1 <1>        0.550
     39 H1         51.7200  162.4217   33.2162 H          1 <1>        0.000
     40 C1         54.8010  155.0080   24.5120 C.3        1 <1>        0.100
     41 N2         54.1060  153.7140   24.5730 N.3        1 <1>        0.040
     42 H1         54.1759  155.7351   23.9729 H          1 <1>        0.000
     43 H2         55.7581  154.8850   23.9839 H          1 <1>        0.000
     44 H3         54.9890  155.3719   25.5329 H          1 <1>        0.000
     45 H4         53.9211  153.3572   23.5706 H          1 <1>        0.000
@<TRIPOS>BOND
     1    6    2 ar 
     2    6    5 ar 
     3    2    1 ar 
     4    5    4 ar 
     5    1    3 ar 
     6    4    3 ar 
     7    2    7 1  
     8    3    8 1  
     9    5    9 1  
    10   10   11 1  
    11   10   12 1  
    12   10   13 1  
    13   11   14 1  
    14   11   15 1  
    15   10   16 1  
    16    1   11 1  
    17   17   18 1  
    18   17   21 1  
    19   18   19 2  
    20   19   20 1  
    21   20   21 2  
    22   17   22 1  
    23    6   21 1  
    24   24   23 1  
    25   24   25 1  
    26   23   26 1  
    27   23   27 1  
    28   24   28 1  
    29   24   29 1  
    30   25   30 1  
    31   25   31 1  
    32   19   25 1  
    33   33   32 1  
    34   32   34 1  
    35   32   35 1  
    36   33   36 1  
    37   33   37 1  
    38   23   33 1  
    39   38   39 1  
    40    4   38 1  
    41   41   40 1  
    42   40   42 1  
    43   40   43 1  
    44   40   44 1  
    45   41   45 1  
    46   32   41 1  
# Name:          No_7_113
# Creation time: Thu Mar 21 16:03:10 2024


@<TRIPOS>MOLECULE
000001_000008
   44    45     1     1     1
SMALL
USER_CHARGES


@<TRIPOS>ATOM
      1 C3         48.3850  160.2610   31.8350 C.ar       1 <1>        0.160
      2 C2         49.1650  159.5160   30.9410 C.ar       1 <1>        0.210
      3 C4         48.9530  161.3100   32.5280 C.ar       1 <1>        0.220
      4 C5         50.2720  161.6360   32.3310 C.ar       1 <1>        0.100
      5 C6         51.0530  160.9240   31.4430 C.ar       1 <1>        0.220
      6 C1         50.4850  159.8520   30.7440 C.ar       1 <1>        0.200
      7 H          48.7308  158.6786   30.4068 H          1 <1>        0.000
      8 H          48.3551  161.8789   33.2308 H          1 <1>        0.000
      9 H          52.0922  161.1911   31.2890 H          1 <1>        0.000
     10 N1         46.2450  159.6930   30.7440 N.4        1 <1>        0.470
     11 C1         46.9120  159.9250   32.0440 C.3        1 <1>        0.080
     12 H2         46.6709  158.9282   30.2442 H          1 <1>        0.000
     13 H3         45.2696  159.4699   30.8660 H          1 <1>        0.000
     14 H5         46.4362  160.7616   32.5767 H          1 <1>        0.000
     15 H7         46.8460  159.0271   32.6759 H          1 <1>        0.000
     16 H1         46.2980  160.5079   30.1531 H          1 <1>        0.000
     17 N1         52.5550  159.2530   29.4830 N.pl3      1 <1>        0.020
     18 N2         52.9070  158.2600   28.6180 N.2        1 <1>        0.660
     19 C1         51.9530  157.4330   28.3920 C.2        1 <1>       -0.010
     20 N3         50.9120  157.9890   29.2120 N.2        1 <1>       -0.070
     21 C2         51.3210  159.0180   29.8020 C.2        1 <1>        0.110
     22 H1         53.1497  160.0266   29.8128 H          1 <1>        0.000
     23 C1         51.6620  153.6710   27.4840 C.3        1 <1>        0.160
     24 C2         51.6900  154.9460   28.3660 C.3        1 <1>        0.160
     25 C3         51.9310  156.2180   27.5120 C.3        1 <1>       -0.060
     26 H1         51.4900  152.7817   28.1082 H          1 <1>        0.000
     27 H3         50.8543  153.7370   26.7402 H          1 <1>        0.000
     28 H4         52.4910  154.8520   29.1140 H          1 <1>        0.000
     29 H5         50.7319  155.0410   28.8980 H          1 <1>        0.000
     30 H7         51.1289  156.3380   26.7689 H          1 <1>        0.000
     31 H8         52.8941  156.1490   26.9850 H          1 <1>        0.000
     32 C1         52.8260  153.8780   25.2770 C.3        1 <1>        0.020
     33 C2         53.0020  153.4990   26.7450 C.3        1 <1>        0.010
     34 H3         52.0686  153.2257   24.8178 H          1 <1>        0.000
     35 H4         52.4999  154.9262   25.2060 H          1 <1>        0.000
     36 H6         53.7599  154.1509   27.2039 H          1 <1>        0.000
     37 H7         53.3281  152.4508   26.8160 H          1 <1>        0.000
     38 O1         50.8290  162.6970   33.0350 O.3        1 <1>        0.550
     39 H1         51.7200  162.4217   33.2162 H          1 <1>        0.000
     40 C1         54.8680  154.8920   24.7720 C.3        1 <1>        0.100
     41 O2         54.0710  153.7190   24.5920 O.3        1 <1>        0.030
     42 H1         55.0579  155.0450   25.8446 H          1 <1>        0.000
     43 H2         54.3349  155.7643   24.3659 H          1 <1>        0.000
     44 H3         55.8258  154.7690   24.2451 H          1 <1>        0.000
@<TRIPOS>BOND
     1    6    2 ar 
     2    6    5 ar 
     3    2    1 ar 
     4    5    4 ar 
     5    1    3 ar 
     6    4    3 ar 
     7    2    7 1  
     8    3    8 1  
     9    5    9 1  
    10   10   11 1  
    11   10   12 1  
    12   10   13 1  
    13   11   14 1  
    14   11   15 1  
    15   10   16 1  
    16    1   11 1  
    17   17   18 1  
    18   17   21 1  
    19   18   19 2  
    20   19   20 1  
    21   20   21 2  
    22   17   22 1  
    23    6   21 1  
    24   24   23 1  
    25   24   25 1  
    26   23   26 1  
    27   23   27 1  
    28   24   28 1  
    29   24   29 1  
    30   25   30 1  
    31   25   31 1  
    32   19   25 1  
    33   33   32 1  
    34   32   34 1  
    35   32   35 1  
    36   33   36 1  
    37   33   37 1  
    38   23   33 1  
    39   38   39 1  
    40    4   38 1  
    41   41   40 1  
    42   40   42 1  
    43   40   43 1  
    44   40   44 1  
    45   32   41 1  
# Name:          No_7_110
# Creation time: Thu Mar 21 16:03:10 2024


@<TRIPOS>MOLECULE
000001_000009
   45    46     1     1     1
SMALL
USER_CHARGES


@<TRIPOS>ATOM
      1 C3         48.3850  160.2610   31.8350 C.ar       1 <1>        0.160
      2 C2         49.1650  159.5160   30.9410 C.ar       1 <1>        0.210
      3 C4         48.9530  161.3100   32.5280 C.ar       1 <1>        0.220
      4 C5         50.2720  161.6360   32.3310 C.ar       1 <1>        0.100
      5 C6         51.0530  160.9240   31.4430 C.ar       1 <1>        0.220
      6 C1         50.4850  159.8520   30.7440 C.ar       1 <1>        0.200
      7 H          48.7308  158.6786   30.4068 H          1 <1>        0.000
      8 H          48.3551  161.8789   33.2308 H          1 <1>        0.000
      9 H          52.0922  161.1911   31.2890 H          1 <1>        0.000
     10 N1         46.2450  159.6930   30.7440 N.4        1 <1>        0.470
     11 C1         46.9120  159.9250   32.0440 C.3        1 <1>        0.080
     12 H2         46.6709  158.9282   30.2442 H          1 <1>        0.000
     13 H3         45.2696  159.4699   30.8660 H          1 <1>        0.000
     14 H5         46.4362  160.7616   32.5767 H          1 <1>        0.000
     15 H7         46.8460  159.0271   32.6759 H          1 <1>        0.000
     16 H1         46.2980  160.5079   30.1531 H          1 <1>        0.000
     17 N1         52.5550  159.2530   29.4830 N.pl3      1 <1>        0.020
     18 N2         52.9070  158.2600   28.6180 N.2        1 <1>        0.660
     19 C1         51.9530  157.4330   28.3920 C.2        1 <1>       -0.010
     20 N3         50.9120  157.9890   29.2120 N.2        1 <1>       -0.070
     21 C2         51.3210  159.0180   29.8020 C.2        1 <1>        0.110
     22 H1         53.1497  160.0266   29.8128 H          1 <1>        0.000
     23 C1         51.6620  153.6710   27.4840 C.3        1 <1>        0.160
     24 C2         51.6900  154.9460   28.3660 C.3        1 <1>        0.160
     25 C3         51.9310  156.2180   27.5120 C.3        1 <1>       -0.060
     26 H1         51.4900  152.7817   28.1082 H          1 <1>        0.000
     27 H3         50.8543  153.7370   26.7402 H          1 <1>        0.000
     28 H4         52.4910  154.8520   29.1140 H          1 <1>        0.000
     29 H5         50.7319  155.0410   28.8980 H          1 <1>        0.000
     30 H7         51.1289  156.3380   26.7689 H          1 <1>        0.000
     31 H8         52.8941  156.1490   26.9850 H          1 <1>        0.000
     32 C1         52.8260  153.8780   25.2770 C.3        1 <1>        0.020
     33 C2         53.0020  153.4990   26.7450 C.3        1 <1>        0.010
     34 H3         52.0686  153.2257   24.8178 H          1 <1>        0.000
     35 H4         52.4999  154.9262   25.2060 H          1 <1>        0.000
     36 H6         53.7599  154.1509   27.2039 H          1 <1>        0.000
     37 H7         53.3281  152.4508   26.8160 H          1 <1>        0.000
     38 O1         50.8290  162.6970   33.0350 O.3        1 <1>        0.550
     39 H1         51.7200  162.4217   33.2162 H          1 <1>        0.000
     40 C1         55.0080  154.8180   24.9320 C.3        1 <1>        0.090
     41 N2         54.1060  153.7140   24.5730 N.3        1 <1>        0.040
     42 H1         55.1840  154.8090   26.0178 H          1 <1>        0.000
     43 H2         54.5499  155.7751   24.6420 H          1 <1>        0.000
     44 H3         55.9651  154.6950   24.4039 H          1 <1>        0.000
     45 H5         54.5559  152.7742   24.8570 H          1 <1>        0.000
@<TRIPOS>BOND
     1    6    2 ar 
     2    6    5 ar 
     3    2    1 ar 
     4    5    4 ar 
     5    1    3 ar 
     6    4    3 ar 
     7    2    7 1  
     8    3    8 1  
     9    5    9 1  
    10   10   11 1  
    11   10   12 1  
    12   10   13 1  
    13   11   14 1  
    14   11   15 1  
    15   10   16 1  
    16    1   11 1  
    17   17   18 1  
    18   17   21 1  
    19   18   19 2  
    20   19   20 1  
    21   20   21 2  
    22   17   22 1  
    23    6   21 1  
    24   24   23 1  
    25   24   25 1  
    26   23   26 1  
    27   23   27 1  
    28   24   28 1  
    29   24   29 1  
    30   25   30 1  
    31   25   31 1  
    32   19   25 1  
    33   33   32 1  
    34   32   34 1  
    35   32   35 1  
    36   33   36 1  
    37   33   37 1  
    38   23   33 1  
    39   38   39 1  
    40    4   38 1  
    41   41   40 1  
    42   40   42 1  
    43   40   43 1  
    44   40   44 1  
    45   41   45 1  
    46   32   41 1  
# Name:          No_7_132
# Creation time: Thu Mar 21 16:03:10 2024


@<TRIPOS>MOLECULE
000001_000010
   45    46     1     1     1
SMALL
USER_CHARGES


@<TRIPOS>ATOM
      1 C3         48.3850  160.2610   31.8350 C.ar       1 <1>        0.160
      2 C2         49.1650  159.5160   30.9410 C.ar       1 <1>        0.210
      3 C4         48.9530  161.3100   32.5280 C.ar       1 <1>        0.220
      4 C5         50.2720  161.6360   32.3310 C.ar       1 <1>        0.100
      5 C6         51.0530  160.9240   31.4430 C.ar       1 <1>        0.220
      6 C1         50.4850  159.8520   30.7440 C.ar       1 <1>        0.200
      7 H          48.7308  158.6786   30.4068 H          1 <1>        0.000
      8 H          48.3551  161.8789   33.2308 H          1 <1>        0.000
      9 H          52.0922  161.1911   31.2890 H          1 <1>        0.000
     10 N1         46.2450  159.6930   30.7440 N.4        1 <1>        0.470
     11 C1         46.9120  159.9250   32.0440 C.3        1 <1>        0.080
     12 H2         46.6709  158.9282   30.2442 H          1 <1>        0.000
     13 H3         45.2696  159.4699   30.8660 H          1 <1>        0.000
     14 H5         46.4362  160.7616   32.5767 H          1 <1>        0.000
     15 H7         46.8460  159.0271   32.6759 H          1 <1>        0.000
     16 H1         46.2980  160.5079   30.1531 H          1 <1>        0.000
     17 N1         52.5550  159.2530   29.4830 N.pl3      1 <1>        0.020
     18 N2         52.9070  158.2600   28.6180 N.2        1 <1>        0.660
     19 C1         51.9530  157.4330   28.3920 C.2        1 <1>       -0.010
     20 N3         50.9120  157.9890   29.2120 N.2        1 <1>       -0.070
     21 C2         51.3210  159.0180   29.8020 C.2        1 <1>        0.110
     22 H1         53.1497  160.0266   29.8128 H          1 <1>        0.000
     23 C1         51.6620  153.6710   27.4840 C.3        1 <1>        0.160
     24 C2         51.6900  154.9460   28.3660 C.3        1 <1>        0.160
     25 C3         51.9310  156.2180   27.5120 C.3        1 <1>       -0.060
     26 H1         51.4900  152.7817   28.1082 H          1 <1>        0.000
     27 H3         50.8543  153.7370   26.7402 H          1 <1>        0.000
     28 H4         52.4910  154.8520   29.1140 H          1 <1>        0.000
     29 H5         50.7319  155.0410   28.8980 H          1 <1>        0.000
     30 H7         51.1289  156.3380   26.7689 H          1 <1>        0.000
     31 H8         52.8941  156.1490   26.9850 H          1 <1>        0.000
     32 C1         52.8260  153.8780   25.2770 C.3        1 <1>        0.020
     33 C2         53.0020  153.4990   26.7450 C.3        1 <1>        0.010
     34 H3         52.0686  153.2257   24.8178 H          1 <1>        0.000
     35 H4         52.4999  154.9262   25.2060 H          1 <1>        0.000
     36 H6         53.7599  154.1509   27.2039 H          1 <1>        0.000
     37 H7         53.3281  152.4508   26.8160 H          1 <1>        0.000
     38 O1         50.8290  162.6970   33.0350 O.3        1 <1>        0.550
     39 H1         51.7200  162.4217   33.2162 H          1 <1>        0.000
     40 C1         55.0080  154.8180   24.9320 C.3        1 <1>        0.090
     41 N2         54.1060  153.7140   24.5730 N.3        1 <1>        0.040
     42 H1         54.5499  155.7751   24.6420 H          1 <1>        0.000
     43 H2         55.9651  154.6950   24.4039 H          1 <1>        0.000
     44 H3         55.1841  154.8090   26.0178 H          1 <1>        0.000
     45 H4         53.9332  153.7230   23.5070 H          1 <1>        0.000
@<TRIPOS>BOND
     1    6    2 ar 
     2    6    5 ar 
     3    2    1 ar 
     4    5    4 ar 
     5    1    3 ar 
     6    4    3 ar 
     7    2    7 1  
     8    3    8 1  
     9    5    9 1  
    10   10   11 1  
    11   10   12 1  
    12   10   13 1  
    13   11   14 1  
    14   11   15 1  
    15   10   16 1  
    16    1   11 1  
    17   17   18 1  
    18   17   21 1  
    19   18   19 2  
    20   19   20 1  
    21   20   21 2  
    22   17   22 1  
    23    6   21 1  
    24   24   23 1  
    25   24   25 1  
    26   23   26 1  
    27   23   27 1  
    28   24   28 1  
    29   24   29 1  
    30   25   30 1  
    31   25   31 1  
    32   19   25 1  
    33   33   32 1  
    34   32   34 1  
    35   32   35 1  
    36   33   36 1  
    37   33   37 1  
    38   23   33 1  
    39   38   39 1  
    40    4   38 1  
    41   41   40 1  
    42   40   42 1  
    43   40   43 1  
    44   40   44 1  
    45   41   45 1  
    46   32   41 1  
# Name:          No_7_68
# Creation time: Thu Mar 21 17:02:58 2024


@<TRIPOS>MOLECULE
000001_000001
   43    44     1     1     1
SMALL
USER_CHARGES


@<TRIPOS>ATOM
      1 C9         51.5330  156.6540   29.1670 C.ar       1 <1>        0.170
      2 C10        51.0810  155.3840   29.3060 C.ar       1 <1>        0.240
      3 C11        51.5320  154.3980   28.4740 C.ar       1 <1>        0.240
      4 C14        52.4340  156.8960   28.1560 C.ar       1 <1>        0.230
      5 C13        52.8680  155.8980   27.2900 C.ar       1 <1>        0.110
      6 C12        52.4150  154.6130   27.4780 C.ar       1 <1>        0.210
      7 H          50.3592  155.1490   30.0798 H          1 <1>        0.000
      8 H          51.1599  153.3908   28.6230 H          1 <1>        0.000
      9 H          52.8200  157.9011   28.0300 H          1 <1>        0.000
     10 O1         53.3560  153.3990   25.4470 O.3        1 <1>        0.220
     11 C1         52.7940  153.3950   26.6700 C.2        1 <1>        0.100
     12 N1         52.6390  152.1900   27.0240 N.2        1 <1>        0.550
     13 C2         53.0870  151.2270   26.0630 C.2        1 <1>        0.090
     14 C3         53.5050  152.0940   25.1400 C.2        1 <1>        0.060
     15 N1         52.0990  158.6320   30.5310 N.4        1 <1>        0.410
     16 C1         50.9980  157.7530   30.0790 C.3        1 <1>        0.050
     17 H2         51.7610  159.3640   31.1360 H          1 <1>        0.000
     18 H3         52.7947  158.1132   31.0438 H          1 <1>        0.000
     19 H6         50.2484  158.3337   29.5213 H          1 <1>        0.000
     20 H7         50.5028  157.2808   30.9403 H          1 <1>        0.000
     21 H1         52.5623  159.0723   29.7515 H          1 <1>        0.000
     22 C1         53.0830  149.7580   26.0940 C.2        1 <1>       -0.040
     23 O1         53.9540  149.1530   25.4870 O.2        1 <1>        0.080
     24 O2         52.1250  149.1290   26.7840 O.3        1 <1>        0.990
     25 H2         52.1971  148.1823   26.7510 H          1 <1>        0.000
     26 C1         54.1060  151.6520   23.8380 C.3        1 <1>        0.010
     27 O3         53.7630  152.5880   22.8120 O.3        1 <1>       -0.050
     28 H4         53.7170  150.6580   23.5720 H          1 <1>        0.000
     29 H5         55.2004  151.6020   23.9369 H          1 <1>        0.000
     30 C1         53.4480  155.9260   24.9460 C.2        1 <1>        0.110
     31 O1         54.2360  156.1970   24.0520 O.2        1 <1>        0.000
     32 N1         53.7610  156.2000   26.2330 N.am       1 <1>        0.090
     33 N2         52.2590  155.3520   24.6500 N.am       1 <1>        0.400
     34 H2         54.6394  156.6242   26.4531 H          1 <1>        0.000
     35 H3         51.5992  155.1231   25.3657 H          1 <1>        0.000
     36 H4         52.0250  155.1490   23.6992 H          1 <1>        0.000
     37 C1         54.3300  152.1780   21.5660 C.3        1 <1>       -0.060
     38 H1         54.2110  151.0908   21.4480 H          1 <1>        0.000
     39 H3         53.8170  152.6940   20.7410 H          1 <1>        0.000
     40 C1         55.7900  152.5260   21.5410 C.2        1 <1>        0.060
     41 O1         56.1930  153.4290   22.2590 O.2        1 <1>        0.060
     42 O2         56.6050  151.8370   20.7350 O.3        1 <1>        0.430
     43 H2         57.5103  152.1211   20.7820 H          1 <1>        0.000
@<TRIPOS>BOND
     1    5    6 ar 
     2    5    4 ar 
     3    6    3 ar 
     4    4    1 ar 
     5    3    2 ar 
     6    1    2 ar 
     7    2    7 1  
     8    3    8 1  
     9    4    9 1  
    10   10   11 1  
    11   10   14 1  
    12   11   12 2  
    13   12   13 1  
    14   13   14 2  
    15    6   11 1  
    16   15   16 1  
    17   15   17 1  
    18   15   18 1  
    19   16   19 1  
    20   16   20 1  
    21   15   21 1  
    22    1   16 1  
    23   22   23 2  
    24   22   24 1  
    25   24   25 1  
    26   13   22 1  
    27   26   27 1  
    28   26   28 1  
    29   26   29 1  
    30   14   26 1  
    31   30   31 2  
    32   30   32 am 
    33   30   33 am 
    34   32   34 1  
    35   33   35 1  
    36   33   36 1  
    37    5   32 1  
    38   37   38 1  
    39   37   39 1  
    40   27   37 1  
    41   40   41 2  
    42   40   42 1  
    43   42   43 1  
    44   37   40 1  
# Name:          No_7_67
# Creation time: Thu Mar 21 17:02:58 2024


@<TRIPOS>MOLECULE
000001_000002
   43    44     1     1     1
SMALL
USER_CHARGES


@<TRIPOS>ATOM
      1 C9         51.5330  156.6540   29.1670 C.ar       1 <1>        0.170
      2 C10        51.0810  155.3840   29.3060 C.ar       1 <1>        0.240
      3 C11        51.5320  154.3980   28.4740 C.ar       1 <1>        0.240
      4 C14        52.4340  156.8960   28.1560 C.ar       1 <1>        0.230
      5 C13        52.8680  155.8980   27.2900 C.ar       1 <1>        0.110
      6 C12        52.4150  154.6130   27.4780 C.ar       1 <1>        0.210
      7 H          50.3592  155.1490   30.0798 H          1 <1>        0.000
      8 H          51.1599  153.3908   28.6230 H          1 <1>        0.000
      9 H          52.8200  157.9011   28.0300 H          1 <1>        0.000
     10 O1         53.3560  153.3990   25.4470 O.3        1 <1>        0.220
     11 C1         52.7940  153.3950   26.6700 C.2        1 <1>        0.100
     12 N1         52.6390  152.1900   27.0240 N.2        1 <1>        0.550
     13 C2         53.0870  151.2270   26.0630 C.2        1 <1>        0.090
     14 C3         53.5050  152.0940   25.1400 C.2        1 <1>        0.060
     15 N1         52.0990  158.6320   30.5310 N.4        1 <1>        0.410
     16 C1         50.9980  157.7530   30.0790 C.3        1 <1>        0.050
     17 H2         51.7610  159.3640   31.1360 H          1 <1>        0.000
     18 H3         52.7947  158.1132   31.0438 H          1 <1>        0.000
     19 H6         50.2484  158.3337   29.5213 H          1 <1>        0.000
     20 H7         50.5028  157.2808   30.9403 H          1 <1>        0.000
     21 H1         52.5623  159.0723   29.7515 H          1 <1>        0.000
     22 C1         53.0830  149.7580   26.0940 C.2        1 <1>       -0.040
     23 O1         53.9540  149.1530   25.4870 O.2        1 <1>        0.080
     24 O2         52.1250  149.1290   26.7840 O.3        1 <1>        0.990
     25 H2         52.1971  148.1823   26.7510 H          1 <1>        0.000
     26 C1         54.1060  151.6520   23.8380 C.3        1 <1>        0.010
     27 O3         53.7630  152.5880   22.8120 O.3        1 <1>       -0.050
     28 H4         53.7170  150.6580   23.5720 H          1 <1>        0.000
     29 H5         55.2004  151.6020   23.9369 H          1 <1>        0.000
     30 C1         53.4480  155.9260   24.9460 C.2        1 <1>        0.110
     31 O1         54.2360  156.1970   24.0520 O.2        1 <1>        0.000
     32 N1         53.7610  156.2000   26.2330 N.am       1 <1>        0.090
     33 N2         52.2590  155.3520   24.6500 N.am       1 <1>        0.400
     34 H2         54.6394  156.6242   26.4531 H          1 <1>        0.000
     35 H3         51.5992  155.1231   25.3657 H          1 <1>        0.000
     36 H4         52.0250  155.1490   23.6992 H          1 <1>        0.000
     37 C1         54.3300  152.1780   21.5660 C.3        1 <1>       -0.060
     38 H1         54.2110  151.0908   21.4480 H          1 <1>        0.000
     39 H3         53.8170  152.6940   20.7410 H          1 <1>        0.000
     40 C1         55.7900  152.5260   21.5410 C.2        1 <1>        0.060
     41 O1         56.1380  153.5700   21.0100 O.2        1 <1>        0.220
     42 O2         56.6640  151.6830   22.1020 O.3        1 <1>        0.330
     43 H2         57.5644  151.9798   22.0420 H          1 <1>        0.000
@<TRIPOS>BOND
     1    5    6 ar 
     2    5    4 ar 
     3    6    3 ar 
     4    4    1 ar 
     5    3    2 ar 
     6    1    2 ar 
     7    2    7 1  
     8    3    8 1  
     9    4    9 1  
    10   10   11 1  
    11   10   14 1  
    12   11   12 2  
    13   12   13 1  
    14   13   14 2  
    15    6   11 1  
    16   15   16 1  
    17   15   17 1  
    18   15   18 1  
    19   16   19 1  
    20   16   20 1  
    21   15   21 1  
    22    1   16 1  
    23   22   23 2  
    24   22   24 1  
    25   24   25 1  
    26   13   22 1  
    27   26   27 1  
    28   26   28 1  
    29   26   29 1  
    30   14   26 1  
    31   30   31 2  
    32   30   32 am 
    33   30   33 am 
    34   32   34 1  
    35   33   35 1  
    36   33   36 1  
    37    5   32 1  
    38   37   38 1  
    39   37   39 1  
    40   27   37 1  
    41   40   41 2  
    42   40   42 1  
    43   42   43 1  
    44   37   40 1  
# Name:          No_7_66
# Creation time: Thu Mar 21 17:02:58 2024


@<TRIPOS>MOLECULE
000001_000003
   43    44     1     1     1
SMALL
USER_CHARGES


@<TRIPOS>ATOM
      1 C9         51.5330  156.6540   29.1670 C.ar       1 <1>        0.170
      2 C10        51.0810  155.3840   29.3060 C.ar       1 <1>        0.240
      3 C11        51.5320  154.3980   28.4740 C.ar       1 <1>        0.240
      4 C14        52.4340  156.8960   28.1560 C.ar       1 <1>        0.230
      5 C13        52.8680  155.8980   27.2900 C.ar       1 <1>        0.110
      6 C12        52.4150  154.6130   27.4780 C.ar       1 <1>        0.210
      7 H          50.3592  155.1490   30.0798 H          1 <1>        0.000
      8 H          51.1599  153.3908   28.6230 H          1 <1>        0.000
      9 H          52.8200  157.9011   28.0300 H          1 <1>        0.000
     10 O1         53.3560  153.3990   25.4470 O.3        1 <1>        0.220
     11 C1         52.7940  153.3950   26.6700 C.2        1 <1>        0.100
     12 N1         52.6390  152.1900   27.0240 N.2        1 <1>        0.550
     13 C2         53.0870  151.2270   26.0630 C.2        1 <1>        0.090
     14 C3         53.5050  152.0940   25.1400 C.2        1 <1>        0.060
     15 N1         52.0990  158.6320   30.5310 N.4        1 <1>        0.410
     16 C1         50.9980  157.7530   30.0790 C.3        1 <1>        0.050
     17 H2         51.7610  159.3640   31.1360 H          1 <1>        0.000
     18 H3         52.7947  158.1132   31.0438 H          1 <1>        0.000
     19 H6         50.2484  158.3337   29.5213 H          1 <1>        0.000
     20 H7         50.5028  157.2808   30.9403 H          1 <1>        0.000
     21 H1         52.5623  159.0723   29.7515 H          1 <1>        0.000
     22 C1         53.0830  149.7580   26.0940 C.2        1 <1>       -0.040
     23 O1         53.9540  149.1530   25.4870 O.2        1 <1>        0.080
     24 O2         52.1250  149.1290   26.7840 O.3        1 <1>        0.990
     25 H2         52.1971  148.1823   26.7510 H          1 <1>        0.000
     26 C1         54.1060  151.6520   23.8380 C.3        1 <1>        0.010
     27 O3         53.7630  152.5880   22.8120 O.3        1 <1>       -0.050
     28 H4         53.7170  150.6580   23.5720 H          1 <1>        0.000
     29 H5         55.2004  151.6020   23.9369 H          1 <1>        0.000
     30 C1         53.4480  155.9260   24.9460 C.2        1 <1>        0.110
     31 O1         54.2360  156.1970   24.0520 O.2        1 <1>        0.000
     32 N1         53.7610  156.2000   26.2330 N.am       1 <1>        0.090
     33 N2         52.2590  155.3520   24.6500 N.am       1 <1>        0.400
     34 H2         54.6394  156.6242   26.4531 H          1 <1>        0.000
     35 H3         51.5992  155.1231   25.3657 H          1 <1>        0.000
     36 H4         52.0250  155.1490   23.6992 H          1 <1>        0.000
     37 C1         54.3300  152.1780   21.5660 C.3        1 <1>       -0.060
     38 H1         54.2110  151.0908   21.4480 H          1 <1>        0.000
     39 H3         53.8170  152.6940   20.7410 H          1 <1>        0.000
     40 C1         55.7900  152.5260   21.5410 C.2        1 <1>        0.060
     41 O1         56.2110  153.2390   20.6430 O.2        1 <1>        0.370
     42 O2         56.5840  152.0450   22.5040 O.3        1 <1>        0.070
     43 H2         57.4908  152.3129   22.4120 H          1 <1>        0.000
@<TRIPOS>BOND
     1    5    6 ar 
     2    5    4 ar 
     3    6    3 ar 
     4    4    1 ar 
     5    3    2 ar 
     6    1    2 ar 
     7    2    7 1  
     8    3    8 1  
     9    4    9 1  
    10   10   11 1  
    11   10   14 1  
    12   11   12 2  
    13   12   13 1  
    14   13   14 2  
    15    6   11 1  
    16   15   16 1  
    17   15   17 1  
    18   15   18 1  
    19   16   19 1  
    20   16   20 1  
    21   15   21 1  
    22    1   16 1  
    23   22   23 2  
    24   22   24 1  
    25   24   25 1  
    26   13   22 1  
    27   26   27 1  
    28   26   28 1  
    29   26   29 1  
    30   14   26 1  
    31   30   31 2  
    32   30   32 am 
    33   30   33 am 
    34   32   34 1  
    35   33   35 1  
    36   33   36 1  
    37    5   32 1  
    38   37   38 1  
    39   37   39 1  
    40   27   37 1  
    41   40   41 2  
    42   40   42 1  
    43   42   43 1  
    44   37   40 1  
# Name:          No_7_65
# Creation time: Thu Mar 21 17:02:58 2024


@<TRIPOS>MOLECULE
000001_000004
   43    44     1     1     1
SMALL
USER_CHARGES


@<TRIPOS>ATOM
      1 C9         51.5330  156.6540   29.1670 C.ar       1 <1>        0.170
      2 C10        51.0810  155.3840   29.3060 C.ar       1 <1>        0.240
      3 C11        51.5320  154.3980   28.4740 C.ar       1 <1>        0.240
      4 C14        52.4340  156.8960   28.1560 C.ar       1 <1>        0.230
      5 C13        52.8680  155.8980   27.2900 C.ar       1 <1>        0.110
      6 C12        52.4150  154.6130   27.4780 C.ar       1 <1>        0.210
      7 H          50.3592  155.1490   30.0798 H          1 <1>        0.000
      8 H          51.1599  153.3908   28.6230 H          1 <1>        0.000
      9 H          52.8200  157.9011   28.0300 H          1 <1>        0.000
     10 O1         53.3560  153.3990   25.4470 O.3        1 <1>        0.220
     11 C1         52.7940  153.3950   26.6700 C.2        1 <1>        0.100
     12 N1         52.6390  152.1900   27.0240 N.2        1 <1>        0.550
     13 C2         53.0870  151.2270   26.0630 C.2        1 <1>        0.090
     14 C3         53.5050  152.0940   25.1400 C.2        1 <1>        0.060
     15 N1         52.0990  158.6320   30.5310 N.4        1 <1>        0.410
     16 C1         50.9980  157.7530   30.0790 C.3        1 <1>        0.050
     17 H2         51.7610  159.3640   31.1360 H          1 <1>        0.000
     18 H3         52.7947  158.1132   31.0438 H          1 <1>        0.000
     19 H6         50.2484  158.3337   29.5213 H          1 <1>        0.000
     20 H7         50.5028  157.2808   30.9403 H          1 <1>        0.000
     21 H1         52.5623  159.0723   29.7515 H          1 <1>        0.000
     22 C1         53.0830  149.7580   26.0940 C.2        1 <1>       -0.040
     23 O1         53.9540  149.1530   25.4870 O.2        1 <1>        0.080
     24 O2         52.1250  149.1290   26.7840 O.3        1 <1>        0.990
     25 H2         52.1971  148.1823   26.7510 H          1 <1>        0.000
     26 C1         54.1060  151.6520   23.8380 C.3        1 <1>        0.010
     27 O3         53.7630  152.5880   22.8120 O.3        1 <1>       -0.050
     28 H4         53.7170  150.6580   23.5720 H          1 <1>        0.000
     29 H5         55.2004  151.6020   23.9369 H          1 <1>        0.000
     30 C1         53.4480  155.9260   24.9460 C.2        1 <1>        0.110
     31 O1         54.2360  156.1970   24.0520 O.2        1 <1>        0.000
     32 N1         53.7610  156.2000   26.2330 N.am       1 <1>        0.090
     33 N2         52.2590  155.3520   24.6500 N.am       1 <1>        0.400
     34 H2         54.6394  156.6242   26.4531 H          1 <1>        0.000
     35 H3         51.5992  155.1231   25.3657 H          1 <1>        0.000
     36 H4         52.0250  155.1490   23.6992 H          1 <1>        0.000
     37 C1         54.3300  152.1780   21.5660 C.3        1 <1>       -0.060
     38 H1         54.2110  151.0908   21.4480 H          1 <1>        0.000
     39 H3         53.8170  152.6940   20.7410 H          1 <1>        0.000
     40 C1         55.7900  152.5260   21.5410 C.2        1 <1>        0.060
     41 O1         56.5930  151.7290   22.0040 O.2        1 <1>        0.210
     42 O2         56.1660  153.6960   21.0140 O.3        1 <1>        0.250
     43 H2         57.1055  153.8349   21.0390 H          1 <1>        0.000
@<TRIPOS>BOND
     1    5    6 ar 
     2    5    4 ar 
     3    6    3 ar 
     4    4    1 ar 
     5    3    2 ar 
     6    1    2 ar 
     7    2    7 1  
     8    3    8 1  
     9    4    9 1  
    10   10   11 1  
    11   10   14 1  
    12   11   12 2  
    13   12   13 1  
    14   13   14 2  
    15    6   11 1  
    16   15   16 1  
    17   15   17 1  
    18   15   18 1  
    19   16   19 1  
    20   16   20 1  
    21   15   21 1  
    22    1   16 1  
    23   22   23 2  
    24   22   24 1  
    25   24   25 1  
    26   13   22 1  
    27   26   27 1  
    28   26   28 1  
    29   26   29 1  
    30   14   26 1  
    31   30   31 2  
    32   30   32 am 
    33   30   33 am 
    34   32   34 1  
    35   33   35 1  
    36   33   36 1  
    37    5   32 1  
    38   37   38 1  
    39   37   39 1  
    40   27   37 1  
    41   40   41 2  
    42   40   42 1  
    43   42   43 1  
    44   37   40 1  
# Name:          No_6_1
# Creation time: Thu Mar 21 17:02:58 2024


@<TRIPOS>MOLECULE
000001_000005
   37    38     1     1     1
SMALL
USER_CHARGES


@<TRIPOS>ATOM
      1 C9         51.5330  156.6540   29.1670 C.ar       1 <1>        0.170
      2 C10        51.0810  155.3840   29.3060 C.ar       1 <1>        0.240
      3 C11        51.5320  154.3980   28.4740 C.ar       1 <1>        0.240
      4 C14        52.4340  156.8960   28.1560 C.ar       1 <1>        0.230
      5 C13        52.8680  155.8980   27.2900 C.ar       1 <1>        0.110
      6 C12        52.4150  154.6130   27.4780 C.ar       1 <1>        0.210
      7 H          50.3592  155.1490   30.0798 H          1 <1>        0.000
      8 H          51.1599  153.3908   28.6230 H          1 <1>        0.000
      9 H          52.8200  157.9011   28.0300 H          1 <1>        0.000
     10 O1         53.3560  153.3990   25.4470 O.3        1 <1>        0.220
     11 C1         52.7940  153.3950   26.6700 C.2        1 <1>        0.100
     12 N1         52.6390  152.1900   27.0240 N.2        1 <1>        0.550
     13 C2         53.0870  151.2270   26.0630 C.2        1 <1>        0.090
     14 C3         53.5050  152.0940   25.1400 C.2        1 <1>        0.060
     15 N1         52.0990  158.6320   30.5310 N.4        1 <1>        0.410
     16 C1         50.9980  157.7530   30.0790 C.3        1 <1>        0.050
     17 H2         51.7610  159.3640   31.1360 H          1 <1>        0.000
     18 H3         52.7947  158.1132   31.0438 H          1 <1>        0.000
     19 H6         50.2484  158.3337   29.5213 H          1 <1>        0.000
     20 H7         50.5028  157.2808   30.9403 H          1 <1>        0.000
     21 H1         52.5623  159.0723   29.7515 H          1 <1>        0.000
     22 C1         53.0830  149.7580   26.0940 C.2        1 <1>       -0.040
     23 O1         53.9540  149.1530   25.4870 O.2        1 <1>        0.080
     24 O2         52.1250  149.1290   26.7840 O.3        1 <1>        0.990
     25 H2         52.1971  148.1823   26.7510 H          1 <1>        0.000
     26 C1         54.1060  151.6520   23.8380 C.3        1 <1>        0.050
     27 O3         53.7630  152.5880   22.8120 O.3        1 <1>        0.030
     28 H4         53.7170  150.6580   23.5720 H          1 <1>        0.000
     29 H5         55.2004  151.6020   23.9369 H          1 <1>        0.000
     30 H6         54.1402  152.3159   21.9836 H          1 <1>        0.000
     31 C1         53.4480  155.9260   24.9460 C.2        1 <1>        0.110
     32 O1         54.2360  156.1970   24.0520 O.2        1 <1>        0.000
     33 N1         53.7610  156.2000   26.2330 N.am       1 <1>        0.090
     34 N2         52.2590  155.3520   24.6500 N.am       1 <1>        0.400
     35 H2         54.6394  156.6242   26.4531 H          1 <1>        0.000
     36 H3         51.5992  155.1231   25.3657 H          1 <1>        0.000
     37 H4         52.0250  155.1490   23.6992 H          1 <1>        0.000
@<TRIPOS>BOND
     1    5    6 ar 
     2    5    4 ar 
     3    6    3 ar 
     4    4    1 ar 
     5    3    2 ar 
     6    1    2 ar 
     7    2    7 1  
     8    3    8 1  
     9    4    9 1  
    10   10   11 1  
    11   10   14 1  
    12   11   12 2  
    13   12   13 1  
    14   13   14 2  
    15    6   11 1  
    16   15   16 1  
    17   15   17 1  
    18   15   18 1  
    19   16   19 1  
    20   16   20 1  
    21   15   21 1  
    22    1   16 1  
    23   22   23 2  
    24   22   24 1  
    25   24   25 1  
    26   13   22 1  
    27   26   27 1  
    28   26   28 1  
    29   26   29 1  
    30   27   30 1  
    31   14   26 1  
    32   31   32 2  
    33   31   33 am 
    34   31   34 am 
    35   33   35 1  
    36   34   36 1  
    37   34   37 1  
    38    5   33 1  
# Name:          No_7_4
# Creation time: Thu Mar 21 17:02:58 2024


@<TRIPOS>MOLECULE
000001_000006
   37    38     1     1     1
SMALL
USER_CHARGES


@<TRIPOS>ATOM
      1 C9         51.5330  156.6540   29.1670 C.ar       1 <1>        0.170
      2 C10        51.0810  155.3840   29.3060 C.ar       1 <1>        0.240
      3 C11        51.5320  154.3980   28.4740 C.ar       1 <1>        0.240
      4 C14        52.4340  156.8960   28.1560 C.ar       1 <1>        0.230
      5 C13        52.8680  155.8980   27.2900 C.ar       1 <1>        0.110
      6 C12        52.4150  154.6130   27.4780 C.ar       1 <1>        0.210
      7 H          50.3592  155.1490   30.0798 H          1 <1>        0.000
      8 H          51.1599  153.3908   28.6230 H          1 <1>        0.000
      9 H          52.8200  157.9011   28.0300 H          1 <1>        0.000
     10 O1         53.3560  153.3990   25.4470 O.3        1 <1>        0.220
     11 C1         52.7940  153.3950   26.6700 C.2        1 <1>        0.100
     12 N1         52.6390  152.1900   27.0240 N.2        1 <1>        0.550
     13 C2         53.0870  151.2270   26.0630 C.2        1 <1>        0.090
     14 C3         53.5050  152.0940   25.1400 C.2        1 <1>        0.060
     15 N1         52.0990  158.6320   30.5310 N.4        1 <1>        0.410
     16 C1         50.9980  157.7530   30.0790 C.3        1 <1>        0.050
     17 H2         51.7610  159.3640   31.1360 H          1 <1>        0.000
     18 H3         52.7947  158.1132   31.0438 H          1 <1>        0.000
     19 H6         50.2484  158.3337   29.5213 H          1 <1>        0.000
     20 H7         50.5028  157.2808   30.9403 H          1 <1>        0.000
     21 H1         52.5623  159.0723   29.7515 H          1 <1>        0.000
     22 C1         53.0830  149.7580   26.0940 C.2        1 <1>       -0.040
     23 O1         53.9540  149.1530   25.4870 O.2        1 <1>        0.080
     24 O2         52.1250  149.1290   26.7840 O.3        1 <1>        0.990
     25 H2         52.1971  148.1823   26.7510 H          1 <1>        0.000
     26 C1         54.1060  151.6520   23.8380 C.3        1 <1>        0.050
     27 O3         53.7630  152.5880   22.8120 O.3        1 <1>        0.030
     28 H4         53.7170  150.6580   23.5720 H          1 <1>        0.000
     29 H5         55.2004  151.6020   23.9369 H          1 <1>        0.000
     30 H6         54.1402  152.3159   21.9836 H          1 <1>        0.000
     31 C1         53.4480  155.9260   24.9460 C.2        1 <1>        0.110
     32 O1         54.2360  156.1970   24.0520 O.2        1 <1>        0.000
     33 N1         53.7610  156.2000   26.2330 N.am       1 <1>        0.090
     34 N2         52.2590  155.3520   24.6500 N.am       1 <1>        0.400
     35 H2         54.6394  156.6242   26.4531 H          1 <1>        0.000
     36 H3         51.5992  155.1231   25.3657 H          1 <1>        0.000
     37 H4         52.0250  155.1490   23.6992 H          1 <1>        0.000
@<TRIPOS>BOND
     1    5    6 ar 
     2    5    4 ar 
     3    6    3 ar 
     4    4    1 ar 
     5    3    2 ar 
     6    1    2 ar 
     7    2    7 1  
     8    3    8 1  
     9    4    9 1  
    10   10   11 1  
    11   10   14 1  
    12   11   12 2  
    13   12   13 1  
    14   13   14 2  
    15    6   11 1  
    16   15   16 1  
    17   15   17 1  
    18   15   18 1  
    19   16   19 1  
    20   16   20 1  
    21   15   21 1  
    22    1   16 1  
    23   22   23 2  
    24   22   24 1  
    25   24   25 1  
    26   13   22 1  
    27   26   27 1  
    28   26   28 1  
    29   26   29 1  
    30   27   30 1  
    31   14   26 1  
    32   31   32 2  
    33   31   33 am 
    34   31   34 am 
    35   33   35 1  
    36   34   36 1  
    37   34   37 1  
    38    5   33 1  
# Name:          No_5_31
# Creation time: Thu Mar 21 17:02:58 2024


@<TRIPOS>MOLECULE
000001_000007
   37    38     1     1     1
SMALL
USER_CHARGES


@<TRIPOS>ATOM
      1 C9         51.5330  156.6540   29.1670 C.ar       1 <1>        0.170
      2 C10        51.0810  155.3840   29.3060 C.ar       1 <1>        0.240
      3 C11        51.5320  154.3980   28.4740 C.ar       1 <1>        0.240
      4 C14        52.4340  156.8960   28.1560 C.ar       1 <1>        0.230
      5 C13        52.8680  155.8980   27.2900 C.ar       1 <1>        0.110
      6 C12        52.4150  154.6130   27.4780 C.ar       1 <1>        0.210
      7 H          50.3592  155.1490   30.0798 H          1 <1>        0.000
      8 H          51.1599  153.3908   28.6230 H          1 <1>        0.000
      9 H          52.8200  157.9011   28.0300 H          1 <1>        0.000
     10 O1         53.3560  153.3990   25.4470 O.3        1 <1>        0.220
     11 C1         52.7940  153.3950   26.6700 C.2        1 <1>        0.100
     12 N1         52.6390  152.1900   27.0240 N.2        1 <1>        0.550
     13 C2         53.0870  151.2270   26.0630 C.2        1 <1>        0.090
     14 C3         53.5050  152.0940   25.1400 C.2        1 <1>        0.060
     15 N1         52.0990  158.6320   30.5310 N.4        1 <1>        0.410
     16 C1         50.9980  157.7530   30.0790 C.3        1 <1>        0.050
     17 H2         51.7610  159.3640   31.1360 H          1 <1>        0.000
     18 H3         52.7947  158.1132   31.0438 H          1 <1>        0.000
     19 H6         50.2484  158.3337   29.5213 H          1 <1>        0.000
     20 H7         50.5028  157.2808   30.9403 H          1 <1>        0.000
     21 H1         52.5623  159.0723   29.7515 H          1 <1>        0.000
     22 C1         53.0830  149.7580   26.0940 C.2        1 <1>       -0.040
     23 O1         53.9540  149.1530   25.4870 O.2        1 <1>        0.080
     24 O2         52.1250  149.1290   26.7840 O.3        1 <1>        0.990
     25 H2         52.1971  148.1823   26.7510 H          1 <1>        0.000
     26 C1         54.1060  151.6520   23.8380 C.3        1 <1>        0.050
     27 O3         53.7630  152.5880   22.8120 O.3        1 <1>        0.030
     28 H4         53.7170  150.6580   23.5720 H          1 <1>        0.000
     29 H5         55.2004  151.6020   23.9369 H          1 <1>        0.000
     30 H6         54.1402  152.3159   21.9836 H          1 <1>        0.000
     31 C1         53.4480  155.9260   24.9460 C.2        1 <1>        0.110
     32 O1         54.2360  156.1970   24.0520 O.2        1 <1>        0.000
     33 N1         53.7610  156.2000   26.2330 N.am       1 <1>        0.090
     34 N2         52.2590  155.3520   24.6500 N.am       1 <1>        0.400
     35 H2         54.6394  156.6242   26.4531 H          1 <1>        0.000
     36 H3         51.5992  155.1231   25.3657 H          1 <1>        0.000
     37 H4         52.0250  155.1490   23.6992 H          1 <1>        0.000
@<TRIPOS>BOND
     1    5    6 ar 
     2    5    4 ar 
     3    6    3 ar 
     4    4    1 ar 
     5    3    2 ar 
     6    1    2 ar 
     7    2    7 1  
     8    3    8 1  
     9    4    9 1  
    10   10   11 1  
    11   10   14 1  
    12   11   12 2  
    13   12   13 1  
    14   13   14 2  
    15    6   11 1  
    16   15   16 1  
    17   15   17 1  
    18   15   18 1  
    19   16   19 1  
    20   16   20 1  
    21   15   21 1  
    22    1   16 1  
    23   22   23 2  
    24   22   24 1  
    25   24   25 1  
    26   13   22 1  
    27   26   27 1  
    28   26   28 1  
    29   26   29 1  
    30   27   30 1  
    31   14   26 1  
    32   31   32 2  
    33   31   33 am 
    34   31   34 am 
    35   33   35 1  
    36   34   36 1  
    37   34   37 1  
    38    5   33 1  
# Name:          No_7_3
# Creation time: Thu Mar 21 17:02:58 2024


@<TRIPOS>MOLECULE
000002_000001
   55    57     1     1     1
SMALL
USER_CHARGES


@<TRIPOS>ATOM
      1 C9         51.5330  156.6540   29.1670 C.ar       1 <1>        0.070
      2 C10        51.0810  155.3840   29.3060 C.ar       1 <1>        0.240
      3 C11        51.5320  154.3980   28.4740 C.ar       1 <1>        0.240
      4 C14        52.4340  156.8960   28.1560 C.ar       1 <1>        0.230
      5 C13        52.8680  155.8980   27.2900 C.ar       1 <1>        0.220
      6 C12        52.4150  154.6130   27.4780 C.ar       1 <1>        0.210
      7 H          50.3592  155.1490   30.0798 H          1 <1>        0.000
      8 H          51.1599  153.3908   28.6230 H          1 <1>        0.000
      9 H          52.8200  157.9011   28.0300 H          1 <1>        0.000
     10 H          53.5512  156.1291   26.4808 H          1 <1>        0.000
     11 O1         53.1910  151.2290   26.1200 O.3        1 <1>        0.690
     12 C1         53.4340  152.0330   25.0790 C.2        1 <1>        0.050
     13 C2         53.2360  153.3370   25.2790 C.2        1 <1>        0.050
     14 C3         52.7940  153.3950   26.6700 C.2        1 <1>        0.100
     15 C4         52.8090  152.1150   27.0460 C.2        1 <1>       -0.000
     16 H4         52.5269  151.7999   28.0495 H          1 <1>        0.000
     17 C1         49.7010  157.9710   29.6260 C.3        1 <1>       -0.160
     18 C2         49.1650  159.0700   30.5370 C.ar       1 <1>        0.160
     19 C3         47.7890  159.3080   30.6100 C.ar       1 <1>        0.230
     20 C4         47.2980  160.3160   31.4460 C.ar       1 <1>        0.230
     21 C5         48.1820  161.0860   32.2080 C.ar       1 <1>        0.220
     22 C6         49.5580  160.8480   32.1340 C.ar       1 <1>        0.210
     23 C7         50.0490  159.8400   31.2990 C.ar       1 <1>        0.210
     24 O8         51.0450  157.6560   29.9980 O.3        1 <1>        0.160
     25 H1         49.6810  158.3179   28.5823 H          1 <1>        0.000
     26 H2         49.0732  157.0733   29.7260 H          1 <1>        0.000
     27 H3         47.1033  158.7114   30.0194 H          1 <1>        0.000
     28 H4         46.2314  160.5009   31.5030 H          1 <1>        0.000
     29 H5         47.8008  161.8674   32.8554 H          1 <1>        0.000
     30 H6         50.2440  161.4440   32.7250 H          1 <1>        0.000
     31 H7         51.1156  159.6551   31.2420 H          1 <1>        0.000
     32 C1         53.9040  151.4880   23.7620 C.3        1 <1>        0.000
     33 C2         54.7200  150.2190   23.9980 C.3        1 <1>        0.020
     34 H4         54.5308  152.2378   23.2571 H          1 <1>        0.000
     35 H5         53.0343  151.2521   23.1312 H          1 <1>        0.000
     36 H7         54.0932  149.4692   24.5029 H          1 <1>        0.000
     37 H8         55.5897  150.4549   24.6288 H          1 <1>        0.000
     38 C1         54.8920  154.7540   24.1420 C.2        1 <1>        0.060
     39 O2         55.4040  154.6640   23.0380 O.2        1 <1>        0.050
     40 O3         55.6210  155.0940   25.1760 O.3        1 <1>        0.450
     41 C4         53.4190  154.4740   24.3170 C.3        1 <1>        0.020
     42 H5         56.5210  155.2360   24.9070 H          1 <1>        0.000
     43 H6         52.9789  154.2070   23.3449 H          1 <1>        0.000
     44 H8         52.9193  155.3714   24.7107 H          1 <1>        0.000
     45 N1         55.1800  149.6850   22.7090 N.4        1 <1>       -0.000
     46 C1         56.6230  149.3540   22.7350 C.3        1 <1>        0.010
     47 C2         56.9460  148.2800   23.8050 C.3        1 <1>        0.010
     48 O1         58.3570  148.0040   23.7800 O.3        1 <1>        0.840
     49 H5         54.9781  150.3828   22.0102 H          1 <1>        0.000
     50 H7         56.9369  148.9772   21.7504 H          1 <1>        0.000
     51 H8         57.2088  150.2587   22.9549 H          1 <1>        0.000
     52 H9         56.6521  148.6519   24.7976 H          1 <1>        0.000
     53 H10        56.3790  147.3630   23.5870 H          1 <1>        0.000
     54 H11        54.6155  148.8783   22.4928 H          1 <1>        0.000
     55 ****       58.6139  147.3493   24.4187 H          1 <1>        0.000
@<TRIPOS>BOND
     1    5    6 ar 
     2    5    4 ar 
     3    6    3 ar 
     4    4    1 ar 
     5    3    2 ar 
     6    1    2 ar 
     7    2    7 1  
     8    3    8 1  
     9    4    9 1  
    10    5   10 1  
    11   11   12 1  
    12   11   15 1  
    13   12   13 2  
    14   13   14 1  
    15   14   15 2  
    16   15   16 1  
    17    6   14 1  
    18   17   18 1  
    19   18   19 ar 
    20   18   23 ar 
    21   23   22 ar 
    22   22   21 ar 
    23   21   20 ar 
    24   20   19 ar 
    25   17   24 1  
    26   17   25 1  
    27   17   26 1  
    28   19   27 1  
    29   20   28 1  
    30   21   29 1  
    31   22   30 1  
    32   23   31 1  
    33    1   24 1  
    34   33   32 1  
    35   32   34 1  
    36   32   35 1  
    37   33   36 1  
    38   33   37 1  
    39   12   32 1  
    40   38   39 2  
    41   38   40 1  
    42   38   41 1  
    43   40   42 1  
    44   41   43 1  
    45   41   44 1  
    46   13   41 1  
    47   46   45 1  
    48   46   47 1  
    49   47   48 1  
    50   45   49 1  
    51   46   50 1  
    52   46   51 1  
    53   47   52 1  
    54   47   53 1  
    55   45   54 1  
    56   48   55 1  
    57   33   45 1  
# Name:          No_6_166
# Creation time: Thu Mar 21 17:02:58 2024


@<TRIPOS>MOLECULE
000002_000002
   55    57     1     1     1
SMALL
USER_CHARGES


@<TRIPOS>ATOM
      1 C9         51.5330  156.6540   29.1670 C.ar       1 <1>        0.070
      2 C10        51.0810  155.3840   29.3060 C.ar       1 <1>        0.240
      3 C11        51.5320  154.3980   28.4740 C.ar       1 <1>        0.240
      4 C14        52.4340  156.8960   28.1560 C.ar       1 <1>        0.230
      5 C13        52.8680  155.8980   27.2900 C.ar       1 <1>        0.220
      6 C12        52.4150  154.6130   27.4780 C.ar       1 <1>        0.210
      7 H          50.3592  155.1490   30.0798 H          1 <1>        0.000
      8 H          51.1599  153.3908   28.6230 H          1 <1>        0.000
      9 H          52.8200  157.9011   28.0300 H          1 <1>        0.000
     10 H          53.5512  156.1291   26.4808 H          1 <1>        0.000
     11 O1         53.1910  151.2290   26.1200 O.3        1 <1>        0.690
     12 C1         53.4340  152.0330   25.0790 C.2        1 <1>        0.050
     13 C2         53.2360  153.3370   25.2790 C.2        1 <1>        0.050
     14 C3         52.7940  153.3950   26.6700 C.2        1 <1>        0.100
     15 C4         52.8090  152.1150   27.0460 C.2        1 <1>       -0.000
     16 H4         52.5269  151.7999   28.0495 H          1 <1>        0.000
     17 C1         49.7010  157.9710   29.6260 C.3        1 <1>       -0.160
     18 C2         49.1650  159.0700   30.5370 C.ar       1 <1>        0.160
     19 C3         47.7890  159.3080   30.6100 C.ar       1 <1>        0.230
     20 C4         47.2980  160.3160   31.4460 C.ar       1 <1>        0.230
     21 C5         48.1820  161.0860   32.2080 C.ar       1 <1>        0.220
     22 C6         49.5580  160.8480   32.1340 C.ar       1 <1>        0.210
     23 C7         50.0490  159.8400   31.2990 C.ar       1 <1>        0.210
     24 O8         51.0450  157.6560   29.9980 O.3        1 <1>        0.160
     25 H1         49.6810  158.3179   28.5823 H          1 <1>        0.000
     26 H2         49.0732  157.0733   29.7260 H          1 <1>        0.000
     27 H3         47.1033  158.7114   30.0194 H          1 <1>        0.000
     28 H4         46.2314  160.5009   31.5030 H          1 <1>        0.000
     29 H5         47.8008  161.8674   32.8554 H          1 <1>        0.000
     30 H6         50.2440  161.4440   32.7250 H          1 <1>        0.000
     31 H7         51.1156  159.6551   31.2420 H          1 <1>        0.000
     32 C1         53.9040  151.4880   23.7620 C.3        1 <1>        0.000
     33 C2         54.7200  150.2190   23.9980 C.3        1 <1>        0.020
     34 H4         54.5308  152.2378   23.2571 H          1 <1>        0.000
     35 H5         53.0343  151.2521   23.1312 H          1 <1>        0.000
     36 H7         54.0932  149.4692   24.5029 H          1 <1>        0.000
     37 H8         55.5897  150.4549   24.6288 H          1 <1>        0.000
     38 C1         54.8920  154.7540   24.1420 C.2        1 <1>        0.060
     39 O2         55.4040  154.6640   23.0380 O.2        1 <1>        0.050
     40 O3         55.6210  155.0940   25.1760 O.3        1 <1>        0.450
     41 C4         53.4190  154.4740   24.3170 C.3        1 <1>        0.020
     42 H5         56.5210  155.2360   24.9070 H          1 <1>        0.000
     43 H6         52.9789  154.2070   23.3449 H          1 <1>        0.000
     44 H8         52.9193  155.3714   24.7107 H          1 <1>        0.000
     45 N1         55.1800  149.6850   22.7090 N.4        1 <1>       -0.000
     46 C1         56.6230  149.3540   22.7350 C.3        1 <1>        0.010
     47 C2         56.9460  148.2800   23.8050 C.3        1 <1>        0.010
     48 O1         58.3570  148.0040   23.7800 O.3        1 <1>        0.840
     49 H5         54.9781  150.3828   22.0102 H          1 <1>        0.000
     50 H7         56.9369  148.9772   21.7504 H          1 <1>        0.000
     51 H8         57.2088  150.2587   22.9549 H          1 <1>        0.000
     52 H9         56.6521  148.6519   24.7976 H          1 <1>        0.000
     53 H10        56.3790  147.3630   23.5870 H          1 <1>        0.000
     54 H11        54.6155  148.8783   22.4928 H          1 <1>        0.000
     55 ****       58.6139  147.3493   24.4187 H          1 <1>        0.000
@<TRIPOS>BOND
     1    5    6 ar 
     2    5    4 ar 
     3    6    3 ar 
     4    4    1 ar 
     5    3    2 ar 
     6    1    2 ar 
     7    2    7 1  
     8    3    8 1  
     9    4    9 1  
    10    5   10 1  
    11   11   12 1  
    12   11   15 1  
    13   12   13 2  
    14   13   14 1  
    15   14   15 2  
    16   15   16 1  
    17    6   14 1  
    18   17   18 1  
    19   18   19 ar 
    20   18   23 ar 
    21   23   22 ar 
    22   22   21 ar 
    23   21   20 ar 
    24   20   19 ar 
    25   17   24 1  
    26   17   25 1  
    27   17   26 1  
    28   19   27 1  
    29   20   28 1  
    30   21   29 1  
    31   22   30 1  
    32   23   31 1  
    33    1   24 1  
    34   33   32 1  
    35   32   34 1  
    36   32   35 1  
    37   33   36 1  
    38   33   37 1  
    39   12   32 1  
    40   38   39 2  
    41   38   40 1  
    42   38   41 1  
    43   40   42 1  
    44   41   43 1  
    45   41   44 1  
    46   13   41 1  
    47   46   45 1  
    48   46   47 1  
    49   47   48 1  
    50   45   49 1  
    51   46   50 1  
    52   46   51 1  
    53   47   52 1  
    54   47   53 1  
    55   45   54 1  
    56   48   55 1  
    57   33   45 1  
# Name:          No_7_5
# Creation time: Thu Mar 21 17:02:58 2024


@<TRIPOS>MOLECULE
000002_000003
   55    57     1     1     1
SMALL
USER_CHARGES


@<TRIPOS>ATOM
      1 C9         51.5330  156.6540   29.1670 C.ar       1 <1>        0.070
      2 C10        51.0810  155.3840   29.3060 C.ar       1 <1>        0.240
      3 C11        51.5320  154.3980   28.4740 C.ar       1 <1>        0.240
      4 C14        52.4340  156.8960   28.1560 C.ar       1 <1>        0.230
      5 C13        52.8680  155.8980   27.2900 C.ar       1 <1>        0.220
      6 C12        52.4150  154.6130   27.4780 C.ar       1 <1>        0.210
      7 H          50.3592  155.1490   30.0798 H          1 <1>        0.000
      8 H          51.1599  153.3908   28.6230 H          1 <1>        0.000
      9 H          52.8200  157.9011   28.0300 H          1 <1>        0.000
     10 H          53.5512  156.1291   26.4808 H          1 <1>        0.000
     11 O1         53.1910  151.2290   26.1200 O.3        1 <1>        0.690
     12 C1         53.4340  152.0330   25.0790 C.2        1 <1>        0.050
     13 C2         53.2360  153.3370   25.2790 C.2        1 <1>        0.050
     14 C3         52.7940  153.3950   26.6700 C.2        1 <1>        0.100
     15 C4         52.8090  152.1150   27.0460 C.2        1 <1>       -0.000
     16 H4         52.5269  151.7999   28.0495 H          1 <1>        0.000
     17 C1         49.7010  157.9710   29.6260 C.3        1 <1>       -0.160
     18 C2         49.1650  159.0700   30.5370 C.ar       1 <1>        0.160
     19 C3         47.7890  159.3080   30.6100 C.ar       1 <1>        0.230
     20 C4         47.2980  160.3160   31.4460 C.ar       1 <1>        0.230
     21 C5         48.1820  161.0860   32.2080 C.ar       1 <1>        0.220
     22 C6         49.5580  160.8480   32.1340 C.ar       1 <1>        0.210
     23 C7         50.0490  159.8400   31.2990 C.ar       1 <1>        0.210
     24 O8         51.0450  157.6560   29.9980 O.3        1 <1>        0.160
     25 H1         49.6810  158.3179   28.5823 H          1 <1>        0.000
     26 H2         49.0732  157.0733   29.7260 H          1 <1>        0.000
     27 H3         47.1033  158.7114   30.0194 H          1 <1>        0.000
     28 H4         46.2314  160.5009   31.5030 H          1 <1>        0.000
     29 H5         47.8008  161.8674   32.8554 H          1 <1>        0.000
     30 H6         50.2440  161.4440   32.7250 H          1 <1>        0.000
     31 H7         51.1156  159.6551   31.2420 H          1 <1>        0.000
     32 C1         53.9040  151.4880   23.7620 C.3        1 <1>        0.000
     33 C2         54.7200  150.2190   23.9980 C.3        1 <1>        0.020
     34 H4         54.5308  152.2378   23.2571 H          1 <1>        0.000
     35 H5         53.0343  151.2521   23.1312 H          1 <1>        0.000
     36 H7         54.0932  149.4692   24.5029 H          1 <1>        0.000
     37 H8         55.5897  150.4549   24.6288 H          1 <1>        0.000
     38 C1         54.8920  154.7540   24.1420 C.2        1 <1>        0.060
     39 O2         55.4040  154.6640   23.0380 O.2        1 <1>        0.050
     40 O3         55.6210  155.0940   25.1760 O.3        1 <1>        0.450
     41 C4         53.4190  154.4740   24.3170 C.3        1 <1>        0.020
     42 H5         56.5210  155.2360   24.9070 H          1 <1>        0.000
     43 H6         52.9789  154.2070   23.3449 H          1 <1>        0.000
     44 H8         52.9193  155.3714   24.7107 H          1 <1>        0.000
     45 N1         55.1800  149.6850   22.7090 N.4        1 <1>       -0.000
     46 C1         56.6580  149.6880   22.6090 C.3        1 <1>        0.000
     47 C2         57.3090  148.8170   23.7130 C.3        1 <1>        0.080
     48 O1         58.7390  148.8620   23.5610 O.3        1 <1>        0.650
     49 H5         54.7642  150.2527   21.9873 H          1 <1>        0.000
     50 H7         56.9651  149.3019   21.6258 H          1 <1>        0.000
     51 H8         57.0347  150.7172   22.7029 H          1 <1>        0.000
     52 H9         57.0229  149.2032   24.7024 H          1 <1>        0.000
     53 H10        56.9531  147.7803   23.6200 H          1 <1>        0.000
     54 H11        54.8007  148.7563   22.6099 H          1 <1>        0.000
     55 ****       59.1926  148.3425   24.2144 H          1 <1>        0.000
@<TRIPOS>BOND
     1    5    6 ar 
     2    5    4 ar 
     3    6    3 ar 
     4    4    1 ar 
     5    3    2 ar 
     6    1    2 ar 
     7    2    7 1  
     8    3    8 1  
     9    4    9 1  
    10    5   10 1  
    11   11   12 1  
    12   11   15 1  
    13   12   13 2  
    14   13   14 1  
    15   14   15 2  
    16   15   16 1  
    17    6   14 1  
    18   17   18 1  
    19   18   19 ar 
    20   18   23 ar 
    21   23   22 ar 
    22   22   21 ar 
    23   21   20 ar 
    24   20   19 ar 
    25   17   24 1  
    26   17   25 1  
    27   17   26 1  
    28   19   27 1  
    29   20   28 1  
    30   21   29 1  
    31   22   30 1  
    32   23   31 1  
    33    1   24 1  
    34   33   32 1  
    35   32   34 1  
    36   32   35 1  
    37   33   36 1  
    38   33   37 1  
    39   12   32 1  
    40   38   39 2  
    41   38   40 1  
    42   38   41 1  
    43   40   42 1  
    44   41   43 1  
    45   41   44 1  
    46   13   41 1  
    47   46   45 1  
    48   46   47 1  
    49   47   48 1  
    50   45   49 1  
    51   46   50 1  
    52   46   51 1  
    53   47   52 1  
    54   47   53 1  
    55   45   54 1  
    56   48   55 1  
    57   33   45 1  
# Name:          No_6_165
# Creation time: Thu Mar 21 17:02:58 2024


@<TRIPOS>MOLECULE
000002_000004
   55    57     1     1     1
SMALL
USER_CHARGES


@<TRIPOS>ATOM
      1 C9         51.5330  156.6540   29.1670 C.ar       1 <1>        0.070
      2 C10        51.0810  155.3840   29.3060 C.ar       1 <1>        0.240
      3 C11        51.5320  154.3980   28.4740 C.ar       1 <1>        0.240
      4 C14        52.4340  156.8960   28.1560 C.ar       1 <1>        0.230
      5 C13        52.8680  155.8980   27.2900 C.ar       1 <1>        0.220
      6 C12        52.4150  154.6130   27.4780 C.ar       1 <1>        0.210
      7 H          50.3592  155.1490   30.0798 H          1 <1>        0.000
      8 H          51.1599  153.3908   28.6230 H          1 <1>        0.000
      9 H          52.8200  157.9011   28.0300 H          1 <1>        0.000
     10 H          53.5512  156.1291   26.4808 H          1 <1>        0.000
     11 O1         53.1910  151.2290   26.1200 O.3        1 <1>        0.690
     12 C1         53.4340  152.0330   25.0790 C.2        1 <1>        0.050
     13 C2         53.2360  153.3370   25.2790 C.2        1 <1>        0.050
     14 C3         52.7940  153.3950   26.6700 C.2        1 <1>        0.100
     15 C4         52.8090  152.1150   27.0460 C.2        1 <1>       -0.000
     16 H4         52.5269  151.7999   28.0495 H          1 <1>        0.000
     17 C1         49.7010  157.9710   29.6260 C.3        1 <1>       -0.160
     18 C2         49.1650  159.0700   30.5370 C.ar       1 <1>        0.160
     19 C3         47.7890  159.3080   30.6100 C.ar       1 <1>        0.230
     20 C4         47.2980  160.3160   31.4460 C.ar       1 <1>        0.230
     21 C5         48.1820  161.0860   32.2080 C.ar       1 <1>        0.220
     22 C6         49.5580  160.8480   32.1340 C.ar       1 <1>        0.210
     23 C7         50.0490  159.8400   31.2990 C.ar       1 <1>        0.210
     24 O8         51.0450  157.6560   29.9980 O.3        1 <1>        0.160
     25 H1         49.6810  158.3179   28.5823 H          1 <1>        0.000
     26 H2         49.0732  157.0733   29.7260 H          1 <1>        0.000
     27 H3         47.1033  158.7114   30.0194 H          1 <1>        0.000
     28 H4         46.2314  160.5009   31.5030 H          1 <1>        0.000
     29 H5         47.8008  161.8674   32.8554 H          1 <1>        0.000
     30 H6         50.2440  161.4440   32.7250 H          1 <1>        0.000
     31 H7         51.1156  159.6551   31.2420 H          1 <1>        0.000
     32 C1         53.9040  151.4880   23.7620 C.3        1 <1>        0.000
     33 C2         54.7200  150.2190   23.9980 C.3        1 <1>        0.020
     34 H4         54.5308  152.2378   23.2571 H          1 <1>        0.000
     35 H5         53.0343  151.2521   23.1312 H          1 <1>        0.000
     36 H7         54.0932  149.4692   24.5029 H          1 <1>        0.000
     37 H8         55.5897  150.4549   24.6288 H          1 <1>        0.000
     38 C1         54.8920  154.7540   24.1420 C.2        1 <1>        0.060
     39 O2         55.4040  154.6640   23.0380 O.2        1 <1>        0.050
     40 O3         55.6210  155.0940   25.1760 O.3        1 <1>        0.450
     41 C4         53.4190  154.4740   24.3170 C.3        1 <1>        0.020
     42 H5         56.5210  155.2360   24.9070 H          1 <1>        0.000
     43 H6         52.9789  154.2070   23.3449 H          1 <1>        0.000
     44 H8         52.9193  155.3714   24.7107 H          1 <1>        0.000
     45 N1         55.1800  149.6850   22.7090 N.4        1 <1>       -0.000
     46 C1         56.6580  149.6880   22.6090 C.3        1 <1>        0.000
     47 C2         57.3090  148.8170   23.7130 C.3        1 <1>        0.080
     48 O1         58.7390  148.8620   23.5610 O.3        1 <1>        0.650
     49 H5         54.7642  150.2527   21.9873 H          1 <1>        0.000
     50 H7         56.9651  149.3019   21.6258 H          1 <1>        0.000
     51 H8         57.0347  150.7172   22.7029 H          1 <1>        0.000
     52 H9         57.0229  149.2032   24.7024 H          1 <1>        0.000
     53 H10        56.9531  147.7803   23.6200 H          1 <1>        0.000
     54 H11        54.8007  148.7563   22.6099 H          1 <1>        0.000
     55 ****       59.1926  148.3425   24.2144 H          1 <1>        0.000
@<TRIPOS>BOND
     1    5    6 ar 
     2    5    4 ar 
     3    6    3 ar 
     4    4    1 ar 
     5    3    2 ar 
     6    1    2 ar 
     7    2    7 1  
     8    3    8 1  
     9    4    9 1  
    10    5   10 1  
    11   11   12 1  
    12   11   15 1  
    13   12   13 2  
    14   13   14 1  
    15   14   15 2  
    16   15   16 1  
    17    6   14 1  
    18   17   18 1  
    19   18   19 ar 
    20   18   23 ar 
    21   23   22 ar 
    22   22   21 ar 
    23   21   20 ar 
    24   20   19 ar 
    25   17   24 1  
    26   17   25 1  
    27   17   26 1  
    28   19   27 1  
    29   20   28 1  
    30   21   29 1  
    31   22   30 1  
    32   23   31 1  
    33    1   24 1  
    34   33   32 1  
    35   32   34 1  
    36   32   35 1  
    37   33   36 1  
    38   33   37 1  
    39   12   32 1  
    40   38   39 2  
    41   38   40 1  
    42   38   41 1  
    43   40   42 1  
    44   41   43 1  
    45   41   44 1  
    46   13   41 1  
    47   46   45 1  
    48   46   47 1  
    49   47   48 1  
    50   45   49 1  
    51   46   50 1  
    52   46   51 1  
    53   47   52 1  
    54   47   53 1  
    55   45   54 1  
    56   48   55 1  
    57   33   45 1  
