REMARK  Name = =
REMARK  0 active torsions:
REMARK  status: ('A' for Active; 'I' for Inactive)
REMARK                            x       y       z     vdW  Elec       q    Type
REMARK                         _______ _______ _______ _____ _____    ______ ____
ROOT
ATOM      1  C   UNL     1      -3.766  -3.926  30.987  0.00  0.00    +0.162 C 
ATOM      2  N   UNL     1      -2.910  -4.946  31.540  0.00  0.00    -0.277 NA
ATOM      3  C   UNL     1      -1.964  -5.315  30.476  0.00  0.00    +0.098 C 
ATOM      4  C   UNL     1      -1.203  -4.119  30.048  0.00  0.00    +0.007 C 
ATOM      5  C   UNL     1      -1.686  -2.899  30.192  0.00  0.00    +0.056 C 
ATOM      6  N   UNL     1      -2.991  -2.729  30.783  0.00  0.00    -0.319 N 
ATOM      7  H   UNL     1      -3.462  -5.757  31.818  0.00  0.00    +0.125 HD
ATOM      8  H   UNL     1      -3.334  -1.841  31.034  0.00  0.00    +0.148 HD
ENDROOT
TORSDOF 0
