REMARK  Name = =
REMARK  2 active torsions:
REMARK  status: ('A' for Active; 'I' for Inactive)
REMARK    1  A    between atoms: C_1  and  C_7
REMARK    2  A    between atoms: C_8  and  C_9
REMARK                            x       y       z     vdW  Elec       q    Type
REMARK                         _______ _______ _______ _____ _____    ______ ____
ROOT
ATOM      1  C   UNL     1      -3.583  -3.957  30.952  0.00  0.00    +0.152 C 
ATOM      2  N   UNL     1      -3.600  -4.882  29.807  0.00  0.00    -0.276 NA
ATOM      3  C   UNL     1      -2.292  -5.313  29.458  0.00  0.00    +0.098 C 
ATOM      4  C   UNL     1      -1.243  -4.274  29.489  0.00  0.00    +0.007 C 
ATOM      5  C   UNL     1      -1.513  -3.091  29.996  0.00  0.00    +0.056 C 
ATOM      6  N   UNL     1      -2.802  -2.824  30.506  0.00  0.00    -0.318 N 
ATOM      7  H   UNL     1      -4.016  -4.408  29.006  0.00  0.00    +0.125 HD
ATOM      8  H   UNL     1      -3.154  -1.906  30.556  0.00  0.00    +0.148 HD
ENDROOT
BRANCH   1   9
ATOM      9  C   UNL     1      -4.955  -3.622  31.319  0.00  0.00    +0.013 C 
ATOM     10  C   UNL     1      -5.421  -2.393  31.447  0.00  0.00    +0.044 C 
BRANCH  10  11
ATOM     11  C   UNL     1      -6.794  -2.104  31.813  0.00  0.00    +0.234 C 
ATOM     12  O   UNL     1      -7.194  -0.922  31.834  0.00  0.00    -0.283 OA
ENDBRANCH  10  11
ENDBRANCH   1   9
TORSDOF 2
