REMARK  Name = =
REMARK  4 active torsions:
REMARK  status: ('A' for Active; 'I' for Inactive)
REMARK    1  A    between atoms: C_1  and  C_3
REMARK    2  A    between atoms: C_2  and  N_9
REMARK    3  A    between atoms: C_2  and  C_11
REMARK    4  A    between atoms: N_9  and  N_10
REMARK                            x       y       z     vdW  Elec       q    Type
REMARK                         _______ _______ _______ _____ _____    ______ ____
ROOT
ATOM      1  C   UNL     1      -4.433  -3.295  32.582  0.00  0.00    +0.028 C 
ATOM      2  C   UNL     1      -5.529  -2.739  33.056  0.00  0.00    +0.099 C 
ENDROOT
BRANCH   1   3
ATOM      3  C   UNL     1      -3.906  -3.112  31.210  0.00  0.00    +0.153 C 
ATOM      4  N   UNL     1      -4.320  -4.161  30.304  0.00  0.00    -0.276 NA
ATOM      5  C   UNL     1      -3.575  -3.999  29.074  0.00  0.00    +0.098 C 
ATOM      6  C   UNL     1      -2.149  -4.381  29.383  0.00  0.00    +0.007 C 
ATOM      7  C   UNL     1      -1.644  -3.841  30.482  0.00  0.00    +0.056 C 
ATOM      8  N   UNL     1      -2.468  -2.970  31.257  0.00  0.00    -0.318 N 
ATOM      9  H   UNL     1      -5.320  -4.084  30.117  0.00  0.00    +0.125 HD
ATOM     10  H   UNL     1      -2.058  -2.275  31.821  0.00  0.00    +0.148 HD
ENDBRANCH   1   3
BRANCH   2  11
ATOM     11  N   UNL     1      -5.910  -3.008  34.396  0.00  0.00    -0.279 N 
ATOM     12  H   UNL     1      -5.341  -2.730  35.149  0.00  0.00    +0.166 HD
BRANCH  11  13
ATOM     13  N   UNL     1      -7.119  -3.680  34.617  0.00  0.00    -0.256 NA
ATOM     14  H   UNL     1      -7.564  -3.883  33.722  0.00  0.00    +0.140 HD
ATOM     15  H   UNL     1      -7.737  -3.093  35.178  0.00  0.00    +0.140 HD
ENDBRANCH  11  13
ENDBRANCH   2  11
BRANCH   2  16
ATOM     16  C   UNL     1      -6.384  -1.856  32.280  0.00  0.00    +0.249 C 
ATOM     17  O   UNL     1      -6.272  -1.767  31.009  0.00  0.00    -0.282 OA
ENDBRANCH   2  16
TORSDOF 4
