REMARK  Name = =
REMARK  5 active torsions:
REMARK  status: ('A' for Active; 'I' for Inactive)
REMARK    1  A    between atoms: C_1  and  C_3
REMARK    2  A    between atoms: C_2  and  N_9
REMARK    3  A    between atoms: C_2  and  C_17
REMARK    4  A    between atoms: N_9  and  N_10
REMARK    5  A    between atoms: N_10  and  C_11
REMARK                            x       y       z     vdW  Elec       q    Type
REMARK                         _______ _______ _______ _____ _____    ______ ____
ROOT
ATOM      1  C   UNL     1       1.047  -9.082  18.028  0.00  0.00    +0.028 C 
ATOM      2  C   UNL     1       2.332  -8.817  17.858  0.00  0.00    +0.099 C 
ENDROOT
BRANCH   1   3
ATOM      3  C   UNL     1      -0.068  -8.253  17.615  0.00  0.00    +0.153 C 
ATOM      4  N   UNL     1      -1.320  -8.941  17.974  0.00  0.00    -0.276 NA
ATOM      5  C   UNL     1      -2.353  -7.911  17.934  0.00  0.00    +0.098 C 
ATOM      6  C   UNL     1      -2.418  -7.307  16.582  0.00  0.00    +0.007 C 
ATOM      7  C   UNL     1      -1.362  -7.376  15.764  0.00  0.00    +0.056 C 
ATOM      8  N   UNL     1      -0.168  -8.036  16.191  0.00  0.00    -0.318 N 
ATOM      9  H   UNL     1      -1.252  -9.342  18.910  0.00  0.00    +0.125 HD
ATOM     10  H   UNL     1       0.533  -8.321  15.562  0.00  0.00    +0.148 HD
ENDBRANCH   1   3
BRANCH   2  11
ATOM     11  N   UNL     1       3.335  -9.723  18.314  0.00  0.00    -0.274 N 
ATOM     12  H   UNL     1       4.276  -9.457  18.200  0.00  0.00    +0.166 HD
BRANCH  11  13
ATOM     13  N   UNL     1       3.083 -10.940  18.901  0.00  0.00    -0.208 NA
ATOM     14  H   UNL     1       3.537 -11.665  18.345  0.00  0.00    +0.147 HD
BRANCH  13  15
ATOM     15  C   UNL     1       3.558 -11.045  20.256  0.00  0.00    +0.188 C 
ATOM     16  O   UNL     1       3.468 -12.386  20.631  0.00  0.00    -0.340 OA
ATOM     17  C   UNL     1       2.158 -12.800  20.424  0.00  0.00    +0.144 C 
ATOM     18  C   UNL     1       1.186 -12.093  21.367  0.00  0.00    +0.032 C 
ATOM     19  C   UNL     1       1.299 -10.591  21.220  0.00  0.00    +0.007 C 
ATOM     20  C   UNL     1       2.755 -10.239  21.229  0.00  0.00    +0.048 C 
ENDBRANCH  13  15
ENDBRANCH  11  13
ENDBRANCH   2  11
BRANCH   2  21
ATOM     21  C   UNL     1       2.780  -7.603  17.202  0.00  0.00    +0.249 C 
ATOM     22  O   UNL     1       2.463  -6.484  17.687  0.00  0.00    -0.282 OA
ENDBRANCH   2  21
TORSDOF 5
