REMARK  Name = =
REMARK  6 active torsions:
REMARK  status: ('A' for Active; 'I' for Inactive)
REMARK    1  A    between atoms: C_1  and  C_3
REMARK    2  A    between atoms: C_2  and  N_9
REMARK    3  A    between atoms: C_2  and  C_19
REMARK    4  A    between atoms: N_9  and  N_10
REMARK    5  A    between atoms: N_10  and  C_11
REMARK    6  A    between atoms: C_14  and  C_17
REMARK                            x       y       z     vdW  Elec       q    Type
REMARK                         _______ _______ _______ _____ _____    ______ ____
ROOT
ATOM      1  C   UNL     1       0.760  -8.169  17.271  0.00  0.00    +0.028 C 
ATOM      2  C   UNL     1       1.661  -8.574  18.121  0.00  0.00    +0.099 C 
ENDROOT
BRANCH   1   3
ATOM      3  C   UNL     1      -0.600  -7.826  17.762  0.00  0.00    +0.153 C 
ATOM      4  N   UNL     1      -0.898  -6.423  17.572  0.00  0.00    -0.276 NA
ATOM      5  C   UNL     1      -1.386  -6.131  16.249  0.00  0.00    +0.098 C 
ATOM      6  C   UNL     1      -2.592  -6.926  15.909  0.00  0.00    +0.007 C 
ATOM      7  C   UNL     1      -2.651  -8.174  16.336  0.00  0.00    +0.056 C 
ATOM      8  N   UNL     1      -1.569  -8.677  17.087  0.00  0.00    -0.318 N 
ATOM      9  H   UNL     1      -0.047  -5.884  17.732  0.00  0.00    +0.125 HD
ATOM     10  H   UNL     1      -1.463  -9.653  17.158  0.00  0.00    +0.148 HD
ENDBRANCH   1   3
BRANCH   2  11
ATOM     11  N   UNL     1       1.343  -8.683  19.491  0.00  0.00    -0.274 N 
ATOM     12  H   UNL     1       1.629  -7.962  20.096  0.00  0.00    +0.166 HD
BRANCH  11  13
ATOM     13  N   UNL     1       0.641  -9.765  20.032  0.00  0.00    -0.208 NA
ATOM     14  H   UNL     1       0.218 -10.312  19.282  0.00  0.00    +0.147 HD
BRANCH  13  15
ATOM     15  C   UNL     1       1.563 -10.577  20.762  0.00  0.00    +0.188 C 
ATOM     16  O   UNL     1       0.949 -11.657  21.391  0.00  0.00    -0.339 OA
ATOM     17  C   UNL     1       1.708 -12.200  22.394  0.00  0.00    +0.148 C 
ATOM     18  C   UNL     1       3.194 -12.004  22.213  0.00  0.00    +0.052 C 
ATOM     19  C   UNL     1       3.560 -10.543  22.156  0.00  0.00    +0.011 C 
ATOM     20  C   UNL     1       2.271  -9.781  21.835  0.00  0.00    +0.048 C 
BRANCH  18  21
ATOM     21  C   UNL     1       3.866 -12.587  23.400  0.00  0.00    -0.024 C 
ATOM     22  C   UNL     1       4.732 -13.571  23.240  0.00  0.00    -0.005 C 
ENDBRANCH  18  21
ENDBRANCH  13  15
ENDBRANCH  11  13
ENDBRANCH   2  11
BRANCH   2  23
ATOM     23  C   UNL     1       2.990  -8.912  17.659  0.00  0.00    +0.249 C 
ATOM     24  O   UNL     1       3.938  -9.229  18.419  0.00  0.00    -0.282 OA
ENDBRANCH   2  23
TORSDOF 6
