REMARK  Name = =
REMARK  7 active torsions:
REMARK  status: ('A' for Active; 'I' for Inactive)
REMARK    1  A    between atoms: N_1  and  C_2
REMARK    2  A    between atoms: N_1  and  N_16
REMARK    3  A    between atoms: C_5  and  C_8
REMARK    4  A    between atoms: C_9  and  C_10
REMARK    5  A    between atoms: N_16  and  C_18
REMARK    6  A    between atoms: C_17  and  C_19
REMARK    7  A    between atoms: C_18  and  C_25
REMARK                            x       y       z     vdW  Elec       q    Type
REMARK                         _______ _______ _______ _____ _____    ______ ____
ROOT
ATOM      1  N   UNL     1       1.677  -9.080  19.955  0.00  0.00    -0.208 NA
ATOM      2  H   UNL     1       1.442  -8.934  20.937  0.00  0.00    +0.147 HD
ENDROOT
BRANCH   1   3
ATOM      3  C   UNL     1       1.889  -7.800  19.320  0.00  0.00    +0.188 C 
ATOM      4  O   UNL     1       1.056  -6.802  19.763  0.00  0.00    -0.339 OA
ATOM      5  C   UNL     1       1.213  -6.504  21.091  0.00  0.00    +0.148 C 
ATOM      6  C   UNL     1       2.590  -5.912  21.317  0.00  0.00    +0.051 C 
ATOM      7  C   UNL     1       3.450  -6.022  20.080  0.00  0.00    +0.011 C 
ATOM      8  C   UNL     1       3.355  -7.420  19.484  0.00  0.00    +0.048 C 
BRANCH   6   9
ATOM      9  C   UNL     1       2.547  -4.497  21.755  0.00  0.00    -0.029 C 
ATOM     10  C   UNL     1       3.083  -3.495  21.115  0.00  0.00    -0.031 C 
BRANCH  10  11
ATOM     11  C   UNL     1       3.041  -2.081  21.551  0.00  0.00    +0.022 C 
ATOM     12  C   UNL     1       4.376  -1.741  22.170  0.00  0.00    +0.004 C 
ATOM     13  C   UNL     1       4.333  -0.259  22.563  0.00  0.00    +0.000 C 
ATOM     14  C   UNL     1       3.315  -0.135  23.661  0.00  0.00    +0.000 C 
ATOM     15  C   UNL     1       1.954  -0.425  23.081  0.00  0.00    +0.000 C 
ATOM     16  C   UNL     1       1.887  -1.796  22.445  0.00  0.00    +0.004 C 
ENDBRANCH  10  11
ENDBRANCH   6   9
ENDBRANCH   1   3
BRANCH   1  17
ATOM     17  N   UNL     1       0.633  -9.764  19.327  0.00  0.00    -0.274 N 
ATOM     18  H   UNL     1       0.249  -9.449  18.477  0.00  0.00    +0.166 HD
BRANCH  17  20
ATOM     19  C   UNL     1      -0.471 -11.836  19.252  0.00  0.00    +0.028 C 
ATOM     20  C   UNL     1       0.151 -10.933  19.970  0.00  0.00    +0.099 C 
BRANCH  19  21
ATOM     21  C   UNL     1      -0.672 -11.649  17.798  0.00  0.00    +0.153 C 
ATOM     22  N   UNL     1      -1.670 -10.669  17.498  0.00  0.00    -0.276 NA
ATOM     23  C   UNL     1      -2.889 -11.239  16.968  0.00  0.00    +0.098 C 
ATOM     24  C   UNL     1      -2.623 -12.132  15.810  0.00  0.00    +0.007 C 
ATOM     25  C   UNL     1      -1.607 -12.971  15.946  0.00  0.00    +0.056 C 
ATOM     26  N   UNL     1      -0.887 -12.932  17.168  0.00  0.00    -0.318 N 
ATOM     27  H   UNL     1      -1.290 -10.020  16.809  0.00  0.00    +0.125 HD
ATOM     28  H   UNL     1      -0.542 -13.759  17.577  0.00  0.00    +0.148 HD
ENDBRANCH  19  21
BRANCH  20  29
ATOM     29  C   UNL     1       0.369 -11.077  21.399  0.00  0.00    +0.249 C 
ATOM     30  O   UNL     1      -0.189 -12.026  22.003  0.00  0.00    -0.282 OA
ENDBRANCH  20  29
ENDBRANCH  17  20
ENDBRANCH   1  17
TORSDOF 7
