REMARK  Name = =
REMARK  8 active torsions:
REMARK  status: ('A' for Active; 'I' for Inactive)
REMARK    1  A    between atoms: C_1  and  C_3
REMARK    2  A    between atoms: C_1  and  C_9
REMARK    3  A    between atoms: C_2  and  N_14
REMARK    4  A    between atoms: C_2  and  C_30
REMARK    5  A    between atoms: N_14  and  N_15
REMARK    6  A    between atoms: N_15  and  C_16
REMARK    7  A    between atoms: C_19  and  C_22
REMARK    8  A    between atoms: C_23  and  C_24
REMARK                            x       y       z     vdW  Elec       q    Type
REMARK                         _______ _______ _______ _____ _____    ______ ____
ROOT
ATOM      1  C   UNL     1       4.113  -6.293  21.999  0.00  0.00    +0.065 C 
ATOM      2  C   UNL     1       4.396  -7.523  22.388  0.00  0.00    +0.103 C 
ENDROOT
BRANCH   1   3
ATOM      3  C   UNL     1       4.560  -5.668  20.729  0.00  0.00    +0.156 C 
ATOM      4  N   UNL     1       3.360  -5.379  19.933  0.00  0.00    -0.276 NA
ATOM      5  C   UNL     1       3.728  -4.703  18.698  0.00  0.00    +0.098 C 
ATOM      6  C   UNL     1       4.209  -3.355  19.067  0.00  0.00    +0.007 C 
ATOM      7  C   UNL     1       4.881  -3.216  20.191  0.00  0.00    +0.056 C 
ATOM      8  N   UNL     1       5.137  -4.344  21.031  0.00  0.00    -0.318 N 
ATOM      9  H   UNL     1       2.734  -4.780  20.472  0.00  0.00    +0.125 HD
ATOM     10  H   UNL     1       5.709  -4.235  21.825  0.00  0.00    +0.148 HD
ENDBRANCH   1   3
BRANCH   1  11
ATOM     11  C   UNL     1       3.294  -5.486  22.930  0.00  0.00    +0.181 A 
ATOM     12  N   UNL     1       2.301  -4.666  22.560  0.00  0.00    -0.109 NA
ATOM     13  N   UNL     1       1.799  -4.094  23.663  0.00  0.00    -0.023 NA
ATOM     14  N   UNL     1       2.493  -4.572  24.695  0.00  0.00    -0.046 NA
ATOM     15  N   UNL     1       3.417  -5.429  24.266  0.00  0.00    -0.239 N 
ATOM     16  H   UNL     1       4.064  -5.924  24.820  0.00  0.00    +0.192 HD
ENDBRANCH   1  11
BRANCH   2  17
ATOM     17  N   UNL     1       3.905  -8.025  23.645  0.00  0.00    -0.274 N 
ATOM     18  H   UNL     1       4.391  -7.835  24.480  0.00  0.00    +0.166 HD
BRANCH  17  19
ATOM     19  N   UNL     1       2.761  -8.766  23.670  0.00  0.00    -0.208 NA
ATOM     20  H   UNL     1       2.897  -9.558  23.042  0.00  0.00    +0.147 HD
BRANCH  19  21
ATOM     21  C   UNL     1       2.338  -9.287  24.926  0.00  0.00    +0.188 C 
ATOM     22  O   UNL     1       1.705  -8.364  25.760  0.00  0.00    -0.339 OA
ATOM     23  C   UNL     1       1.352  -9.092  26.918  0.00  0.00    +0.148 C 
ATOM     24  C   UNL     1       2.580  -9.085  27.782  0.00  0.00    +0.051 C 
ATOM     25  C   UNL     1       3.814  -9.305  26.894  0.00  0.00    +0.011 C 
ATOM     26  C   UNL     1       3.364 -10.069  25.681  0.00  0.00    +0.048 C 
BRANCH  24  27
ATOM     27  C   UNL     1       2.707  -7.849  28.558  0.00  0.00    -0.029 C 
ATOM     28  C   UNL     1       2.011  -6.758  28.320  0.00  0.00    -0.031 C 
BRANCH  28  29
ATOM     29  C   UNL     1       2.074  -5.482  29.043  0.00  0.00    +0.022 C 
ATOM     30  C   UNL     1       0.709  -4.874  29.282  0.00  0.00    +0.004 C 
ATOM     31  C   UNL     1      -0.121  -5.696  30.219  0.00  0.00    +0.000 C 
ATOM     32  C   UNL     1       0.686  -6.415  31.273  0.00  0.00    +0.000 C 
ATOM     33  C   UNL     1       1.958  -5.655  31.521  0.00  0.00    +0.000 C 
ATOM     34  C   UNL     1       2.824  -5.483  30.322  0.00  0.00    +0.004 C 
ENDBRANCH  28  29
ENDBRANCH  24  27
ENDBRANCH  19  21
ENDBRANCH  17  19
ENDBRANCH   2  17
BRANCH   2  35
ATOM     35  C   UNL     1       5.205  -8.419  21.581  0.00  0.00    +0.249 C 
ATOM     36  O   UNL     1       5.464  -9.599  21.979  0.00  0.00    -0.282 OA
ENDBRANCH   2  35
TORSDOF 8
