REMARK  Name = =
REMARK  10 active torsions:
REMARK  status: ('A' for Active; 'I' for Inactive)
REMARK    1  A    between atoms: N_1  and  C_2
REMARK    2  A    between atoms: N_1  and  C_11
REMARK    3  A    between atoms: N_1  and  N_25
REMARK    4  A    between atoms: C_5  and  O_9
REMARK    5  A    between atoms: C_10  and  C_12
REMARK    6  A    between atoms: C_10  and  C_18
REMARK    7  A    between atoms: C_11  and  C_23
REMARK    8  A    between atoms: N_25  and  C_26
REMARK    9  A    between atoms: C_29  and  C_32
REMARK   10  A    between atoms: C_33  and  C_34
REMARK                            x       y       z     vdW  Elec       q    Type
REMARK                         _______ _______ _______ _____ _____    ______ ____
ROOT
ATOM      1  N   UNL     1       1.156  -2.331  20.337  0.00  0.00    -0.228 N 
ENDROOT
BRANCH   1   2
ATOM      2  C   UNL     1       1.409  -1.004  19.934  0.00  0.00    +0.068 C 
ATOM      3  C   UNL     1       0.508  -0.008  19.744  0.00  0.00    +0.026 C 
ATOM      4  C   UNL     1       0.908   1.272  19.360  0.00  0.00    +0.069 C 
ATOM      5  C   UNL     1       2.230   1.592  19.154  0.00  0.00    +0.140 C 
ATOM      6  C   UNL     1       3.150   0.589  19.344  0.00  0.00    +0.038 C 
ATOM      7  C   UNL     1       2.762  -0.672  19.721  0.00  0.00    +0.019 C 
ATOM      8 BR   UNL     1      -0.388   2.653  19.103  0.00  0.00    -0.046 Br
BRANCH   5   9
ATOM      9  O   UNL     1       2.641   2.858  18.775  0.00  0.00    -0.505 OA
ATOM     10  H   UNL     1       3.552   3.035  18.645  0.00  0.00    +0.292 HD
ENDBRANCH   5   9
ENDBRANCH   1   2
BRANCH   1  12
ATOM     11  C   UNL     1       2.102  -2.669  22.549  0.00  0.00    +0.066 C 
ATOM     12  C   UNL     1       2.097  -2.933  21.273  0.00  0.00    +0.111 C 
BRANCH  11  13
ATOM     13  C   UNL     1       1.119  -1.709  23.162  0.00  0.00    +0.156 C 
ATOM     14  N   UNL     1       0.792  -2.139  24.488  0.00  0.00    -0.276 NA
ATOM     15  C   UNL     1       0.942  -1.149  25.511  0.00  0.00    +0.098 C 
ATOM     16  C   UNL     1       2.287  -0.499  25.426  0.00  0.00    +0.007 C 
ATOM     17  C   UNL     1       2.681  -0.121  24.211  0.00  0.00    +0.056 C 
ATOM     18  N   UNL     1       1.746  -0.399  23.150  0.00  0.00    -0.318 N 
ATOM     19  H   UNL     1       1.397  -2.926  24.721  0.00  0.00    +0.125 HD
ATOM     20  H   UNL     1       1.543   0.265  22.453  0.00  0.00    +0.148 HD
ENDBRANCH  11  13
BRANCH  11  21
ATOM     21  C   UNL     1       3.108  -3.212  23.435  0.00  0.00    +0.181 A 
ATOM     22  N   UNL     1       4.401  -2.923  23.596  0.00  0.00    -0.109 NA
ATOM     23  N   UNL     1       4.913  -3.695  24.503  0.00  0.00    -0.023 NA
ATOM     24  N   UNL     1       3.983  -4.504  24.959  0.00  0.00    -0.046 NA
ATOM     25  N   UNL     1       2.878  -4.225  24.321  0.00  0.00    -0.239 N 
ATOM     26  H   UNL     1       2.013  -4.675  24.458  0.00  0.00    +0.192 HD
ENDBRANCH  11  21
BRANCH  12  27
ATOM     27  C   UNL     1       3.007  -3.897  20.684  0.00  0.00    +0.250 C 
ATOM     28  O   UNL     1       2.620  -4.930  20.135  0.00  0.00    -0.282 OA
ENDBRANCH  12  27
ENDBRANCH   1  12
BRANCH   1  29
ATOM     29  N   UNL     1       0.125  -3.104  19.889  0.00  0.00    -0.201 NA
ATOM     30  H   UNL     1       0.456  -4.069  19.896  0.00  0.00    +0.148 HD
BRANCH  29  31
ATOM     31  C   UNL     1      -1.108  -3.092  20.567  0.00  0.00    +0.189 C 
ATOM     32  O   UNL     1      -1.497  -4.213  21.238  0.00  0.00    -0.339 OA
ATOM     33  C   UNL     1      -1.944  -5.268  20.488  0.00  0.00    +0.148 C 
ATOM     34  C   UNL     1      -3.144  -4.789  19.694  0.00  0.00    +0.051 C 
ATOM     35  C   UNL     1      -2.581  -3.725  18.738  0.00  0.00    +0.011 C 
ATOM     36  C   UNL     1      -2.175  -2.567  19.622  0.00  0.00    +0.048 C 
BRANCH  34  37
ATOM     37  C   UNL     1      -3.854  -5.841  18.973  0.00  0.00    -0.029 C 
ATOM     38  C   UNL     1      -4.871  -6.482  19.499  0.00  0.00    -0.031 C 
BRANCH  38  39
ATOM     39  C   UNL     1      -5.484  -6.312  20.817  0.00  0.00    +0.022 C 
ATOM     40  C   UNL     1      -4.943  -7.368  21.803  0.00  0.00    +0.004 C 
ATOM     41  C   UNL     1      -5.939  -7.408  22.947  0.00  0.00    +0.000 C 
ATOM     42  C   UNL     1      -7.075  -8.325  22.478  0.00  0.00    +0.000 C 
ATOM     43  C   UNL     1      -7.307  -8.014  21.022  0.00  0.00    +0.000 C 
ATOM     44  C   UNL     1      -6.985  -6.580  20.684  0.00  0.00    +0.004 C 
ENDBRANCH  38  39
ENDBRANCH  34  37
ENDBRANCH  29  31
ENDBRANCH   1  29
TORSDOF 10
