MODEL 1
REMARK VINA RESULT:    -7.839      0.000      0.000
REMARK INTER + INTRA:          -9.990
REMARK INTER:                  -9.214
REMARK INTRA:                  -0.775
REMARK UNBOUND:                -0.775
REMARK  Name = =
REMARK  3 active torsions:
REMARK  status: ('A' for Active; 'I' for Inactive)
REMARK    1  A    between atoms: C_1  and  N_7
REMARK    2  A    between atoms: C_1  and  C_25
REMARK    3  A    between atoms: C_3  and  N_18
REMARK                            x       y       z     vdW  Elec       q    Type
REMARK                         _______ _______ _______ _____ _____    ______ ____
ROOT
ATOM      1  C   UNL     1      53.137 164.548  41.040  0.00  0.00    +0.178 C 
ATOM      2  C   UNL     1      53.669 163.193  41.350  0.00  0.00    +0.069 C 
ATOM      3  C   UNL     1      54.883 163.085  42.183  0.00  0.00    +0.077 C 
ATOM      4  C   UNL     1      55.176 164.280  43.034  0.00  0.00    +0.052 C 
ATOM      5  C   UNL     1      54.315 165.476  42.824  0.00  0.00    +0.146 C 
ATOM      6  O   UNL     1      53.721 165.609  41.635  0.00  0.00    -0.339 OA
ENDROOT
BRANCH   1   7
ATOM      7  N   UNL     1      51.683 164.570  41.082  0.00  0.00    -0.249 NA
ATOM      8  C   UNL     1      51.063 163.405  41.539  0.00  0.00    +0.079 C 
ATOM      9  C   UNL     1      50.031 163.581  42.642  0.00  0.00    +0.043 C 
ATOM     10  C   UNL     1      48.824 164.209  42.067  0.00  0.00    -0.025 C 
ATOM     11  C   UNL     1      48.720 165.314  41.251  0.00  0.00    -0.025 C 
ATOM     12  C   UNL     1      47.506 165.776  40.797  0.00  0.00    -0.005 C 
ATOM     13  C   UNL     1      46.342 165.137  41.152  0.00  0.00    -0.000 C 
ATOM     14  C   UNL     1      46.424 164.035  41.966  0.00  0.00    -0.000 C 
ATOM     15  C   UNL     1      47.633 163.587  42.408  0.00  0.00    -0.005 C 
ATOM     16  C   UNL     1      49.852 166.168  40.737  0.00  0.00    +0.043 C 
ATOM     17  C   UNL     1      51.122 165.803  41.487  0.00  0.00    +0.079 C 
ENDBRANCH   1   7
BRANCH   3  18
ATOM     18  N   UNL     1      56.030 162.854  41.286  0.00  0.00    -0.320 N 
ATOM     19  C   UNL     1      56.810 161.680  41.300  0.00  0.00    +0.128 C 
ATOM     20  N   UNL     1      57.864 161.580  40.486  0.00  0.00    -0.229 NA
ATOM     21  C   UNL     1      58.667 160.511  40.404  0.00  0.00    +0.100 C 
ATOM     22  C   UNL     1      58.373 159.451  41.222  0.00  0.00    +0.021 C 
ATOM     23  C   UNL     1      57.299 159.503  42.077  0.00  0.00    +0.004 C 
ATOM     24  C   UNL     1      56.501 160.632  42.123  0.00  0.00    +0.034 C 
ATOM     25  H   UNL     1      56.264 163.559  40.641  0.00  0.00    +0.148 HD
ENDBRANCH   3  18
BRANCH   1  26
ATOM     26  C   UNL     1      53.421 164.738  39.554  0.00  0.00    +0.105 C 
ATOM     27  N   UNL     1      53.561 165.865  39.012  0.00  0.00    -0.298 NA
ATOM     28  H   UNL     1      53.744 165.929  38.046  0.00  0.00    +0.187 HD
ENDBRANCH   1  26
TORSDOF 3
ENDMDL
