MODEL 1
REMARK VINA RESULT:    -9.698      0.000      0.000
REMARK INTER + INTRA:         -15.760
REMARK INTER:                 -15.367
REMARK INTRA:                  -0.392
REMARK UNBOUND:                -0.392
REMARK  Name = =
REMARK  11 active torsions:
REMARK  status: ('A' for Active; 'I' for Inactive)
REMARK    1  A    between atoms: O_1  and  P_2
REMARK    2  A    between atoms: O_1  and  S_19
REMARK    3  A    between atoms: P_2  and  N_4
REMARK    4  A    between atoms: C_6  and  C_18
REMARK    5  A    between atoms: N_12  and  N_15
REMARK    6  A    between atoms: S_19  and  O_21
REMARK    7  A    between atoms: O_21  and  C_22
REMARK    8  A    between atoms: C_24  and  N_28
REMARK    9  A    between atoms: N_28  and  S_29
REMARK   10  A    between atoms: S_29  and  N_32
REMARK   11  A    between atoms: C_33  and  O_35
REMARK                            x       y       z     vdW  Elec       q    Type
REMARK                         _______ _______ _______ _____ _____    ______ ____
ROOT
ATOM      1  O   UNL     1      53.057 155.580  29.040  0.00  0.00    -0.153 OA
ENDROOT
BRANCH   1   2
ATOM      2  P   UNL     1      52.163 154.440  28.159  0.00  0.00    +0.434 P 
ATOM      3  O   UNL     1      51.959 153.237  29.127  0.00  0.00    -0.114 OA
ATOM      4  O   UNL     1      52.903 154.013  26.817  0.00  0.00    -0.407 OA
ATOM      5  C   UNL     1      54.005 154.993  24.971  0.00  0.00    +0.078 C 
ATOM      6  C   UNL     1      53.496 153.895  25.683  0.00  0.00    +0.167 C 
ATOM      7  C   UNL     1      53.623 152.579  25.159  0.00  0.00    +0.106 C 
ATOM      8  C   UNL     1      54.246 152.413  23.960  0.00  0.00    +0.020 C 
ATOM      9  C   UNL     1      54.741 153.496  23.269  0.00  0.00    +0.002 C 
ATOM     10  C   UNL     1      54.622 154.766  23.768  0.00  0.00    +0.006 C 
ATOM     11  N   UNL     1      53.094 151.501  25.914  0.00  0.00    -0.179 N 
ATOM     12  C   UNL     1      52.076 151.745  26.853  0.00  0.00    +0.271 C 
ATOM     13  O   UNL     1      51.610 152.896  27.045  0.00  0.00    -0.247 OA
BRANCH   2  14
ATOM     14  N   UNL     1      50.542 155.025  27.841  0.00  0.00    -0.222 NA
ATOM     15  H   UNL     1      50.588 155.831  27.218  0.00  0.00    +0.131 HD
ATOM     16  H   UNL     1      50.103 155.300  28.719  0.00  0.00    +0.131 HD
ENDBRANCH   2  14
BRANCH  11  17
ATOM     17  N   UNL     1      53.581 150.224  25.725  0.00  0.00    -0.172 NA
ATOM     18  C   UNL     1      52.855 149.234  25.385  0.00  0.00    +0.140 C 
ENDBRANCH  11  17
BRANCH   5  20
ATOM     19  O   UNL     1      54.561 157.325  25.212  0.00  0.00    -0.283 OA
ATOM     20  C   UNL     1      53.871 156.352  25.504  0.00  0.00    +0.237 C 
ENDBRANCH   5  20
ENDBRANCH   1   2
BRANCH   1  21
ATOM     21  S   UNL     1      52.350 157.080  29.153  0.00  0.00    +0.371 S 
ATOM     22  O   UNL     1      52.448 157.809  27.827  0.00  0.00    -0.182 OA
BRANCH  21  23
ATOM     23  O   UNL     1      50.833 157.153  29.892  0.00  0.00    -0.378 OA
BRANCH  23  24
ATOM     24  C   UNL     1      50.338 158.401  30.337  0.00  0.00    +0.161 C 
ATOM     25  C   UNL     1      51.157 159.320  30.807  0.00  0.00    +0.054 C 
ATOM     26  C   UNL     1      50.681 160.616  31.274  0.00  0.00    +0.069 C 
ATOM     27  C   UNL     1      49.382 160.831  31.205  0.00  0.00    +0.016 C 
ATOM     28  C   UNL     1      48.360 159.917  30.716  0.00  0.00    +0.004 C 
ATOM     29  C   UNL     1      48.898 158.627  30.254  0.00  0.00    +0.039 C 
BRANCH  26  30
ATOM     30  N   UNL     1      51.608 161.566  31.770  0.00  0.00    -0.202 N 
ATOM     31  H   UNL     1      51.366 162.131  32.539  0.00  0.00    +0.175 HD
BRANCH  30  32
ATOM     32  S   UNL     1      53.157 161.736  31.031  0.00  0.00    +0.129 S 
ATOM     33  O   UNL     1      53.106 163.000  30.204  0.00  0.00    -0.135 OA
ATOM     34  O   UNL     1      53.459 160.563  30.127  0.00  0.00    -0.135 OA
BRANCH  32  35
ATOM     35  N   UNL     1      54.340 161.833  32.265  0.00  0.00    -0.138 N 
ATOM     36  C   UNL     1      55.707 161.858  31.972  0.00  0.00    +0.418 C 
ATOM     37  O   UNL     1      56.087 161.809  30.773  0.00  0.00    -0.225 OA
ATOM     38  H   UNL     1      54.050 161.872  33.205  0.00  0.00    +0.181 HD
BRANCH  36  39
ATOM     39  O   UNL     1      56.701 161.938  32.956  0.00  0.00    -0.465 OA
ATOM     40  H   UNL     1      56.483 162.230  33.819  0.00  0.00    +0.297 HD
ENDBRANCH  36  39
ENDBRANCH  32  35
ENDBRANCH  30  32
ENDBRANCH  26  30
ENDBRANCH  23  24
ENDBRANCH  21  23
ENDBRANCH   1  21
TORSDOF 11
ENDMDL
