REMARK  Name = =
REMARK  3 active torsions:
REMARK  status: ('A' for Active; 'I' for Inactive)
REMARK    1  A    between atoms: C_1  and  N_7
REMARK    2  A    between atoms: C_1  and  C_25
REMARK    3  A    between atoms: C_3  and  N_18
REMARK                            x       y       z     vdW  Elec       q    Type
REMARK                         _______ _______ _______ _____ _____    ______ ____
ROOT
ATOM      1  C   UNL     1      52.069 156.728  28.875  0.00  0.00    +0.178 C 
ATOM      2  C   UNL     1      51.234 156.311  27.715  0.00  0.00    +0.069 C 
ATOM      3  C   UNL     1      51.288 154.902  27.276  0.00  0.00    +0.077 C 
ATOM      4  C   UNL     1      51.773 153.935  28.310  0.00  0.00    +0.052 C 
ATOM      5  C   UNL     1      52.286 154.517  29.580  0.00  0.00    +0.146 C 
ATOM      6  O   UNL     1      52.745 155.771  29.545  0.00  0.00    -0.339 OA
ENDROOT
BRANCH   1   7
ATOM      7  N   UNL     1      51.358 157.663  29.732  0.00  0.00    -0.249 NA
ATOM      8  C   UNL     1      52.132 158.657  30.335  0.00  0.00    +0.079 C 
ATOM      9  C   UNL     1      51.637 160.086  30.174  0.00  0.00    +0.043 C 
ATOM     10  C   UNL     1      50.434 160.269  31.011  0.00  0.00    -0.025 C 
ATOM     11  C   UNL     1      49.314 159.473  31.114  0.00  0.00    -0.025 C 
ATOM     12  C   UNL     1      48.268 159.788  31.950  0.00  0.00    -0.005 C 
ATOM     13  C   UNL     1      48.311 160.926  32.720  0.00  0.00    -0.000 C 
ATOM     14  C   UNL     1      49.418 161.733  32.631  0.00  0.00    -0.000 C 
ATOM     15  C   UNL     1      50.448 161.409  31.799  0.00  0.00    -0.005 C 
ATOM     16  C   UNL     1      49.047 158.187  30.372  0.00  0.00    +0.043 C 
ATOM     17  C   UNL     1      50.077 158.037  29.265  0.00  0.00    +0.079 C 
ENDBRANCH   1   7
BRANCH   3  18
ATOM     18  N   UNL     1      52.180 154.826  26.105  0.00  0.00    -0.320 N 
ATOM     19  C   UNL     1      52.842 153.649  25.702  0.00  0.00    +0.128 C 
ATOM     20  N   UNL     1      53.674 153.686  24.657  0.00  0.00    -0.229 NA
ATOM     21  C   UNL     1      54.345 152.631  24.178  0.00  0.00    +0.100 C 
ATOM     22  C   UNL     1      54.155 151.433  24.816  0.00  0.00    +0.021 C 
ATOM     23  C   UNL     1      53.309 151.341  25.895  0.00  0.00    +0.004 C 
ATOM     24  C   UNL     1      52.639 152.462  26.351  0.00  0.00    +0.034 C 
ATOM     25  H   UNL     1      52.321 155.643  25.575  0.00  0.00    +0.148 HD
ENDBRANCH   3  18
BRANCH   1  26
ATOM     26  C   UNL     1      53.155 157.608  28.265  0.00  0.00    +0.105 C 
ATOM     27  N   UNL     1      53.932 157.221  27.354  0.00  0.00    -0.298 NA
ATOM     28  H   UNL     1      54.616 157.833  26.997  0.00  0.00    +0.187 HD
ENDBRANCH   1  26
TORSDOF 3
