MODEL 1
REMARK VINA RESULT:    -7.625      0.000      0.000
REMARK INTER + INTRA:         -11.281
REMARK INTER:                  -9.854
REMARK INTRA:                  -1.427
REMARK UNBOUND:                -1.427
REMARK  Name = =
REMARK  5 active torsions:
REMARK  status: ('A' for Active; 'I' for Inactive)
REMARK    1  A    between atoms: C_1  and  C_16
REMARK    2  A    between atoms: C_8  and  C_20
REMARK    3  A    between atoms: N_11  and  O_17
REMARK    4  A    between atoms: O_17  and  C_18
REMARK    5  A    between atoms: N_22  and  N_23
REMARK                            x       y       z     vdW  Elec       q    Type
REMARK                         _______ _______ _______ _____ _____    ______ ____
ROOT
ATOM      1  C   UNL     1      51.336 164.101  41.144  0.00  0.00    +0.158 C 
ATOM      2  N   UNL     1      50.160 163.449  41.169  0.00  0.00    -0.229 NA
ATOM      3  C   UNL     1      50.043 162.177  41.587  0.00  0.00    +0.089 C 
ATOM      4  C   UNL     1      51.172 161.482  42.019  0.00  0.00    +0.037 C 
ATOM      5  C   UNL     1      51.035 160.181  42.444  0.00  0.00    +0.003 C 
ATOM      6  C   UNL     1      49.798 159.565  42.446  0.00  0.00    +0.000 C 
ATOM      7  C   UNL     1      48.685 160.289  42.007  0.00  0.00    +0.006 C 
ATOM      8  C   UNL     1      48.802 161.587  41.579  0.00  0.00    +0.072 C 
ATOM      9  C   UNL     1      52.379 162.149  41.995  0.00  0.00    +0.102 C 
ATOM     10  N   UNL     1      52.422 163.426  41.561  0.00  0.00    -0.228 NA
ENDROOT
BRANCH   1  16
ATOM     11  N   UNL     1      50.914 166.451  41.592  0.00  0.00    -0.108 NA
ATOM     12  C   UNL     1      51.228 167.777  41.199  0.00  0.00    +0.131 C 
ATOM     13  C   UNL     1      51.919 167.886  39.861  0.00  0.00    +0.090 C 
ATOM     14  N   UNL     1      53.059 167.012  39.738  0.00  0.00    -0.295 NA
ATOM     15  C   UNL     1      52.953 165.831  40.569  0.00  0.00    +0.096 C 
ATOM     16  C   UNL     1      51.455 165.507  40.679  0.00  0.00    +0.169 C 
ATOM     17  H   UNL     1      53.896 167.528  40.011  0.00  0.00    +0.123 HD
BRANCH  11  18
ATOM     18  O   UNL     1      49.677 166.223  42.043  0.00  0.00    -0.356 OA
BRANCH  18  19
ATOM     19  C   UNL     1      48.526 166.690  41.422  0.00  0.00    +0.438 C 
ATOM     20  O   UNL     1      47.923 165.848  40.694  0.00  0.00    -0.236 OA
ENDBRANCH  18  19
ENDBRANCH  11  18
ENDBRANCH   1  16
BRANCH   8  21
ATOM     21  C   UNL     1      47.672 162.375  41.114  0.00  0.00    +0.263 C 
ATOM     22  O   UNL     1      46.770 162.783  41.863  0.00  0.00    -0.269 OA
ATOM     23  N   UNL     1      47.596 162.696  39.732  0.00  0.00    -0.230 N 
ATOM     24  H   UNL     1      48.296 162.387  39.113  0.00  0.00    +0.173 HD
BRANCH  23  25
ATOM     25  N   UNL     1      46.522 163.452  39.258  0.00  0.00    -0.226 N 
ATOM     26  C   UNL     1      46.413 163.817  37.886  0.00  0.00    +0.316 C 
ATOM     27  O   UNL     1      47.343 163.418  37.122  0.00  0.00    -0.264 OA
ATOM     28  H   UNL     1      45.822 163.741  39.888  0.00  0.00    +0.173 HD
ENDBRANCH  23  25
ENDBRANCH   8  21
TORSDOF 5
ENDMDL
