REMARK  Name = =
REMARK  0 active torsions:
REMARK  status: ('A' for Active; 'I' for Inactive)
REMARK                            x       y       z     vdW  Elec       q    Type
REMARK                         _______ _______ _______ _____ _____    ______ ____
ROOT
ATOM      1  C   UNL     1      51.949 155.021  28.798  0.00  0.00    +0.082 C 
ATOM      2  N   UNL     1      53.181 154.568  28.286  0.00  0.00    -0.320 NA
ATOM      3  H   UNL     1      53.016 153.806  27.629  0.00  0.00    +0.119 HD
ATOM      4  H   UNL     1      53.766 154.236  29.052  0.00  0.00    +0.119 HD
ENDROOT
TORSDOF 0
