REMARK  Name = =
REMARK  2 active torsions:
REMARK  status: ('A' for Active; 'I' for Inactive)
REMARK    1  A    between atoms: C_1  and  C_4
REMARK    2  A    between atoms: C_1  and  N_5
REMARK                            x       y       z     vdW  Elec       q    Type
REMARK                         _______ _______ _______ _____ _____    ______ ____
ROOT
ATOM      1  C   UNL     1      52.351 155.977  28.362  0.00  0.00    +0.077 C 
ENDROOT
BRANCH   1   4
ATOM      2  S   UNL     1      53.177 153.951  26.524  0.00  0.00    -0.138 S 
ATOM      3  C   UNL     1      51.742 153.690  27.487  0.00  0.00    +0.070 C 
ATOM      4  C   UNL     1      52.809 154.561  28.085  0.00  0.00    +0.074 C 
ENDBRANCH   1   4
BRANCH   1   5
ATOM      5  N   UNL     1      53.178 156.940  27.625  0.00  0.00    -0.320 NA
ATOM      6  H   UNL     1      52.855 157.887  27.823  0.00  0.00    +0.119 HD
ATOM      7  H   UNL     1      53.102 156.758  26.624  0.00  0.00    +0.119 HD
ENDBRANCH   1   5
TORSDOF 2
