REMARK  Name = =
REMARK  3 active torsions:
REMARK  status: ('A' for Active; 'I' for Inactive)
REMARK    1  A    between atoms: S_1  and  C_8
REMARK    2  A    between atoms: C_3  and  C_9
REMARK    3  A    between atoms: C_9  and  N_10
REMARK                            x       y       z     vdW  Elec       q    Type
REMARK                         _______ _______ _______ _____ _____    ______ ____
ROOT
ATOM      1  S   UNL     1      52.884 156.468  27.933  0.00  0.00    -0.174 S 
ATOM      2  C   UNL     1      51.668 157.657  27.553  0.00  0.00    +0.054 C 
ATOM      3  C   UNL     1      51.863 157.382  29.007  0.00  0.00    +0.060 C 
ATOM      4  H   UNL     1      54.200 156.263  27.658  0.00  0.00    +0.091 HD
ENDROOT
BRANCH   1   9
ATOM      5  O   UNL     1      52.119 153.940  28.706  0.00  0.00    -0.446 OA
ATOM      6  C   UNL     1      51.964 152.723  28.291  0.00  0.00    +0.180 C 
ATOM      7  C   UNL     1      52.316 152.697  26.972  0.00  0.00    +0.044 C 
ATOM      8  C   UNL     1      52.691 153.975  26.624  0.00  0.00    +0.046 C 
ATOM      9  C   UNL     1      52.547 154.732  27.771  0.00  0.00    +0.152 C 
ENDBRANCH   1   9
BRANCH   3  10
ATOM     10  C   UNL     1      52.575 158.407  29.876  0.00  0.00    +0.076 C 
BRANCH  10  11
ATOM     11  N   UNL     1      51.850 159.664  29.902  0.00  0.00    -0.320 NA
ATOM     12  H   UNL     1      52.348 160.332  30.490  0.00  0.00    +0.119 HD
ATOM     13  H   UNL     1      50.915 159.510  30.279  0.00  0.00    +0.119 HD
ENDBRANCH  10  11
ENDBRANCH   3  10
TORSDOF 3
