REMARK  Name = =
REMARK  4 active torsions:
REMARK  status: ('A' for Active; 'I' for Inactive)
REMARK    1  A    between atoms: S_1  and  C_8
REMARK    2  A    between atoms: C_3  and  C_9
REMARK    3  A    between atoms: C_9  and  N_10
REMARK    4  A    between atoms: N_10  and  C_11
REMARK                            x       y       z     vdW  Elec       q    Type
REMARK                         _______ _______ _______ _____ _____    ______ ____
ROOT
ATOM      1  S   UNL     1      51.080 155.508  28.064  0.00  0.00    -0.174 S 
ATOM      2  C   UNL     1      50.910 154.421  29.394  0.00  0.00    +0.054 C 
ATOM      3  C   UNL     1      49.853 155.465  29.196  0.00  0.00    +0.060 C 
ATOM      4  H   UNL     1      51.176 155.485  26.708  0.00  0.00    +0.091 HD
ENDROOT
BRANCH   1   9
ATOM      5  O   UNL     1      52.736 157.412  29.044  0.00  0.00    -0.446 OA
ATOM      6  C   UNL     1      53.715 158.221  28.724  0.00  0.00    +0.180 C 
ATOM      7  C   UNL     1      54.015 158.039  27.399  0.00  0.00    +0.044 C 
ATOM      8  C   UNL     1      53.152 157.064  26.936  0.00  0.00    +0.046 C 
ATOM      9  C   UNL     1      52.366 156.699  27.998  0.00  0.00    +0.152 C 
ENDBRANCH   1   9
BRANCH   3  10
ATOM     10  C   UNL     1      49.790 156.643  30.148  0.00  0.00    +0.079 C 
BRANCH  10  11
ATOM     11  N   UNL     1      49.458 157.874  29.621  0.00  0.00    -0.298 NA
ATOM     12  H   UNL     1      48.463 157.813  29.404  0.00  0.00    +0.123 HD
BRANCH  11  13
ATOM     13  C   UNL     1      49.619 159.097  30.252  0.00  0.00    +0.054 C 
ATOM     14  C   UNL     1      49.113 159.125  31.660  0.00  0.00    +0.016 C 
ATOM     15  C   UNL     1      48.797 160.593  31.942  0.00  0.00    +0.001 C 
ATOM     16  C   UNL     1      49.029 161.316  30.642  0.00  0.00    +0.001 C 
ATOM     17  C   UNL     1      48.796 160.220  29.604  0.00  0.00    +0.016 C 
ENDBRANCH  11  13
ENDBRANCH  10  11
ENDBRANCH   3  10
TORSDOF 4
