REMARK  Name = =
REMARK  5 active torsions:
REMARK  status: ('A' for Active; 'I' for Inactive)
REMARK    1  A    between atoms: N_1  and  C_2
REMARK    2  A    between atoms: N_1  and  C_13
REMARK    3  A    between atoms: C_6  and  N_7
REMARK    4  A    between atoms: C_13  and  C_16
REMARK    5  A    between atoms: S_14  and  C_21
REMARK                            x       y       z     vdW  Elec       q    Type
REMARK                         _______ _______ _______ _____ _____    ______ ____
ROOT
ATOM      1  N   UNL     1      50.065 160.040  29.457  0.00  0.00    -0.297 NA
ATOM      2  H   UNL     1      50.481 160.055  30.388  0.00  0.00    +0.123 HD
ENDROOT
BRANCH   1   3
ATOM      3  C   UNL     1      48.717 159.778  29.664  0.00  0.00    +0.069 C 
ATOM      4  C   UNL     1      48.140 158.430  29.378  0.00  0.00    +0.017 C 
ATOM      5  C   UNL     1      48.818 157.557  30.409  0.00  0.00    +0.003 C 
ATOM      6  C   UNL     1      49.170 158.491  31.562  0.00  0.00    +0.017 C 
ATOM      7  C   UNL     1      48.529 159.788  31.216  0.00  0.00    +0.072 C 
BRANCH   7   8
ATOM      8  N   UNL     1      49.196 160.945  31.660  0.00  0.00    -0.273 NA
ATOM      9  C   UNL     1      50.101 160.859  32.740  0.00  0.00    +0.072 C 
ATOM     10  C   UNL     1      49.447 160.999  34.100  0.00  0.00    +0.017 C 
ATOM     11  C   UNL     1      48.231 161.859  34.002  0.00  0.00    +0.003 C 
ATOM     12  C   UNL     1      48.372 162.890  32.899  0.00  0.00    +0.017 C 
ATOM     13  C   UNL     1      48.373 162.099  31.594  0.00  0.00    +0.072 C 
ENDBRANCH   7   8
ENDBRANCH   1   3
BRANCH   1  14
ATOM     14  C   UNL     1      50.930 159.285  28.685  0.00  0.00    +0.079 C 
BRANCH  14  17
ATOM     15  S   UNL     1      52.207 156.957  28.061  0.00  0.00    -0.174 S 
ATOM     16  C   UNL     1      52.813 157.778  29.478  0.00  0.00    +0.054 C 
ATOM     17  C   UNL     1      51.314 157.907  29.123  0.00  0.00    +0.060 C 
ATOM     18  H   UNL     1      52.330 156.922  26.707  0.00  0.00    +0.091 HD
BRANCH  15  23
ATOM     19  O   UNL     1      53.457 154.580  28.039  0.00  0.00    -0.446 OA
ATOM     20  C   UNL     1      53.299 153.298  28.024  0.00  0.00    +0.180 C 
ATOM     21  C   UNL     1      51.962 153.036  28.015  0.00  0.00    +0.044 C 
ATOM     22  C   UNL     1      51.316 154.270  28.026  0.00  0.00    +0.046 C 
ATOM     23  C   UNL     1      52.302 155.210  28.041  0.00  0.00    +0.152 C 
ENDBRANCH  15  23
ENDBRANCH  14  17
ENDBRANCH   1  14
TORSDOF 5
