REMARK  Name = =
REMARK  5 active torsions:
REMARK  status: ('A' for Active; 'I' for Inactive)
REMARK    1  A    between atoms: C_1  and  C_32
REMARK    2  A    between atoms: C_2  and  N_7
REMARK    3  A    between atoms: C_3  and  O_43
REMARK    4  A    between atoms: C_15  and  C_16
REMARK    5  A    between atoms: C_17  and  C_22
REMARK                            x       y       z     vdW  Elec       q    Type
REMARK                         _______ _______ _______ _____ _____    ______ ____
ROOT
ATOM      1  C   UNL     1       3.338 -15.380  22.544  0.00  0.00    +0.098 C 
ATOM      2  C   UNL     1       2.203 -14.645  22.344  0.00  0.00    +0.107 C 
ATOM      3  C   UNL     1       1.847 -14.239  21.089  0.00  0.00    +0.150 C 
ATOM      4  C   UNL     1       2.631 -14.564  20.019  0.00  0.00    +0.059 C 
ATOM      5  C   UNL     1       3.778 -15.302  20.217  0.00  0.00    +0.102 C 
ATOM      6  N   UNL     1       4.097 -15.686  21.465  0.00  0.00    -0.242 NA
ENDROOT
BRANCH   1  12
ATOM      7  C   UNL     1       4.502 -15.052  24.734  0.00  0.00    +0.016 C 
ATOM      8  C   UNL     1       5.739 -15.241  25.184  0.00  0.00    +0.043 C 
ATOM      9  N   UNL     1       6.397 -16.439  24.821  0.00  0.00    -0.312 N 
ATOM     10  C   UNL     1       5.748 -17.402  24.002  0.00  0.00    +0.062 C 
ATOM     11  C   UNL     1       4.553 -17.200  23.578  0.00  0.00    +0.017 C 
ATOM     12  C   UNL     1       3.751 -15.959  23.894  0.00  0.00    +0.021 C 
ATOM     13  C   UNL     1       6.417 -14.252  26.034  0.00  0.00    -0.002 C 
ATOM     14  C   UNL     1       7.602 -14.565  26.665  0.00  0.00    +0.151 C 
ATOM     15  N   UNL     1       8.278 -13.712  27.464  0.00  0.00    -0.250 NA
ATOM     16  C   UNL     1       7.811 -12.491  27.682  0.00  0.00    +0.147 C 
ATOM     17  N   UNL     1       8.484 -11.642  28.477  0.00  0.00    -0.174 NA
ATOM     18  C   UNL     1       8.011 -10.387  28.705  0.00  0.00    +0.187 C 
ATOM     19  N   UNL     1       6.869 -10.038  28.116  0.00  0.00    -0.225 NA
ATOM     20  C   UNL     1       6.164 -10.840  27.320  0.00  0.00    +0.099 C 
ATOM     21  C   UNL     1       6.621 -12.125  27.070  0.00  0.00    +0.034 C 
ATOM     22  C   UNL     1       5.930 -12.992  26.255  0.00  0.00    +0.056 C 
ATOM     23  H   UNL     1       7.313 -16.607  25.139  0.00  0.00    +0.152 HD
ENDBRANCH   1  12
BRANCH   2  24
ATOM     24  N   UNL     1       1.352 -14.398  23.450  0.00  0.00    -0.261 N 
ATOM     25  C   UNL     1       1.337 -13.411  24.355  0.00  0.00    +0.052 C 
ATOM     26  C   UNL     1       0.343 -13.681  25.292  0.00  0.00    +0.015 C 
ATOM     27  C   UNL     1      -0.260 -14.872  24.923  0.00  0.00    +0.018 C 
ATOM     28  C   UNL     1       0.362 -15.285  23.814  0.00  0.00    +0.070 C 
ATOM     29  C   UNL     1       0.117 -12.868  26.381  0.00  0.00    +0.001 C 
ATOM     30  C   UNL     1       0.891 -11.752  26.560  0.00  0.00    -0.000 C 
ATOM     31  C   UNL     1       1.878 -11.454  25.657  0.00  0.00    -0.003 C 
ATOM     32  C   UNL     1       2.106 -12.268  24.553  0.00  0.00    -0.008 C 
BRANCH  32  33
ATOM     33  C   UNL     1       3.115 -11.863  23.557  0.00  0.00    +0.030 C 
ATOM     34  C   UNL     1       4.050 -10.876  24.291  0.00  0.00    +0.050 C 
ATOM     35  C   UNL     1       5.233 -10.712  23.321  0.00  0.00    +0.007 C 
ATOM     36  C   UNL     1       4.740  -9.701  22.313  0.00  0.00    +0.000 C 
ATOM     37  C   UNL     1       3.405 -10.020  21.767  0.00  0.00    +0.000 C 
ATOM     38  C   UNL     1       2.703 -11.232  22.286  0.00  0.00    +0.005 C 
BRANCH  34  39
ATOM     39  C   UNL     1       3.472  -9.518  24.408  0.00  0.00    +0.079 C 
ATOM     40  N   UNL     1       2.394  -8.954  24.213  0.00  0.00    -0.268 NA
ATOM     41  C   UNL     1       2.201  -7.606  24.439  0.00  0.00    +0.138 C 
ATOM     42  C   UNL     1       3.148  -7.110  25.539  0.00  0.00    +0.090 C 
ATOM     43  S   UNL     1       4.560  -8.204  25.058  0.00  0.00    -0.098 S 
ENDBRANCH  34  39
ENDBRANCH  32  33
ENDBRANCH   2  24
BRANCH   3  44
ATOM     44  O   UNL     1       0.679 -13.482  20.863  0.00  0.00    -0.504 OA
ATOM     45  H   UNL     1       0.126 -13.248  21.582  0.00  0.00    +0.292 HD
ENDBRANCH   3  44
TORSDOF 5
