MODEL 1
REMARK VINA RESULT:    -6.866      0.000      0.000
REMARK INTER + INTRA:          -9.334
REMARK INTER:                  -8.472
REMARK INTRA:                  -0.862
REMARK UNBOUND:                -0.862
REMARK  Name = =
REMARK  5 active torsions:
REMARK  status: ('A' for Active; 'I' for Inactive)
REMARK    1  A    between atoms: C_15  and  C_16
REMARK    2  A    between atoms: C_17  and  C_25
REMARK    3  A    between atoms: C_21  and  C_22
REMARK    4  A    between atoms: C_22  and  O_24
REMARK    5  A    between atoms: C_25  and  O_27
REMARK                            x       y       z     vdW  Elec       q    Type
REMARK                         _______ _______ _______ _____ _____    ______ ____
ROOT
ATOM      1  C   UNL     1      58.981 163.379  35.520  0.00  0.00    +0.157 C 
ATOM      2  N   UNL     1      58.663 164.317  34.587  0.00  0.00    -0.142 NA
ATOM      3  N   UNL     1      59.366 165.416  34.415  0.00  0.00    -0.125 NA
ATOM      4  C   UNL     1      60.454 165.635  35.193  0.00  0.00    +0.223 C 
ATOM      5  N   UNL     1      60.821 164.727  36.147  0.00  0.00    -0.206 NA
ATOM      6  C   UNL     1      60.089 163.614  36.303  0.00  0.00    +0.158 C 
ATOM      7  N   UNL     1      60.420 162.635  37.277  0.00  0.00    -0.252 N 
ATOM      8  C   UNL     1      61.547 162.808  38.119  0.00  0.00    +0.309 C 
ATOM      9  O   UNL     1      62.215 163.855  37.951  0.00  0.00    -0.252 OA
ATOM     10  N   UNL     1      61.957 161.889  39.117  0.00  0.00    -0.257 N 
ATOM     11  C   UNL     1      63.164 162.249  39.881  0.00  0.00    +0.127 C 
ATOM     12  C   UNL     1      64.185 161.177  39.461  0.00  0.00    +0.164 C 
ATOM     13  O   UNL     1      63.595 159.943  39.361  0.00  0.00    -0.350 OA
ATOM     14  C   UNL     1      62.434 159.790  40.081  0.00  0.00    +0.166 C 
ATOM     15  C   UNL     1      61.363 160.658  39.420  0.00  0.00    +0.129 C 
ATOM     16  H   UNL     1      59.862 161.829  37.368  0.00  0.00    +0.158 HD
ENDROOT
BRANCH  15  17
ATOM     17  C   UNL     1      60.072 160.595  40.231  0.00  0.00    +0.010 C 
ATOM     18  C   UNL     1      59.426 159.367  39.709  0.00  0.00    +0.071 C 
ATOM     19  C   UNL     1      59.168 158.344  40.482  0.00  0.00    +0.121 C 
ATOM     20  N   UNL     1      59.450 158.301  41.869  0.00  0.00    -0.328 N 
ATOM     21  C   UNL     1      60.041 159.487  42.388  0.00  0.00    +0.064 C 
ATOM     22  C   UNL     1      60.322 160.546  41.658  0.00  0.00    +0.087 C 
ATOM     23  H   UNL     1      59.254 157.515  42.428  0.00  0.00    +0.147 HD
BRANCH  22  24
ATOM     24  C   UNL     1      60.826 161.693  42.437  0.00  0.00    +0.339 C 
ATOM     25  O   UNL     1      61.920 161.731  43.034  0.00  0.00    -0.245 OA
BRANCH  24  26
ATOM     26  O   UNL     1      60.075 162.854  42.555  0.00  0.00    -0.477 OA
ATOM     27  H   UNL     1      59.173 162.856  42.303  0.00  0.00    +0.295 HD
ENDBRANCH  24  26
ENDBRANCH  22  24
BRANCH  18  28
ATOM     28  C   UNL     1      59.001 159.297  38.277  0.00  0.00    +0.335 C 
ATOM     29  O   UNL     1      58.448 160.225  37.672  0.00  0.00    -0.245 OA
BRANCH  28  30
ATOM     30  O   UNL     1      59.221 158.140  37.541  0.00  0.00    -0.477 OA
ATOM     31  H   UNL     1      59.426 158.198  36.628  0.00  0.00    +0.295 HD
ENDBRANCH  28  30
ENDBRANCH  18  28
ENDBRANCH  15  17
TORSDOF 5
ENDMDL
