REMARK  Name = =
REMARK  5 active torsions:
REMARK  status: ('A' for Active; 'I' for Inactive)
REMARK    1  A    between atoms: C_15  and  C_16
REMARK    2  A    between atoms: C_17  and  C_25
REMARK    3  A    between atoms: C_21  and  C_22
REMARK    4  A    between atoms: C_22  and  O_24
REMARK    5  A    between atoms: C_25  and  O_27
REMARK                            x       y       z     vdW  Elec       q    Type
REMARK                         _______ _______ _______ _____ _____    ______ ____
ROOT
ATOM      1  C   UNL     1      49.826 158.202  35.642  0.00  0.00    +0.157 C 
ATOM      2  N   UNL     1      49.688 157.398  36.731  0.00  0.00    -0.142 NA
ATOM      3  N   UNL     1      49.528 156.095  36.637  0.00  0.00    -0.125 NA
ATOM      4  C   UNL     1      49.498 155.518  35.412  0.00  0.00    +0.223 C 
ATOM      5  N   UNL     1      49.631 156.276  34.282  0.00  0.00    -0.206 NA
ATOM      6  C   UNL     1      49.793 157.602  34.403  0.00  0.00    +0.158 C 
ATOM      7  N   UNL     1      49.937 158.442  33.267  0.00  0.00    -0.252 N 
ATOM      8  C   UNL     1      49.915 157.896  31.959  0.00  0.00    +0.309 C 
ATOM      9  O   UNL     1      49.764 156.655  31.874  0.00  0.00    -0.252 OA
ATOM     10  N   UNL     1      50.050 158.651  30.767  0.00  0.00    -0.257 N 
ATOM     11  C   UNL     1      50.010 157.892  29.505  0.00  0.00    +0.127 C 
ATOM     12  C   UNL     1      51.433 158.056  28.945  0.00  0.00    +0.164 C 
ATOM     13  O   UNL     1      51.899 159.331  29.140  0.00  0.00    -0.350 OA
ATOM     14  C   UNL     1      50.928 160.288  29.315  0.00  0.00    +0.166 C 
ATOM     15  C   UNL     1      50.263 160.031  30.667  0.00  0.00    +0.129 C 
ATOM     16  H   UNL     1      50.053 159.412  33.389  0.00  0.00    +0.158 HD
ENDROOT
BRANCH  15  17
ATOM     17  C   UNL     1      49.115 161.013  30.875  0.00  0.00    +0.010 C 
ATOM     18  C   UNL     1      47.957 160.276  30.314  0.00  0.00    +0.071 C 
ATOM     19  C   UNL     1      46.924 159.955  31.050  0.00  0.00    +0.121 C 
ATOM     20  N   UNL     1      46.789 160.283  32.421  0.00  0.00    -0.328 N 
ATOM     21  C   UNL     1      47.880 161.020  32.962  0.00  0.00    +0.064 C 
ATOM     22  C   UNL     1      48.943 161.370  32.270  0.00  0.00    +0.087 C 
ATOM     23  H   UNL     1      46.005 160.023  32.956  0.00  0.00    +0.147 HD
BRANCH  22  24
ATOM     24  C   UNL     1      49.888 162.224  33.015  0.00  0.00    +0.339 C 
ATOM     25  O   UNL     1      50.560 163.151  32.522  0.00  0.00    -0.245 OA
BRANCH  24  26
ATOM     26  O   UNL     1      50.091 162.037  34.375  0.00  0.00    -0.477 OA
ATOM     27  H   UNL     1      49.627 161.362  34.829  0.00  0.00    +0.295 HD
ENDBRANCH  24  26
ENDBRANCH  22  24
BRANCH  18  28
ATOM     28  C   UNL     1      47.926 159.928  28.861  0.00  0.00    +0.335 C 
ATOM     29  O   UNL     1      48.327 160.677  27.960  0.00  0.00    -0.245 OA
BRANCH  28  30
ATOM     30  O   UNL     1      47.425 158.700  28.449  0.00  0.00    -0.477 OA
ATOM     31  H   UNL     1      47.106 158.088  29.083  0.00  0.00    +0.295 HD
ENDBRANCH  28  30
ENDBRANCH  18  28
ENDBRANCH  15  17
TORSDOF 5
