REMARK  Name = =
REMARK  0 active torsions:
REMARK  status: ('A' for Active; 'I' for Inactive)
REMARK                            x       y       z     vdW  Elec       q    Type
REMARK                         _______ _______ _______ _____ _____    ______ ____
ROOT
ATOM      1  N   UNL     1      52.648 155.909  28.705  0.00  0.00    +0.038 NA
ATOM      2  O   UNL     1      51.731 156.040  29.694  0.00  0.00    -0.278 OA
ATOM      3  H   UNL     1      51.067 156.698  29.434  0.00  0.00    +0.240 HD
ENDROOT
TORSDOF 0
