REMARK  Name = =
REMARK  0 active torsions:
REMARK  status: ('A' for Active; 'I' for Inactive)
REMARK                            x       y       z     vdW  Elec       q    Type
REMARK                         _______ _______ _______ _____ _____    ______ ____
ROOT
ATOM      1  N   UNL     1      52.804 155.659  28.816  0.00  0.00    -0.295 NA
ATOM      2  C   UNL     1      51.578 155.504  29.148  0.00  0.00    +0.109 C 
ATOM      3  H   UNL     1      53.285 154.934  28.355  0.00  0.00    +0.187 HD
ENDROOT
TORSDOF 0
