REMARK  Name = =
REMARK  0 active torsions:
REMARK  status: ('A' for Active; 'I' for Inactive)
REMARK                            x       y       z     vdW  Elec       q    Type
REMARK                         _______ _______ _______ _____ _____    ______ ____
ROOT
ATOM      1  N   UNL     1      50.905 154.630  29.686  0.00  0.00    -0.295 NA
ATOM      2  C   UNL     1      50.681 155.720  30.538  0.00  0.00    +0.090 C 
ATOM      3  C   UNL     1      50.689 157.058  29.832  0.00  0.00    +0.111 C 
ATOM      4  N   UNL     1      51.984 157.139  29.180  0.00  0.00    -0.270 N 
ATOM      5  C   UNL     1      52.222 156.101  28.199  0.00  0.00    +0.111 C 
ATOM      6  C   UNL     1      51.799 154.749  28.624  0.00  0.00    +0.090 C 
ATOM      7  C   UNL     1      52.925 158.153  29.486  0.00  0.00    +0.303 C 
ATOM      8  O   UNL     1      54.049 158.238  28.932  0.00  0.00    -0.265 OA
ATOM      9  H   UNL     1      50.002 154.380  29.284  0.00  0.00    +0.123 HD
ENDROOT
TORSDOF 0
