REMARK  Name = =
REMARK  2 active torsions:
REMARK  status: ('A' for Active; 'I' for Inactive)
REMARK    1  A    between atoms: C_1  and  N_4
REMARK    2  A    between atoms: N_4  and  O_5
REMARK                            x       y       z     vdW  Elec       q    Type
REMARK                         _______ _______ _______ _____ _____    ______ ____
ROOT
ATOM      1  C   UNL     1      52.193 154.117  28.078  0.00  0.00    +0.488 C 
ATOM      2  O   UNL     1      50.975 154.326  27.908  0.00  0.00    -0.218 OA
ATOM      3  O   UNL     1      52.633 152.823  28.237  0.00  0.00    -0.218 OA
ENDROOT
BRANCH   1   4
ATOM      4  N   UNL     1      53.075 155.220  28.101  0.00  0.00    -0.024 NA
BRANCH   4   5
ATOM      5  O   UNL     1      52.859 156.048  29.150  0.00  0.00    -0.271 OA
ATOM      6  H   UNL     1      53.490 156.784  29.116  0.00  0.00    +0.244 HD
ENDBRANCH   4   5
ENDBRANCH   1   4
TORSDOF 2
