REMARK  Name = =
REMARK  2 active torsions:
REMARK  status: ('A' for Active; 'I' for Inactive)
REMARK    1  A    between atoms: N_1  and  N_7
REMARK    2  A    between atoms: C_5  and  C_9
REMARK                            x       y       z     vdW  Elec       q    Type
REMARK                         _______ _______ _______ _____ _____    ______ ____
ROOT
ATOM      1  N   UNL     1      50.600 157.082  29.594  0.00  0.00    -0.106 N 
ATOM      2  C   UNL     1      50.166 158.253  30.261  0.00  0.00    +0.326 C 
ATOM      3  O   UNL     1      50.721 159.348  30.017  0.00  0.00    -0.251 OA
ATOM      4  N   UNL     1      49.119 158.207  31.196  0.00  0.00    -0.311 N 
ATOM      5  C   UNL     1      51.661 157.137  28.649  0.00  0.00    +0.275 C 
ATOM      6  O   UNL     1      52.187 158.270  28.439  0.00  0.00    -0.268 OA
ATOM      7  H   UNL     1      48.675 157.351  31.396  0.00  0.00    +0.147 HD
ATOM      8  H   UNL     1      48.829 159.030  31.651  0.00  0.00    +0.147 HD
ENDROOT
BRANCH   1   9
ATOM      9  N   UNL     1      50.026 155.827  29.819  0.00  0.00    -0.164 NA
ATOM     10  C   UNL     1      50.419 155.039  30.764  0.00  0.00    +0.141 C 
ENDBRANCH   1   9
BRANCH   5  11
ATOM     11  C   UNL     1      52.134 155.957  27.945  0.00  0.00    +0.060 C 
ATOM     12  C   UNL     1      53.415 155.682  27.904  0.00  0.00    +0.005 C 
ENDBRANCH   5  11
TORSDOF 2
