REMARK  Name = =
REMARK  2 active torsions:
REMARK  status: ('A' for Active; 'I' for Inactive)
REMARK    1  A    between atoms: N_1  and  O_9
REMARK    2  A    between atoms: O_9  and  N_10
REMARK                            x       y       z     vdW  Elec       q    Type
REMARK                         _______ _______ _______ _____ _____    ______ ____
ROOT
ATOM      1  N   UNL     1      51.839 155.294  29.296  0.00  0.00    -0.162 N 
ATOM      2  C   UNL     1      50.515 155.613  29.703  0.00  0.00    +0.130 C 
ATOM      3  C   UNL     1      50.236 157.056  29.900  0.00  0.00    +0.090 C 
ATOM      4  N   UNL     1      51.349 157.930  29.668  0.00  0.00    -0.247 N 
ATOM      5  C   UNL     1      52.579 157.540  29.013  0.00  0.00    +0.127 C 
ATOM      6  C   UNL     1      52.428 156.166  28.350  0.00  0.00    +0.169 C 
ATOM      7  C   UNL     1      51.251 159.278  30.110  0.00  0.00    +0.307 C 
ATOM      8  O   UNL     1      50.210 159.720  30.698  0.00  0.00    -0.265 OA
ENDROOT
BRANCH   1   9
ATOM      9  O   UNL     1      52.010 153.980  29.101  0.00  0.00    -0.216 OA
BRANCH   9  10
ATOM     10  N   UNL     1      52.262 153.325  27.951  0.00  0.00    +0.242 N 
ATOM     11  O   UNL     1      53.557 153.034  27.616  0.00  0.00    -0.088 OA
ATOM     12  O   UNL     1      51.357 152.974  27.180  0.00  0.00    -0.088 OA
ENDBRANCH   9  10
ENDBRANCH   1   9
TORSDOF 2
