REMARK  Name = =
REMARK  3 active torsions:
REMARK  status: ('A' for Active; 'I' for Inactive)
REMARK    1  A    between atoms: N_1  and  N_7
REMARK    2  A    between atoms: C_5  and  C_16
REMARK    3  A    between atoms: C_8  and  C_9
REMARK                            x       y       z     vdW  Elec       q    Type
REMARK                         _______ _______ _______ _____ _____    ______ ____
ROOT
ATOM      1  N   UNL     1      50.646 157.512  29.794  0.00  0.00    -0.107 N 
ATOM      2  C   UNL     1      50.463 156.110  29.509  0.00  0.00    +0.326 C 
ATOM      3  O   UNL     1      49.348 155.556  29.710  0.00  0.00    -0.251 OA
ATOM      4  N   UNL     1      51.528 155.336  29.001  0.00  0.00    -0.311 N 
ATOM      5  C   UNL     1      51.909 158.074  29.550  0.00  0.00    +0.275 C 
ATOM      6  O   UNL     1      52.798 157.261  29.086  0.00  0.00    -0.268 OA
ATOM      7  H   UNL     1      51.394 154.380  28.809  0.00  0.00    +0.147 HD
ATOM      8  H   UNL     1      52.405 155.752  28.838  0.00  0.00    +0.147 HD
ENDROOT
BRANCH   1   9
ATOM      9  N   UNL     1      49.617 158.285  30.290  0.00  0.00    -0.171 NA
ATOM     10  C   UNL     1      49.422 159.524  29.988  0.00  0.00    +0.094 C 
BRANCH  10  11
ATOM     11  C   UNL     1      48.285 160.209  30.596  0.00  0.00    +0.073 C 
ATOM     12  C   UNL     1      47.801 159.524  31.860  0.00  0.00    +0.038 C 
ATOM     13  C   UNL     1      47.902 160.652  32.870  0.00  0.00    +0.116 C 
ATOM     14  O   UNL     1      47.577 161.759  32.055  0.00  0.00    -0.358 OA
ATOM     15  C   UNL     1      48.583 161.606  31.068  0.00  0.00    +0.121 C 
ATOM     16  C   UNL     1      49.809 161.670  31.954  0.00  0.00    +0.032 C 
ATOM     17  C   UNL     1      49.402 160.842  33.134  0.00  0.00    +0.032 C 
ENDBRANCH  10  11
ENDBRANCH   1   9
BRANCH   5  18
ATOM     18  C   UNL     1      52.331 159.427  29.752  0.00  0.00    +0.060 C 
ATOM     19  C   UNL     1      52.361 160.071  30.877  0.00  0.00    +0.005 C 
ENDBRANCH   5  18
TORSDOF 3
