REMARK  Name = =
REMARK  1 active torsions:
REMARK  status: ('A' for Active; 'I' for Inactive)
REMARK    1  A    between atoms: N_4  and  O_7
REMARK                            x       y       z     vdW  Elec       q    Type
REMARK                         _______ _______ _______ _____ _____    ______ ____
ROOT
ATOM      1  C   UNL     1      52.224 153.824  28.020  0.00  0.00    +0.476 C 
ATOM      2  O   UNL     1      51.350 153.273  27.304  0.00  0.00    -0.220 OA
ATOM      3  O   UNL     1      53.365 153.165  28.391  0.00  0.00    -0.220 OA
ATOM      4  N   UNL     1      51.999 155.149  28.435  0.00  0.00    -0.070 N 
ATOM      5  C   UNL     1      50.699 155.337  28.936  0.00  0.00    +0.336 C 
ATOM      6  O   UNL     1      50.562 155.937  29.980  0.00  0.00    -0.262 OA
ENDROOT
BRANCH   4   7
ATOM      7  O   UNL     1      52.961 155.666  29.187  0.00  0.00    -0.283 OA
ATOM      8  H   UNL     1      53.822 155.494  28.774  0.00  0.00    +0.242 HD
ENDBRANCH   4   7
TORSDOF 1
