REMARK  Name = =
REMARK  12 active torsions:
REMARK  status: ('A' for Active; 'I' for Inactive)
REMARK    1  A    between atoms: S_1  and  P_2
REMARK    2  A    between atoms: S_1  and  C_6
REMARK    3  A    between atoms: P_2  and  O_16
REMARK    4  A    between atoms: P_2  and  O_17
REMARK    5  A    between atoms: N_4  and  O_12
REMARK    6  A    between atoms: O_12  and  N_13
REMARK    7  A    between atoms: O_17  and  P_18
REMARK    8  A    between atoms: P_18  and  O_20
REMARK    9  A    between atoms: P_18  and  O_21
REMARK   10  A    between atoms: O_21  and  P_22
REMARK   11  A    between atoms: P_22  and  O_24
REMARK   12  A    between atoms: P_22  and  O_25
REMARK                            x       y       z     vdW  Elec       q    Type
REMARK                         _______ _______ _______ _____ _____    ______ ____
ROOT
ATOM      1  P   UNL     1      53.823 158.231  27.904  0.00  0.00    +0.387 P 
ATOM      2  O   UNL     1      52.994 159.272  28.637  0.00  0.00    -0.247 OA
ENDROOT
BRANCH   1   3
ATOM      3  S   UNL     1      53.808 156.744  29.137  0.00  0.00    -0.085 S 
ATOM      4  H   UNL     1      54.477 157.065  30.277  0.00  0.00    +0.105 HD
BRANCH   3   7
ATOM      5  N   UNL     1      49.844 157.144  29.286  0.00  0.00    -0.087 NA
ATOM      6  C   UNL     1      51.133 157.198  28.633  0.00  0.00    +0.147 C 
ATOM      7  C   UNL     1      52.091 156.437  29.489  0.00  0.00    +0.141 C 
ATOM      8  N   UNL     1      51.717 155.059  29.440  0.00  0.00    -0.262 N 
ATOM      9  C   UNL     1      50.330 154.722  29.442  0.00  0.00    +0.116 C 
ATOM     10  C   UNL     1      49.382 155.830  29.578  0.00  0.00    +0.138 C 
ATOM     11  C   UNL     1      52.677 154.013  29.389  0.00  0.00    +0.304 C 
ATOM     12  O   UNL     1      52.345 152.811  29.347  0.00  0.00    -0.265 OA
BRANCH   5  13
ATOM     13  O   UNL     1      49.931 157.934  30.413  0.00  0.00    -0.246 OA
BRANCH  13  14
ATOM     14  N   UNL     1      48.960 157.997  31.368  0.00  0.00    +0.237 N 
ATOM     15  O   UNL     1      48.933 157.064  32.362  0.00  0.00    -0.088 OA
ATOM     16  O   UNL     1      48.118 158.901  31.315  0.00  0.00    -0.088 OA
ENDBRANCH  13  14
ENDBRANCH   5  13
ENDBRANCH   3   7
ENDBRANCH   1   3
BRANCH   1  17
ATOM     17  O   UNL     1      53.087 157.700  26.497  0.00  0.00    -0.317 OA
ATOM     18  H   UNL     1      52.185 157.404  26.696  0.00  0.00    +0.221 HD
ENDBRANCH   1  17
BRANCH   1  19
ATOM     19  O   UNL     1      55.371 158.743  27.582  0.00  0.00    -0.200 OA
BRANCH  19  20
ATOM     20  P   UNL     1      55.960 159.860  28.680  0.00  0.00    +0.491 P 
ATOM     21  O   UNL     1      55.247 159.785  30.002  0.00  0.00    -0.226 OA
BRANCH  20  22
ATOM     22  O   UNL     1      57.628 159.605  28.926  0.00  0.00    -0.302 OA
ATOM     23  H   UNL     1      57.767 158.726  29.311  0.00  0.00    +0.222 HD
ENDBRANCH  20  22
BRANCH  20  24
ATOM     24  O   UNL     1      55.826 161.426  28.004  0.00  0.00    -0.186 OA
BRANCH  24  25
ATOM     25  P   UNL     1      57.370 162.046  27.688  0.00  0.00    +0.481 P 
ATOM     26  O   UNL     1      57.953 162.732  28.900  0.00  0.00    -0.227 OA
BRANCH  25  27
ATOM     27  O   UNL     1      57.305 163.189  26.445  0.00  0.00    -0.302 OA
ATOM     28  H   UNL     1      56.718 163.916  26.705  0.00  0.00    +0.222 HD
ENDBRANCH  25  27
BRANCH  25  29
ATOM     29  O   UNL     1      58.377 160.779  27.266  0.00  0.00    -0.302 OA
ATOM     30  H   UNL     1      58.404 160.133  27.989  0.00  0.00    +0.222 HD
ENDBRANCH  25  29
ENDBRANCH  24  25
ENDBRANCH  20  24
ENDBRANCH  19  20
ENDBRANCH   1  19
TORSDOF 12
