REMARK  Name = =
REMARK  6 active torsions:
REMARK  status: ('A' for Active; 'I' for Inactive)
REMARK    1  A    between atoms: C_1  and  C_9
REMARK    2  A    between atoms: C_6  and  N_18
REMARK    3  A    between atoms: N_8  and  N_10
REMARK    4  A    between atoms: C_14  and  C_16
REMARK    5  A    between atoms: N_18  and  S_19
REMARK    6  A    between atoms: S_19  and  C_22
REMARK                            x       y       z     vdW  Elec       q    Type
REMARK                         _______ _______ _______ _____ _____    ______ ____
ROOT
ATOM      1  C   UNL     1      51.880 156.022  27.731  0.00  0.00    +0.074 C 
ATOM      2  C   UNL     1      52.992 157.047  27.716  0.00  0.00    +0.038 C 
ATOM      3  C   UNL     1      52.698 157.798  29.006  0.00  0.00    +0.117 C 
ATOM      4  O   UNL     1      52.508 156.684  29.863  0.00  0.00    -0.357 OA
ATOM      5  C   UNL     1      51.434 156.071  29.170  0.00  0.00    +0.137 C 
ATOM      6  C   UNL     1      50.422 157.199  29.271  0.00  0.00    +0.105 C 
ATOM      7  C   UNL     1      51.303 158.380  28.844  0.00  0.00    +0.049 C 
ENDROOT
BRANCH   1   9
ATOM      8  N   UNL     1      52.072 154.269  26.169  0.00  0.00    -0.171 NA
ATOM      9  C   UNL     1      52.396 154.692  27.338  0.00  0.00    +0.094 C 
BRANCH   8  10
ATOM     10  N   UNL     1      52.581 152.979  25.806  0.00  0.00    -0.107 N 
ATOM     11  C   UNL     1      52.255 151.859  26.594  0.00  0.00    +0.326 C 
ATOM     12  O   UNL     1      52.622 150.687  26.401  0.00  0.00    -0.251 OA
ATOM     13  N   UNL     1      51.407 152.005  27.770  0.00  0.00    -0.311 N 
ATOM     14  C   UNL     1      53.380 152.937  24.669  0.00  0.00    +0.275 C 
ATOM     15  O   UNL     1      53.619 154.013  24.021  0.00  0.00    -0.268 OA
ATOM     16  H   UNL     1      51.058 152.891  28.018  0.00  0.00    +0.147 HD
ATOM     17  H   UNL     1      51.183 151.217  28.316  0.00  0.00    +0.147 HD
BRANCH  14  18
ATOM     18  C   UNL     1      53.974 151.722  24.163  0.00  0.00    +0.060 C 
ATOM     19  C   UNL     1      55.004 151.200  24.800  0.00  0.00    +0.005 C 
ENDBRANCH  14  18
ENDBRANCH   8  10
ENDBRANCH   1   9
BRANCH   6  20
ATOM     20  N   UNL     1      50.043 157.438  30.631  0.00  0.00    -0.178 NA
ATOM     21  H   UNL     1      50.888 157.643  31.164  0.00  0.00    +0.149 HD
BRANCH  20  22
ATOM     22  S   UNL     1      48.950 158.726  30.858  0.00  0.00    +0.060 S 
ATOM     23  O   UNL     1      47.828 158.358  31.787  0.00  0.00    -0.153 OA
ATOM     24  O   UNL     1      48.347 159.048  29.504  0.00  0.00    -0.153 OA
BRANCH  22  25
ATOM     25  C   UNL     1      49.822 160.126  31.413  0.00  0.00    +0.122 C 
ATOM     26  C   UNL     1      51.062 160.434  30.902  0.00  0.00    +0.020 C 
ATOM     27  C   UNL     1      51.774 161.555  31.337  0.00  0.00    +0.001 C 
ATOM     28  C   UNL     1      51.240 162.392  32.303  0.00  0.00    +0.000 C 
ATOM     29  C   UNL     1      50.002 162.085  32.812  0.00  0.00    +0.001 C 
ATOM     30  C   UNL     1      49.307 160.971  32.372  0.00  0.00    +0.020 C 
ENDBRANCH  22  25
ENDBRANCH  20  22
ENDBRANCH   6  20
TORSDOF 6
