REMARK  Name = =
REMARK  2 active torsions:
REMARK  status: ('A' for Active; 'I' for Inactive)
REMARK    1  A    between atoms: N_4  and  O_11
REMARK    2  A    between atoms: N_7  and  S_8
REMARK                            x       y       z     vdW  Elec       q    Type
REMARK                         _______ _______ _______ _____ _____    ______ ____
ROOT
ATOM      1  C   UNL     1      52.402 155.210  25.512  0.00  0.00    +0.477 C 
ATOM      2  O   UNL     1      52.567 156.256  26.192  0.00  0.00    -0.220 OA
ATOM      3  O   UNL     1      52.375 155.360  24.132  0.00  0.00    -0.220 OA
ATOM      4  N   UNL     1      52.261 153.994  26.194  0.00  0.00    -0.061 N 
ATOM      5  C   UNL     1      53.169 153.801  27.250  0.00  0.00    +0.354 C 
ATOM      6  O   UNL     1      53.380 154.768  28.030  0.00  0.00    -0.248 OA
ATOM      7  N   UNL     1      53.871 152.598  27.510  0.00  0.00    -0.174 N 
ATOM      8  H   UNL     1      53.716 151.833  26.910  0.00  0.00    +0.178 HD
ENDROOT
BRANCH   7   9
ATOM      9  S   UNL     1      54.972 152.393  28.804  0.00  0.00    +0.036 S 
ATOM     10  O   UNL     1      56.394 152.501  28.382  0.00  0.00    -0.158 OA
ATOM     11  O   UNL     1      54.755 153.441  29.883  0.00  0.00    -0.158 OA
ATOM     12  H   UNL     1      54.730 151.139  29.273  0.00  0.00    +0.233 HD
ENDBRANCH   7   9
BRANCH   4  13
ATOM     13  O   UNL     1      52.090 152.932  25.415  0.00  0.00    -0.282 OA
ATOM     14  H   UNL     1      51.453 153.144  24.715  0.00  0.00    +0.242 HD
ENDBRANCH   4  13
TORSDOF 2
