REMARK  Name = =
REMARK  5 active torsions:
REMARK  status: ('A' for Active; 'I' for Inactive)
REMARK    1  A    between atoms: N_4  and  O_11
REMARK    2  A    between atoms: N_7  and  S_8
REMARK    3  A    between atoms: N_7  and  S_12
REMARK    4  A    between atoms: S_12  and  S_13
REMARK    5  A    between atoms: S_12  and  S_16
REMARK                            x       y       z     vdW  Elec       q    Type
REMARK                         _______ _______ _______ _____ _____    ______ ____
ROOT
ATOM      1  C   UNL     1      52.817 155.913  25.051  0.00  0.00    +0.477 C 
ATOM      2  O   UNL     1      52.414 156.334  23.954  0.00  0.00    -0.220 OA
ATOM      3  O   UNL     1      52.611 156.675  26.179  0.00  0.00    -0.220 OA
ATOM      4  N   UNL     1      53.470 154.688  25.157  0.00  0.00    -0.060 N 
ATOM      5  C   UNL     1      53.175 153.979  26.313  0.00  0.00    +0.367 C 
ATOM      6  O   UNL     1      53.057 154.675  27.397  0.00  0.00    -0.247 OA
ATOM      7  N   UNL     1      52.975 152.599  26.504  0.00  0.00    -0.094 N 
ENDROOT
BRANCH   7   8
ATOM      8  S   UNL     1      52.500 152.099  28.106  0.00  0.00    +0.048 S 
ATOM      9  O   UNL     1      51.348 151.153  28.103  0.00  0.00    -0.157 OA
ATOM     10  O   UNL     1      51.941 153.344  28.840  0.00  0.00    -0.157 OA
ATOM     11  H   UNL     1      53.593 151.521  28.673  0.00  0.00    +0.234 HD
ENDBRANCH   7   8
BRANCH   4  12
ATOM     12  O   UNL     1      53.589 154.100  24.009  0.00  0.00    -0.282 OA
ATOM     13  H   UNL     1      53.795 154.759  23.328  0.00  0.00    +0.242 HD
ENDBRANCH   4  12
BRANCH   7  14
ATOM     14  S   UNL     1      53.271 151.574  25.228  0.00  0.00    +0.006 S 
ATOM     15  H   UNL     1      52.358 151.666  24.224  0.00  0.00    +0.135 HD
BRANCH  14  16
ATOM     16  S   UNL     1      53.144 149.984  25.786  0.00  0.00    +0.014 S 
ATOM     17  O   UNL     1      51.863 149.336  25.485  0.00  0.00    -0.166 OA
ATOM     18  O   UNL     1      54.196 149.110  25.240  0.00  0.00    -0.166 OA
ATOM     19  H   UNL     1      53.269 150.124  27.133  0.00  0.00    +0.223 HD
ENDBRANCH  14  16
BRANCH  14  20
ATOM     20  S   UNL     1      54.616 151.981  24.574  0.00  0.00    -0.094 S 
ATOM     21  H   UNL     1      55.608 151.922  25.503  0.00  0.00    +0.115 HD
ENDBRANCH  14  20
ENDBRANCH   7  14
TORSDOF 5
