REMARK  Name = =
REMARK  8 active torsions:
REMARK  status: ('A' for Active; 'I' for Inactive)
REMARK    1  A    between atoms: S_1  and  N_8
REMARK    2  A    between atoms: S_1  and  S_13
REMARK    3  A    between atoms: S_1  and  S_25
REMARK    4  A    between atoms: N_5  and  O_12
REMARK    5  A    between atoms: N_8  and  S_9
REMARK    6  A    between atoms: S_13  and  C_16
REMARK    7  A    between atoms: C_16  and  C_18
REMARK    8  A    between atoms: C_20  and  N_24
REMARK                            x       y       z     vdW  Elec       q    Type
REMARK                         _______ _______ _______ _____ _____    ______ ____
ROOT
ATOM      1  S   UNL     1      52.498 153.667  26.635  0.00  0.00    +0.017 S 
ATOM      2  H   UNL     1      52.264 152.370  26.972  0.00  0.00    +0.136 HD
ENDROOT
BRANCH   1   9
ATOM      3  C   UNL     1      54.360 151.095  25.081  0.00  0.00    +0.477 C 
ATOM      4  O   UNL     1      53.137 151.154  24.952  0.00  0.00    -0.220 OA
ATOM      5  O   UNL     1      55.119 150.156  24.396  0.00  0.00    -0.220 OA
ATOM      6  N   UNL     1      55.038 152.029  25.976  0.00  0.00    -0.060 N 
ATOM      7  C   UNL     1      54.888 153.352  25.461  0.00  0.00    +0.367 C 
ATOM      8  O   UNL     1      55.878 153.903  24.852  0.00  0.00    -0.247 OA
ATOM      9  N   UNL     1      53.711 154.082  25.590  0.00  0.00    -0.094 N 
BRANCH   9  10
ATOM     10  S   UNL     1      53.638 155.591  24.674  0.00  0.00    +0.048 S 
ATOM     11  O   UNL     1      53.078 156.629  25.618  0.00  0.00    -0.157 OA
ATOM     12  O   UNL     1      54.962 155.999  24.170  0.00  0.00    -0.157 OA
ATOM     13  H   UNL     1      52.856 155.440  23.572  0.00  0.00    +0.234 HD
ENDBRANCH   9  10
BRANCH   6  14
ATOM     14  O   UNL     1      56.394 151.679  25.840  0.00  0.00    -0.282 OA
ATOM     15  H   UNL     1      56.532 150.782  26.182  0.00  0.00    +0.242 HD
ENDBRANCH   6  14
ENDBRANCH   1   9
BRANCH   1  16
ATOM     16  S   UNL     1      52.958 154.465  28.149  0.00  0.00    +0.090 S 
ATOM     17  O   UNL     1      53.563 155.783  28.093  0.00  0.00    -0.155 OA
ATOM     18  O   UNL     1      53.926 153.677  28.906  0.00  0.00    -0.155 OA
BRANCH  16  19
ATOM     19  C   UNL     1      51.637 154.681  29.177  0.00  0.00    +0.311 C 
ATOM     20  O   UNL     1      51.038 153.710  29.710  0.00  0.00    -0.265 OA
BRANCH  19  21
ATOM     21  C   UNL     1      51.131 156.012  29.493  0.00  0.00    +0.059 C 
ATOM     22  C   UNL     1      51.955 157.095  29.575  0.00  0.00    +0.019 C 
ATOM     23  C   UNL     1      51.467 158.333  29.876  0.00  0.00    +0.042 C 
ATOM     24  C   UNL     1      50.113 158.449  30.095  0.00  0.00    +0.014 C 
ATOM     25  C   UNL     1      49.251 157.387  30.024  0.00  0.00    +0.001 C 
ATOM     26  C   UNL     1      49.766 156.150  29.718  0.00  0.00    +0.005 C 
BRANCH  23  27
ATOM     27  N   UNL     1      52.373 159.438  29.947  0.00  0.00    -0.357 N 
ATOM     28  H   UNL     1      53.333 159.299  29.781  0.00  0.00    +0.142 HD
ATOM     29  H   UNL     1      52.036 160.338  30.162  0.00  0.00    +0.142 HD
ENDBRANCH  23  27
ENDBRANCH  19  21
ENDBRANCH  16  19
ENDBRANCH   1  16
BRANCH   1  30
ATOM     30  S   UNL     1      51.297 154.157  25.906  0.00  0.00    -0.094 S 
ATOM     31  H   UNL     1      51.483 155.455  25.547  0.00  0.00    +0.115 HD
ENDBRANCH   1  30
TORSDOF 8
