MODEL 1
REMARK VINA RESULT:    -7.489      0.000      0.000
REMARK INTER + INTRA:         -10.711
REMARK INTER:                  -9.021
REMARK INTRA:                  -1.689
REMARK UNBOUND:                -1.689
REMARK  Name = =
REMARK  4 active torsions:
REMARK  status: ('A' for Active; 'I' for Inactive)
REMARK    1  A    between atoms: S_1  and  C_2
REMARK    2  A    between atoms: S_1  and  C_16
REMARK    3  A    between atoms: S_1  and  C_30
REMARK    4  A    between atoms: C_33  and  O_36
REMARK                            x       y       z     vdW  Elec       q    Type
REMARK                         _______ _______ _______ _____ _____    ______ ____
ROOT
ATOM      1  S   UNL     1      59.841 162.905  39.262  0.00  0.00    -0.168 S 
ATOM      2  H   UNL     1      60.137 164.228  39.370  0.00  0.00    +0.097 HD
ENDROOT
BRANCH   1   3
ATOM      3  C   UNL     1      58.575 162.764  40.352  0.00  0.00    +0.015 C 
ATOM      4  C   UNL     1      58.011 163.823  41.028  0.00  0.00    +0.006 C 
ATOM      5  C   UNL     1      56.896 163.668  41.844  0.00  0.00    +0.020 C 
ATOM      6  C   UNL     1      56.304 162.412  42.011  0.00  0.00    +0.099 C 
ATOM      7  N   UNL     1      55.223 162.292  42.809  0.00  0.00    -0.241 NA
ATOM      8  C   UNL     1      54.648 161.089  42.977  0.00  0.00    +0.119 C 
ATOM      9  C   UNL     1      55.185 160.004  42.323  0.00  0.00    +0.119 C 
ATOM     10  N   UNL     1      56.262 160.140  41.532  0.00  0.00    -0.241 NA
ATOM     11  C   UNL     1      56.849 161.350  41.355  0.00  0.00    +0.099 C 
ATOM     12  C   UNL     1      57.940 161.533  40.563  0.00  0.00    +0.026 C 
ATOM     13  C   UNL     1      56.346 164.713  42.533  0.00  0.00    +0.002 C 
ATOM     14  C   UNL     1      56.907 165.968  42.431  0.00  0.00    +0.000 C 
ATOM     15  C   UNL     1      58.011 166.121  41.627  0.00  0.00    +0.000 C 
ATOM     16  C   UNL     1      58.574 165.079  40.926  0.00  0.00    +0.000 C 
ENDBRANCH   1   3
BRANCH   1  17
ATOM     17  C   UNL     1      59.461 162.794  37.657  0.00  0.00    +0.032 C 
ATOM     18  C   UNL     1      59.624 163.920  36.829  0.00  0.00    +0.103 A 
ATOM     19  N   UNL     1      60.056 165.069  37.382  0.00  0.00    -0.242 NA
ATOM     20  C   UNL     1      60.243 166.201  36.678  0.00  0.00    +0.099 A 
ATOM     21  C   UNL     1      59.976 166.169  35.324  0.00  0.00    +0.099 A 
ATOM     22  N   UNL     1      59.541 165.023  34.749  0.00  0.00    -0.242 NA
ATOM     23  C   UNL     1      59.359 163.897  35.478  0.00  0.00    +0.099 A 
ATOM     24  C   UNL     1      58.919 162.742  34.891  0.00  0.00    +0.021 C 
ATOM     25  C   UNL     1      58.749 161.635  35.655  0.00  0.00    +0.002 C 
ATOM     26  C   UNL     1      59.019 161.670  37.016  0.00  0.00    +0.007 C 
ATOM     27  C   UNL     1      60.167 167.325  34.599  0.00  0.00    +0.021 C 
ATOM     28  C   UNL     1      60.611 168.484  35.204  0.00  0.00    +0.002 C 
ATOM     29  C   UNL     1      60.885 168.536  36.556  0.00  0.00    +0.002 C 
ATOM     30  C   UNL     1      60.691 167.371  37.272  0.00  0.00    +0.021 C 
ENDBRANCH   1  17
BRANCH   1  31
ATOM     31  C   UNL     1      61.262 162.146  39.716  0.00  0.00    +0.013 C 
ATOM     32  C   UNL     1      61.664 162.217  41.068  0.00  0.00    +0.008 C 
ATOM     33  C   UNL     1      62.809 161.619  41.530  0.00  0.00    +0.037 C 
ATOM     34  C   UNL     1      63.605 160.919  40.645  0.00  0.00    +0.134 C 
ATOM     35  C   UNL     1      63.268 160.814  39.322  0.00  0.00    +0.037 C 
ATOM     36  C   UNL     1      62.090 161.438  38.887  0.00  0.00    +0.008 C 
BRANCH  34  37
ATOM     37  O   UNL     1      64.752 160.324  41.126  0.00  0.00    -0.506 OA
ATOM     38  H   UNL     1      65.522 160.293  40.593  0.00  0.00    +0.292 HD
ENDBRANCH  34  37
ENDBRANCH   1  31
TORSDOF 4
ENDMDL
