MODEL 1
REMARK VINA RESULT:    -7.673      0.000      0.000
REMARK INTER + INTRA:          -8.649
REMARK INTER:                  -9.019
REMARK INTRA:                   0.369
REMARK UNBOUND:                 0.369
REMARK  Name = =
REMARK  3 active torsions:
REMARK  status: ('A' for Active; 'I' for Inactive)
REMARK    1  A    between atoms: C_1  and  C_21
REMARK    2  A    between atoms: C_1  and  N_37
REMARK    3  A    between atoms: C_26  and  N_31
REMARK                            x       y       z     vdW  Elec       q    Type
REMARK                         _______ _______ _______ _____ _____    ______ ____
ROOT
ATOM      1  C   UNL     1      62.805 167.504  35.729  0.00  0.00    +0.117 C 
ATOM      2  C   UNL     1      63.868 167.107  34.781  0.00  0.00    -0.001 C 
ATOM      3  C   UNL     1      65.041 167.825  34.598  0.00  0.00    -0.021 C 
ATOM      4  C   UNL     1      66.029 167.449  33.710  0.00  0.00    +0.036 C 
ATOM      5  C   UNL     1      65.864 166.303  32.953  0.00  0.00    +0.176 C 
ATOM      6  C   UNL     1      64.706 165.573  33.117  0.00  0.00    +0.176 C 
ATOM      7  C   UNL     1      63.724 165.964  34.014  0.00  0.00    +0.038 C 
ATOM      8  O   UNL     1      64.828 164.493  32.235  0.00  0.00    -0.435 OA
ATOM      9  C   UNL     1      66.196 164.358  31.899  0.00  0.00    +0.429 C 
ATOM     10  O   UNL     1      66.675 165.685  31.994  0.00  0.00    -0.435 OA
ATOM     11  C   UNL     1      65.284 169.060  35.385  0.00  0.00    +0.029 C 
ATOM     12  C   UNL     1      64.666 168.863  36.782  0.00  0.00    +0.039 C 
ATOM     13  C   UNL     1      63.171 168.613  36.641  0.00  0.00    +0.058 C 
ATOM     14  C   UNL     1      62.724 169.975  36.172  0.00  0.00    +0.144 C 
ATOM     15  O   UNL     1      63.547 170.905  36.771  0.00  0.00    -0.354 OA
ATOM     16  C   UNL     1      64.610 170.280  37.358  0.00  0.00    +0.143 C 
ENDROOT
BRANCH   1  21
ATOM     17  N   UNL     1      59.712 163.699  35.211  0.00  0.00    -0.242 NA
ATOM     18  C   UNL     1      60.185 163.532  36.462  0.00  0.00    +0.100 C 
ATOM     19  C   UNL     1      61.108 164.411  37.011  0.00  0.00    +0.099 C 
ATOM     20  N   UNL     1      61.493 165.430  36.228  0.00  0.00    -0.246 NA
ATOM     21  C   UNL     1      62.368 166.354  36.607  0.00  0.00    +0.079 C 
ATOM     22  C   UNL     1      62.879 166.210  37.887  0.00  0.00    +0.017 C 
ATOM     23  C   UNL     1      62.529 165.194  38.742  0.00  0.00    +0.003 C 
ATOM     24  C   UNL     1      61.600 164.255  38.274  0.00  0.00    +0.020 C 
ATOM     25  C   UNL     1      61.183 163.211  39.031  0.00  0.00    +0.016 C 
ATOM     26  C   UNL     1      60.251 162.286  38.531  0.00  0.00    +0.049 C 
ATOM     27  C   UNL     1      59.775 162.470  37.257  0.00  0.00    +0.033 C 
ATOM     28  C   UNL     1      58.851 161.568  36.728  0.00  0.00    +0.004 C 
ATOM     29  C   UNL     1      58.400 161.787  35.441  0.00  0.00    +0.021 C 
ATOM     30  C   UNL     1      58.820 162.848  34.670  0.00  0.00    +0.099 C 
BRANCH  26  31
ATOM     31  N   UNL     1      59.843 161.223  39.373  0.00  0.00    -0.305 N 
ATOM     32  C   UNL     1      60.347 159.898  39.182  0.00  0.00    +0.110 C 
ATOM     33  C   UNL     1      59.125 158.984  39.027  0.00  0.00    +0.110 C 
ATOM     34  N   UNL     1      58.438 159.081  40.322  0.00  0.00    -0.214 NA
ATOM     35  C   UNL     1      57.777 160.372  40.352  0.00  0.00    +0.110 C 
ATOM     36  C   UNL     1      58.881 161.429  40.447  0.00  0.00    +0.110 C 
ENDBRANCH  26  31
ENDBRANCH   1  21
BRANCH   1  37
ATOM     37  N   UNL     1      61.591 167.855  34.962  0.00  0.00    -0.267 N 
ATOM     38  C   UNL     1      61.483 168.104  33.553  0.00  0.00    +0.121 C 
ATOM     39  C   UNL     1      60.070 168.423  33.330  0.00  0.00    -0.000 C 
ATOM     40  C   UNL     1      59.420 168.366  34.465  0.00  0.00    +0.055 C 
ATOM     41  C   UNL     1      60.312 168.011  35.554  0.00  0.00    +0.250 C 
ATOM     42  O   UNL     1      59.987 167.873  36.783  0.00  0.00    -0.270 OA
ENDBRANCH   1  37
TORSDOF 3
ENDMDL
