REMARK  Name = =
REMARK  3 active torsions:
REMARK  status: ('A' for Active; 'I' for Inactive)
REMARK    1  A    between atoms: C_1  and  C_21
REMARK    2  A    between atoms: C_1  and  N_37
REMARK    3  A    between atoms: C_26  and  N_31
REMARK                            x       y       z     vdW  Elec       q    Type
REMARK                         _______ _______ _______ _____ _____    ______ ____
ROOT
ATOM      1  C   UNL     1      52.995 153.492  27.167  0.00  0.00    +0.117 C 
ATOM      2  C   UNL     1      53.599 154.062  25.943  0.00  0.00    -0.001 C 
ATOM      3  C   UNL     1      53.556 153.438  24.704  0.00  0.00    -0.021 C 
ATOM      4  C   UNL     1      54.123 153.975  23.566  0.00  0.00    +0.036 C 
ATOM      5  C   UNL     1      54.772 155.194  23.638  0.00  0.00    +0.176 C 
ATOM      6  C   UNL     1      54.828 155.833  24.859  0.00  0.00    +0.176 C 
ATOM      7  C   UNL     1      54.253 155.280  25.992  0.00  0.00    +0.038 C 
ATOM      8  O   UNL     1      55.533 157.018  24.618  0.00  0.00    -0.435 OA
ATOM      9  C   UNL     1      55.499 157.269  23.225  0.00  0.00    +0.429 C 
ATOM     10  O   UNL     1      55.427 155.969  22.674  0.00  0.00    -0.435 OA
ATOM     11  C   UNL     1      52.868 152.131  24.556  0.00  0.00    +0.029 C 
ATOM     12  C   UNL     1      51.658 152.120  25.509  0.00  0.00    +0.039 C 
ATOM     13  C   UNL     1      52.142 152.302  26.941  0.00  0.00    +0.058 C 
ATOM     14  C   UNL     1      52.849 150.985  27.144  0.00  0.00    +0.144 C 
ATOM     15  O   UNL     1      52.164 150.036  26.416  0.00  0.00    -0.354 OA
ATOM     16  C   UNL     1      51.267 150.642  25.584  0.00  0.00    +0.143 C 
ENDROOT
BRANCH   1  21
ATOM     17  N   UNL     1      53.692 158.054  28.903  0.00  0.00    -0.242 NA
ATOM     18  C   UNL     1      52.412 157.799  29.239  0.00  0.00    +0.100 C 
ATOM     19  C   UNL     1      51.807 156.590  28.923  0.00  0.00    +0.099 C 
ATOM     20  N   UNL     1      52.571 155.699  28.272  0.00  0.00    -0.246 NA
ATOM     21  C   UNL     1      52.139 154.500  27.899  0.00  0.00    +0.079 C 
ATOM     22  C   UNL     1      50.825 154.205  28.224  0.00  0.00    +0.017 C 
ATOM     23  C   UNL     1      49.988 155.068  28.889  0.00  0.00    +0.003 C 
ATOM     24  C   UNL     1      50.512 156.316  29.251  0.00  0.00    +0.020 C 
ATOM     25  C   UNL     1      49.776 157.245  29.909  0.00  0.00    +0.016 C 
ATOM     26  C   UNL     1      50.331 158.488  30.256  0.00  0.00    +0.049 C 
ATOM     27  C   UNL     1      51.637 158.734  29.911  0.00  0.00    +0.033 C 
ATOM     28  C   UNL     1      52.218 159.960  30.238  0.00  0.00    +0.004 C 
ATOM     29  C   UNL     1      53.533 160.169  29.870  0.00  0.00    +0.021 C 
ATOM     30  C   UNL     1      54.284 159.226  29.203  0.00  0.00    +0.099 C 
BRANCH  26  31
ATOM     31  N   UNL     1      49.519 159.414  30.954  0.00  0.00    -0.305 N 
ATOM     32  C   UNL     1      49.965 160.012  32.174  0.00  0.00    +0.110 C 
ATOM     33  C   UNL     1      48.886 159.721  33.224  0.00  0.00    +0.110 C 
ATOM     34  N   UNL     1      47.698 160.425  32.723  0.00  0.00    -0.214 NA
ATOM     35  C   UNL     1      47.182 159.643  31.616  0.00  0.00    +0.110 C 
ATOM     36  C   UNL     1      48.192 159.777  30.473  0.00  0.00    +0.110 C 
ENDBRANCH  26  31
ENDBRANCH   1  21
BRANCH   1  37
ATOM     37  N   UNL     1      54.075 153.171  28.124  0.00  0.00    -0.267 N 
ATOM     38  C   UNL     1      55.466 152.962  27.842  0.00  0.00    +0.121 C 
ATOM     39  C   UNL     1      56.076 152.659  29.140  0.00  0.00    -0.000 C 
ATOM     40  C   UNL     1      55.162 152.689  30.076  0.00  0.00    +0.055 C 
ATOM     41  C   UNL     1      53.860 153.008  29.516  0.00  0.00    +0.250 C 
ATOM     42  O   UNL     1      52.764 153.114  30.165  0.00  0.00    -0.270 OA
ENDBRANCH   1  37
TORSDOF 3
