REMARK  Name = =
REMARK  4 active torsions:
REMARK  status: ('A' for Active; 'I' for Inactive)
REMARK    1  A    between atoms: S_1  and  C_2
REMARK    2  A    between atoms: S_1  and  C_16
REMARK    3  A    between atoms: S_1  and  C_30
REMARK    4  A    between atoms: C_33  and  O_36
REMARK                            x       y       z     vdW  Elec       q    Type
REMARK                         _______ _______ _______ _____ _____    ______ ____
ROOT
ATOM      1  S   UNL     1      54.592 152.408  25.631  0.00  0.00    -0.168 S 
ATOM      2  H   UNL     1      55.142 152.197  24.405  0.00  0.00    +0.097 HD
ENDROOT
BRANCH   1   3
ATOM      3  C   UNL     1      55.919 152.172  26.628  0.00  0.00    +0.015 C 
ATOM      4  C   UNL     1      55.890 152.288  27.999  0.00  0.00    +0.006 C 
ATOM      5  C   UNL     1      56.993 151.982  28.789  0.00  0.00    +0.020 C 
ATOM      6  C   UNL     1      58.187 151.543  28.207  0.00  0.00    +0.099 C 
ATOM      7  N   UNL     1      59.240 151.253  28.999  0.00  0.00    -0.241 NA
ATOM      8  C   UNL     1      60.392 150.832  28.449  0.00  0.00    +0.119 C 
ATOM      9  C   UNL     1      60.463 150.708  27.080  0.00  0.00    +0.119 C 
ATOM     10  N   UNL     1      59.406 151.001  26.306  0.00  0.00    -0.241 NA
ATOM     11  C   UNL     1      58.238 151.426  26.851  0.00  0.00    +0.099 C 
ATOM     12  C   UNL     1      57.142 151.732  26.105  0.00  0.00    +0.026 C 
ATOM     13  C   UNL     1      56.975 152.116  30.150  0.00  0.00    +0.002 C 
ATOM     14  C   UNL     1      55.836 152.574  30.775  0.00  0.00    +0.000 C 
ATOM     15  C   UNL     1      54.746 152.880  29.994  0.00  0.00    +0.000 C 
ATOM     16  C   UNL     1      54.749 152.748  28.624  0.00  0.00    +0.000 C 
ENDBRANCH   1   3
BRANCH   1  17
ATOM     17  C   UNL     1      54.043 153.959  25.470  0.00  0.00    +0.032 C 
ATOM     18  C   UNL     1      54.426 154.715  24.347  0.00  0.00    +0.103 A 
ATOM     19  N   UNL     1      55.260 154.156  23.449  0.00  0.00    -0.242 NA
ATOM     20  C   UNL     1      55.686 154.795  22.343  0.00  0.00    +0.099 A 
ATOM     21  C   UNL     1      55.239 156.083  22.130  0.00  0.00    +0.099 A 
ATOM     22  N   UNL     1      54.400 156.662  23.022  0.00  0.00    -0.242 NA
ATOM     23  C   UNL     1      53.986 156.000  24.127  0.00  0.00    +0.099 A 
ATOM     24  C   UNL     1      53.138 156.591  25.024  0.00  0.00    +0.021 C 
ATOM     25  C   UNL     1      52.745 155.896  26.120  0.00  0.00    +0.002 C 
ATOM     26  C   UNL     1      53.196 154.600  26.331  0.00  0.00    +0.007 C 
ATOM     27  C   UNL     1      55.672 156.740  20.999  0.00  0.00    +0.021 C 
ATOM     28  C   UNL     1      56.528 156.133  20.102  0.00  0.00    +0.002 C 
ATOM     29  C   UNL     1      56.985 154.845  20.296  0.00  0.00    +0.002 C 
ATOM     30  C   UNL     1      56.544 154.196  21.433  0.00  0.00    +0.021 C 
ENDBRANCH   1  17
BRANCH   1  31
ATOM     31  C   UNL     1      53.403 151.235  25.735  0.00  0.00    +0.013 C 
ATOM     32  C   UNL     1      53.560 150.045  24.990  0.00  0.00    +0.008 C 
ATOM     33  C   UNL     1      52.640 149.028  25.020  0.00  0.00    +0.037 C 
ATOM     34  C   UNL     1      51.514 149.165  25.808  0.00  0.00    +0.134 C 
ATOM     35  C   UNL     1      51.305 150.294  26.554  0.00  0.00    +0.037 C 
ATOM     36  C   UNL     1      52.268 151.312  26.497  0.00  0.00    +0.008 C 
BRANCH  34  37
ATOM     37  O   UNL     1      50.599 148.133  25.827  0.00  0.00    -0.506 OA
ATOM     38  H   UNL     1      50.750 147.364  25.314  0.00  0.00    +0.292 HD
ENDBRANCH  34  37
ENDBRANCH   1  31
TORSDOF 4
