REMARK  Name = =
REMARK  1 active torsions:
REMARK  status: ('A' for Active; 'I' for Inactive)
REMARK    1  A    between atoms: C_1  and  N_11
REMARK                            x       y       z     vdW  Elec       q    Type
REMARK                         _______ _______ _______ _____ _____    ______ ____
ROOT
ATOM      1  C   UNL     1     -12.523 -43.695  27.872  0.00  0.00    +0.103 C 
ATOM      2  C   UNL     1     -11.340 -43.159  28.686  0.00  0.00    +0.022 C 
ATOM      3  C   UNL     1     -10.647 -42.049  28.014  0.00  0.00    +0.002 C 
ATOM      4  C   UNL     1      -9.170 -42.019  28.136  0.00  0.00    +0.000 C 
ATOM      5  C   UNL     1      -8.640 -42.745  29.348  0.00  0.00    +0.000 C 
ATOM      6  C   UNL     1      -9.162 -44.126  29.496  0.00  0.00    +0.000 C 
ATOM      7  C   UNL     1     -10.542 -44.354  29.033  0.00  0.00    +0.002 C 
ATOM      8  C   UNL     1     -11.319 -45.219  29.982  0.00  0.00    +0.000 C 
ATOM      9  C   UNL     1     -12.740 -45.419  29.640  0.00  0.00    +0.002 C 
ATOM     10  C   UNL     1     -13.417 -44.352  28.880  0.00  0.00    +0.024 C 
ENDROOT
BRANCH   1  11
ATOM     11  N   UNL     1     -13.140 -42.720  27.085  0.00  0.00    -0.269 NA
ATOM     12  C   UNL     1     -14.360 -42.517  26.907  0.00  0.00    +0.113 C 
ENDBRANCH   1  11
TORSDOF 1
