REMARK  Name = =
REMARK  3 active torsions:
REMARK  status: ('A' for Active; 'I' for Inactive)
REMARK    1  A    between atoms: C_1  and  N_11
REMARK    2  A    between atoms: C_1  and  N_25
REMARK    3  A    between atoms: C_9  and  C_19
REMARK                            x       y       z     vdW  Elec       q    Type
REMARK                         _______ _______ _______ _____ _____    ______ ____
ROOT
ATOM      1  C   UNL     1     -12.975 -43.189  28.814  0.00  0.00    +0.145 C 
ATOM      2  C   UNL     1     -12.571 -44.664  28.786  0.00  0.00    +0.038 C 
ATOM      3  C   UNL     1     -12.291 -45.039  27.374  0.00  0.00    +0.004 C 
ATOM      4  C   UNL     1     -11.611 -46.356  27.194  0.00  0.00    +0.000 C 
ATOM      5  C   UNL     1     -10.324 -46.328  28.024  0.00  0.00    +0.000 C 
ATOM      6  C   UNL     1     -10.753 -46.218  29.465  0.00  0.00    +0.000 C 
ATOM      7  C   UNL     1     -11.438 -44.927  29.735  0.00  0.00    +0.003 C 
ATOM      8  C   UNL     1     -10.480 -43.781  29.848  0.00  0.00    +0.001 C 
ATOM      9  C   UNL     1     -11.141 -42.542  30.388  0.00  0.00    +0.010 C 
ATOM     10  C   UNL     1     -12.632 -42.652  30.165  0.00  0.00    +0.042 C 
ENDROOT
BRANCH   1  11
ATOM     11  N   UNL     1     -14.391 -43.151  28.636  0.00  0.00    -0.264 N 
ATOM     12  C   UNL     1     -14.973 -43.114  27.316  0.00  0.00    +0.095 C 
ATOM     13  C   UNL     1     -15.817 -41.832  27.272  0.00  0.00    +0.022 C 
ATOM     14  C   UNL     1     -17.227 -42.070  27.714  0.00  0.00    +0.002 C 
ATOM     15  C   UNL     1     -17.362 -42.955  28.915  0.00  0.00    +0.010 C 
ATOM     16  C   UNL     1     -16.489 -42.516  30.069  0.00  0.00    +0.085 C 
ATOM     17  C   UNL     1     -15.148 -43.152  29.839  0.00  0.00    +0.227 C 
ATOM     18  O   UNL     1     -14.641 -43.756  30.842  0.00  0.00    -0.275 OA
ENDBRANCH   1  11
BRANCH   9  19
ATOM     19  C   UNL     1     -10.880 -42.328  31.829  0.00  0.00    +0.058 C 
ATOM     20  C   UNL     1      -9.739 -42.627  32.427  0.00  0.00    +0.008 C 
ATOM     21  C   UNL     1      -9.729 -42.321  33.855  0.00  0.00    +0.008 C 
ATOM     22  C   UNL     1     -10.952 -41.496  34.082  0.00  0.00    +0.065 C 
ATOM     23  C   UNL     1     -11.740 -41.782  32.858  0.00  0.00    +0.150 C 
ATOM     24  O   UNL     1     -12.959 -41.579  32.743  0.00  0.00    -0.296 OA
ENDBRANCH   9  19
BRANCH   1  25
ATOM     25  N   UNL     1     -12.247 -42.570  27.756  0.00  0.00    -0.252 NA
ATOM     26  C   UNL     1     -11.785 -41.384  27.785  0.00  0.00    +0.115 C 
ENDBRANCH   1  25
TORSDOF 3
