REMARK  Name = =
REMARK  4 active torsions:
REMARK  status: ('A' for Active; 'I' for Inactive)
REMARK    1  A    between atoms: C_1  and  N_11
REMARK    2  A    between atoms: C_1  and  N_31
REMARK    3  A    between atoms: C_9  and  C_25
REMARK    4  A    between atoms: C_12  and  C_19
REMARK                            x       y       z     vdW  Elec       q    Type
REMARK                         _______ _______ _______ _____ _____    ______ ____
ROOT
ATOM      1  C   UNL     1     -11.845 -43.052  29.434  0.00  0.00    +0.149 C 
ATOM      2  C   UNL     1     -11.429 -44.432  29.223  0.00  0.00    +0.060 C 
ATOM      3  C   UNL     1     -10.084 -44.857  29.522  0.00  0.00    -0.027 C 
ATOM      4  C   UNL     1      -9.448 -45.832  28.560  0.00  0.00    -0.031 C 
ATOM      5  C   UNL     1     -10.356 -46.482  27.591  0.00  0.00    +0.026 C 
ATOM      6  C   UNL     1     -11.752 -46.643  28.086  0.00  0.00    +0.005 C 
ATOM      7  C   UNL     1     -12.291 -45.308  28.429  0.00  0.00    +0.008 C 
ATOM      8  C   UNL     1     -13.189 -44.670  27.442  0.00  0.00    +0.005 C 
ATOM      9  C   UNL     1     -14.003 -43.614  28.189  0.00  0.00    +0.029 C 
ATOM     10  C   UNL     1     -13.051 -42.597  28.696  0.00  0.00    +0.046 C 
ENDROOT
BRANCH   1  11
ATOM     11  N   UNL     1     -11.806 -42.545  30.808  0.00  0.00    -0.266 N 
ATOM     12  C   UNL     1     -13.001 -42.497  31.614  0.00  0.00    +0.077 C 
ATOM     13  C   UNL     1     -12.884 -41.582  32.788  0.00  0.00    +0.020 C 
ATOM     14  C   UNL     1     -12.052 -41.919  33.924  0.00  0.00    +0.002 C 
ATOM     15  C   UNL     1     -10.681 -42.416  33.783  0.00  0.00    +0.010 C 
ATOM     16  C   UNL     1      -9.854 -42.122  32.616  0.00  0.00    +0.085 C 
ATOM     17  C   UNL     1     -10.545 -42.133  31.341  0.00  0.00    +0.227 C 
ATOM     18  O   UNL     1      -9.811 -41.614  30.389  0.00  0.00    -0.275 OA
BRANCH  12  19
ATOM     19  C   UNL     1     -13.536 -43.844  31.910  0.00  0.00    +0.021 C 
ATOM     20  C   UNL     1     -12.585 -44.987  31.936  0.00  0.00    +0.020 C 
ATOM     21  C   UNL     1     -13.383 -46.265  31.630  0.00  0.00    +0.089 C 
ATOM     22  N   UNL     1     -14.660 -46.123  32.258  0.00  0.00    -0.218 NA
ATOM     23  C   UNL     1     -14.646 -45.349  33.457  0.00  0.00    +0.089 C 
ATOM     24  C   UNL     1     -14.318 -43.891  33.214  0.00  0.00    +0.020 C 
ENDBRANCH  12  19
ENDBRANCH   1  11
BRANCH   9  25
ATOM     25  C   UNL     1     -14.945 -42.942  27.241  0.00  0.00    +0.017 C 
ATOM     26  C   UNL     1     -16.149 -42.543  27.595  0.00  0.00    -0.001 C 
ATOM     27  C   UNL     1     -16.870 -41.909  26.465  0.00  0.00    +0.003 C 
ATOM     28  C   UNL     1     -15.850 -41.837  25.366  0.00  0.00    +0.042 C 
ATOM     29  C   UNL     1     -14.686 -42.639  25.850  0.00  0.00    +0.192 C 
ATOM     30  O   UNL     1     -13.674 -42.999  25.215  0.00  0.00    -0.287 OA
ENDBRANCH   9  25
BRANCH   1  31
ATOM     31  N   UNL     1     -10.676 -42.293  28.830  0.00  0.00    -0.252 NA
ATOM     32  C   UNL     1     -10.426 -42.372  27.604  0.00  0.00    +0.115 C 
ENDBRANCH   1  31
TORSDOF 4
