REMARK  Name = =
REMARK  2 active torsions:
REMARK  status: ('A' for Active; 'I' for Inactive)
REMARK    1  A    between atoms: C_3  and  C_18
REMARK    2  A    between atoms: C_6  and  C_8
REMARK                            x       y       z     vdW  Elec       q    Type
REMARK                         _______ _______ _______ _____ _____    ______ ____
ROOT
ATOM      1  C   UNL     1      -6.281  -1.034  34.317  0.00  0.00    +0.027 C 
ATOM      2  C   UNL     1      -7.120  -0.213  33.357  0.00  0.00    +0.012 C 
ATOM      3  C   UNL     1      -7.585  -1.054  32.185  0.00  0.00    +0.065 C 
ATOM      4  C   UNL     1      -6.742  -2.236  31.971  0.00  0.00    +0.172 C 
ATOM      5  O   UNL     1      -7.209  -3.256  31.435  0.00  0.00    -0.291 OA
ATOM      6  C   UNL     1      -5.357  -2.202  32.392  0.00  0.00    +0.030 C 
ATOM      7  C   UNL     1      -5.113  -1.607  33.556  0.00  0.00    -0.023 C 
ENDROOT
BRANCH   6   8
ATOM      8  C   UNL     1      -4.272  -2.800  31.603  0.00  0.00    +0.003 C 
ATOM      9  C   UNL     1      -3.595  -2.077  30.646  0.00  0.00    +0.002 C 
ATOM     10  C   UNL     1      -2.580  -2.665  29.906  0.00  0.00    +0.019 C 
ATOM     11  C   UNL     1      -2.222  -3.979  30.105  0.00  0.00    +0.081 C 
ATOM     12  C   UNL     1      -2.885  -4.720  31.056  0.00  0.00    +0.018 C 
ATOM     13  C   UNL     1      -3.905  -4.117  31.793  0.00  0.00    +0.002 C 
ATOM     14  C   UNL     1      -2.545  -6.039  31.272  0.00  0.00    +0.003 C 
ATOM     15  C   UNL     1      -1.539  -6.570  30.518  0.00  0.00    +0.021 C 
ATOM     16  C   UNL     1      -0.867  -5.837  29.562  0.00  0.00    +0.099 C 
ATOM     17  N   UNL     1      -1.232  -4.560  29.387  0.00  0.00    -0.244 NA
ENDBRANCH   6   8
BRANCH   3  18
ATOM     18  C   UNL     1      -7.602  -0.118  30.973  0.00  0.00    +0.037 C 
ATOM     19  C   UNL     1      -8.944   0.499  30.731  0.00  0.00    +0.032 C 
ATOM     20  C   UNL     1      -8.727   1.927  31.250  0.00  0.00    +0.115 C 
ATOM     21  O   UNL     1      -7.684   1.767  32.188  0.00  0.00    -0.359 OA
ATOM     22  C   UNL     1      -6.757   1.077  31.369  0.00  0.00    +0.116 C 
ATOM     23  C   UNL     1      -6.621   2.059  30.219  0.00  0.00    +0.032 C 
ATOM     24  C   UNL     1      -7.984   2.693  30.169  0.00  0.00    +0.032 C 
ENDBRANCH   3  18
TORSDOF 2
