MODEL 1
REMARK VINA RESULT:    -7.190      0.000      0.000
REMARK INTER + INTRA:         -12.612
REMARK INTER:                 -10.552
REMARK INTRA:                  -2.060
REMARK UNBOUND:                -2.060
REMARK  Name = =
REMARK  8 active torsions:
REMARK  status: ('A' for Active; 'I' for Inactive)
REMARK    1  A    between atoms: C_1  and  C_3
REMARK    2  A    between atoms: C_1  and  C_20
REMARK    3  A    between atoms: N_2  and  O_30
REMARK    4  A    between atoms: C_15  and  S_17
REMARK    5  A    between atoms: N_22  and  N_23
REMARK    6  A    between atoms: N_26  and  N_27
REMARK    7  A    between atoms: O_30  and  C_31
REMARK    8  A    between atoms: C_34  and  C_37
REMARK                            x       y       z     vdW  Elec       q    Type
REMARK                         _______ _______ _______ _____ _____    ______ ____
ROOT
ATOM      1  C   UNL     1      59.101 159.447  41.056  0.00  0.00    +0.174 C 
ATOM      2  N   UNL     1      59.262 159.134  39.779  0.00  0.00    -0.072 NA
ENDROOT
BRANCH   1   3
ATOM      3  C   UNL     1      60.094 160.290  41.648  0.00  0.00    +0.027 C 
ATOM      4  C   UNL     1      60.014 161.659  41.626  0.00  0.00    +0.004 C 
ATOM      5  C   UNL     1      61.115 162.419  41.936  0.00  0.00    +0.019 C 
ATOM      6  C   UNL     1      62.328 161.821  42.284  0.00  0.00    +0.099 C 
ATOM      7  N   UNL     1      63.409 162.560  42.587  0.00  0.00    -0.241 NA
ATOM      8  C   UNL     1      64.578 161.970  42.926  0.00  0.00    +0.119 C 
ATOM      9  C   UNL     1      64.706 160.599  42.974  0.00  0.00    +0.119 C 
ATOM     10  N   UNL     1      63.626 159.862  42.669  0.00  0.00    -0.241 NA
ATOM     11  C   UNL     1      62.441 160.456  42.326  0.00  0.00    +0.099 C 
ATOM     12  C   UNL     1      61.339 159.698  42.011  0.00  0.00    +0.022 C 
ATOM     13  C   UNL     1      60.977 163.793  41.984  0.00  0.00    +0.002 C 
ATOM     14  C   UNL     1      59.783 164.440  41.741  0.00  0.00    +0.007 C 
ATOM     15  C   UNL     1      58.657 163.689  41.436  0.00  0.00    +0.031 C 
ATOM     16  C   UNL     1      58.804 162.326  41.387  0.00  0.00    +0.007 C 
BRANCH  15  17
ATOM     17  S   UNL     1      57.112 164.469  41.125  0.00  0.00    -0.073 S 
ATOM     18  O   UNL     1      55.966 163.475  41.314  0.00  0.00    -0.170 OA
ATOM     19  C   UNL     1      56.800 165.499  42.302  0.00  0.00    +0.081 C 
ATOM     20  H   UNL     1      57.191 165.007  39.879  0.00  0.00    +0.118 HD
ENDBRANCH  15  17
ENDBRANCH   1   3
BRANCH   1  21
ATOM     21  C   UNL     1      57.864 158.995  41.604  0.00  0.00    +0.282 C 
ATOM     22  O   UNL     1      57.856 157.777  42.099  0.00  0.00    -0.267 OA
ATOM     23  N   UNL     1      56.603 159.612  41.704  0.00  0.00    -0.228 N 
ATOM     24  H   UNL     1      56.492 160.520  41.340  0.00  0.00    +0.173 HD
BRANCH  23  25
ATOM     25  N   UNL     1      55.495 158.987  42.301  0.00  0.00    -0.217 N 
ATOM     26  C   UNL     1      54.187 159.499  42.235  0.00  0.00    +0.332 C 
ATOM     27  O   UNL     1      54.002 160.579  41.604  0.00  0.00    -0.250 OA
ATOM     28  N   UNL     1      53.082 158.835  42.856  0.00  0.00    -0.217 N 
ATOM     29  H   UNL     1      55.642 158.146  42.792  0.00  0.00    +0.174 HD
ATOM     30  H   UNL     1      53.250 157.995  43.342  0.00  0.00    +0.174 HD
BRANCH  28  31
ATOM     31  N   UNL     1      51.782 159.324  42.801  0.00  0.00    -0.225 N 
ATOM     32  C   UNL     1      50.815 158.618  42.051  0.00  0.00    +0.316 C 
ATOM     33  O   UNL     1      51.178 157.569  41.464  0.00  0.00    -0.264 OA
ATOM     34  H   UNL     1      51.539 160.151  43.277  0.00  0.00    +0.173 HD
ENDBRANCH  28  31
ENDBRANCH  23  25
ENDBRANCH   1  21
BRANCH   2  35
ATOM     35  O   UNL     1      60.271 159.533  39.007  0.00  0.00    -0.353 OA
BRANCH  35  36
ATOM     36  C   UNL     1      60.171 160.641  38.213  0.00  0.00    +0.175 C 
ATOM     37  C   UNL     1      59.054 160.790  37.402  0.00  0.00    +0.040 C 
ATOM     38  C   UNL     1      58.909 161.882  36.587  0.00  0.00    +0.007 C 
ATOM     39  C   UNL     1      59.880 162.869  36.556  0.00  0.00    +0.042 C 
ATOM     40  C   UNL     1      60.983 162.720  37.360  0.00  0.00    +0.007 C 
ATOM     41  C   UNL     1      61.149 161.614  38.196  0.00  0.00    +0.040 C 
BRANCH  39  42
ATOM     42  C   UNL     1      59.712 164.025  35.686  0.00  0.00    +0.234 C 
ATOM     43  O   UNL     1      58.830 164.029  34.804  0.00  0.00    -0.283 OA
ENDBRANCH  39  42
ENDBRANCH  35  36
ENDBRANCH   2  35
TORSDOF 8
ENDMDL
