MODEL 1
REMARK VINA RESULT:    -7.020      0.000      0.000
REMARK INTER + INTRA:         -11.921
REMARK INTER:                 -10.304
REMARK INTRA:                  -1.618
REMARK UNBOUND:                -1.618
REMARK  Name = =
REMARK  9 active torsions:
REMARK  status: ('A' for Active; 'I' for Inactive)
REMARK    1  A    between atoms: C_1  and  N_12
REMARK    2  A    between atoms: C_1  and  N_23
REMARK    3  A    between atoms: N_12  and  N_13
REMARK    4  A    between atoms: N_13  and  N_14
REMARK    5  A    between atoms: N_14  and  C_15
REMARK    6  A    between atoms: C_18  and  O_22
REMARK    7  A    between atoms: N_23  and  C_25
REMARK    8  A    between atoms: N_23  and  N_30
REMARK    9  A    between atoms: C_31  and  O_33
REMARK                            x       y       z     vdW  Elec       q    Type
REMARK                         _______ _______ _______ _____ _____    ______ ____
ROOT
ATOM      1  C   UNL     1      59.422 161.843  40.268  0.00  0.00    +0.252 C 
ATOM      2  C   UNL     1      59.855 163.220  39.916  0.00  0.00    +0.211 C 
ATOM      3  O   UNL     1      60.173 164.163  40.675  0.00  0.00    -0.288 OA
ATOM      4  C   UNL     1      59.847 163.298  38.460  0.00  0.00    +0.041 C 
ATOM      5  C   UNL     1      59.300 162.151  37.943  0.00  0.00    +0.041 C 
ATOM      6  C   UNL     1      59.165 161.966  36.550  0.00  0.00    +0.003 C 
ATOM      7  C   UNL     1      59.585 162.938  35.674  0.00  0.00    +0.000 C 
ATOM      8  C   UNL     1      60.134 164.084  36.205  0.00  0.00    +0.000 C 
ATOM      9  C   UNL     1      60.267 164.270  37.557  0.00  0.00    +0.003 C 
ATOM     10  C   UNL     1      58.923 161.266  39.044  0.00  0.00    +0.211 C 
ATOM     11  O   UNL     1      58.280 160.207  38.896  0.00  0.00    -0.288 OA
ENDROOT
BRANCH   1  12
ATOM     12  N   UNL     1      58.366 162.049  41.287  0.00  0.00    -0.083 NA
BRANCH  12  13
ATOM     13  N   UNL     1      57.414 161.384  41.385  0.00  0.00    -0.037 NA
BRANCH  13  14
ATOM     14  N   UNL     1      56.617 160.368  41.563  0.00  0.00    -0.246 N 
ATOM     15  H   UNL     1      56.979 159.453  41.543  0.00  0.00    +0.169 HD
BRANCH  14  16
ATOM     16  C   UNL     1      55.205 160.576  41.789  0.00  0.00    +0.062 C 
ATOM     17  C   UNL     1      54.352 159.579  42.185  0.00  0.00    +0.025 C 
ATOM     18  C   UNL     1      52.994 159.832  42.381  0.00  0.00    +0.069 C 
ATOM     19  C   UNL     1      52.512 161.103  42.171  0.00  0.00    +0.140 C 
ATOM     20  C   UNL     1      53.383 162.103  41.770  0.00  0.00    +0.038 C 
ATOM     21  C   UNL     1      54.729 161.850  41.577  0.00  0.00    +0.019 C 
ATOM     22 BR   UNL     1      51.803 158.461  42.928  0.00  0.00    -0.046 Br
BRANCH  19  23
ATOM     23  O   UNL     1      51.169 161.426  42.345  0.00  0.00    -0.505 OA
ATOM     24  H   UNL     1      50.691 161.833  41.650  0.00  0.00    +0.292 HD
ENDBRANCH  19  23
ENDBRANCH  14  16
ENDBRANCH  13  14
ENDBRANCH  12  13
ENDBRANCH   1  12
BRANCH   1  25
ATOM     25  N   UNL     1      60.527 161.136  40.901  0.00  0.00    -0.137 NA
BRANCH  25  27
ATOM     26  O   UNL     1      62.768 162.108  40.973  0.00  0.00    -0.455 OA
ATOM     27  C   UNL     1      61.850 161.214  40.379  0.00  0.00    +0.269 C 
ATOM     28  C   UNL     1      62.308 160.514  39.374  0.00  0.00    +0.036 C 
ATOM     29  C   UNL     1      63.684 160.590  38.826  0.00  0.00    +0.004 C 
ATOM     30  C   UNL     1      64.547 161.552  39.521  0.00  0.00    +0.040 C 
ATOM     31  C   UNL     1      64.067 162.246  40.531  0.00  0.00    +0.174 C 
ENDBRANCH  25  27
BRANCH  25  32
ATOM     32  N   UNL     1      60.193 160.364  42.013  0.00  0.00    -0.208 N 
ATOM     33  C   UNL     1      59.980 158.985  41.888  0.00  0.00    +0.412 C 
ATOM     34  O   UNL     1      60.081 158.403  40.779  0.00  0.00    -0.225 OA
ATOM     35  H   UNL     1      60.106 160.792  42.895  0.00  0.00    +0.173 HD
BRANCH  33  36
ATOM     36  O   UNL     1      59.649 158.272  43.034  0.00  0.00    -0.465 OA
ATOM     37  H   UNL     1      58.847 158.453  43.484  0.00  0.00    +0.297 HD
ENDBRANCH  33  36
ENDBRANCH  25  32
ENDBRANCH   1  25
TORSDOF 9
ENDMDL
