MODEL 1
REMARK VINA RESULT:    -8.624      0.000      0.000
REMARK INTER + INTRA:         -11.707
REMARK INTER:                 -11.145
REMARK INTRA:                  -0.563
REMARK UNBOUND:                -0.563
REMARK  Name = =
REMARK  6 active torsions:
REMARK  status: ('A' for Active; 'I' for Inactive)
REMARK    1  A    between atoms: C_4  and  C_8
REMARK    2  A    between atoms: C_6  and  O_15
REMARK    3  A    between atoms: O_15  and  P_16
REMARK    4  A    between atoms: P_16  and  C_18
REMARK    5  A    between atoms: P_16  and  O_21
REMARK    6  A    between atoms: C_18  and  O_20
REMARK                            x       y       z     vdW  Elec       q    Type
REMARK                         _______ _______ _______ _____ _____    ______ ____
ROOT
ATOM      1  N   UNL     1      52.143 156.170  28.595  0.00  0.00    -0.246 N 
ATOM      2  C   UNL     1      51.329 155.310  29.413  0.00  0.00    +0.097 C 
ATOM      3  C   UNL     1      50.242 156.205  29.955  0.00  0.00    +0.024 C 
ATOM      4  C   UNL     1      50.559 157.600  29.459  0.00  0.00    +0.027 C 
ATOM      5  C   UNL     1      52.029 157.501  29.157  0.00  0.00    +0.097 C 
ATOM      6  C   UNL     1      52.887 155.732  27.468  0.00  0.00    +0.411 C 
ATOM      7  O   UNL     1      53.561 156.553  26.821  0.00  0.00    -0.226 OA
ENDROOT
BRANCH   4   8
ATOM      8  C   UNL     1      50.240 158.635  30.509  0.00  0.00    +0.043 C 
ATOM      9  C   UNL     1      48.766 158.848  30.532  0.00  0.00    +0.066 C 
ATOM     10  N   UNL     1      48.215 159.285  31.754  0.00  0.00    -0.274 NA
ATOM     11  C   UNL     1      49.110 159.772  32.738  0.00  0.00    +0.125 C 
ATOM     12  C   UNL     1      49.924 160.954  32.351  0.00  0.00    +0.026 C 
ATOM     13  C   UNL     1      50.173 161.093  30.882  0.00  0.00    +0.002 C 
ATOM     14  C   UNL     1      50.957 159.924  30.314  0.00  0.00    +0.006 C 
ENDBRANCH   4   8
BRANCH   6  15
ATOM     15  O   UNL     1      52.889 154.410  27.057  0.00  0.00    -0.370 OA
BRANCH  15  16
ATOM     16  P   UNL     1      53.388 154.023  25.447  0.00  0.00    +0.489 P 
ATOM     17  O   UNL     1      52.419 154.591  24.438  0.00  0.00    -0.232 OA
BRANCH  16  18
ATOM     18  C   UNL     1      53.463 152.244  25.351  0.00  0.00    +0.431 C 
ATOM     19  O   UNL     1      53.121 151.522  26.305  0.00  0.00    -0.235 OA
BRANCH  18  20
ATOM     20  O   UNL     1      53.913 151.673  24.180  0.00  0.00    -0.471 OA
ATOM     21  H   UNL     1      53.353 151.639  23.430  0.00  0.00    +0.296 HD
ENDBRANCH  18  20
ENDBRANCH  16  18
BRANCH  16  22
ATOM     22  O   UNL     1      54.950 154.611  25.149  0.00  0.00    -0.307 OA
ATOM     23  H   UNL     1      55.007 154.928  24.234  0.00  0.00    +0.221 HD
ENDBRANCH  16  22
ENDBRANCH  15  16
ENDBRANCH   6  15
TORSDOF 6
ENDMDL
