REMARK  Name = =
REMARK  6 active torsions:
REMARK  status: ('A' for Active; 'I' for Inactive)
REMARK    1  A    between atoms: C_4  and  C_8
REMARK    2  A    between atoms: C_6  and  O_15
REMARK    3  A    between atoms: O_15  and  P_16
REMARK    4  A    between atoms: P_16  and  C_18
REMARK    5  A    between atoms: P_16  and  O_21
REMARK    6  A    between atoms: C_18  and  O_20
REMARK                            x       y       z     vdW  Elec       q    Type
REMARK                         _______ _______ _______ _____ _____    ______ ____
ROOT
ATOM      1  N   UNL     1      51.894 156.357  28.241  0.00  0.00    -0.246 N 
ATOM      2  C   UNL     1      52.880 157.401  28.345  0.00  0.00    +0.097 C 
ATOM      3  C   UNL     1      52.409 158.265  29.489  0.00  0.00    +0.024 C 
ATOM      4  C   UNL     1      51.084 157.687  29.937  0.00  0.00    +0.027 C 
ATOM      5  C   UNL     1      50.647 156.920  28.719  0.00  0.00    +0.097 C 
ATOM      6  C   UNL     1      52.162 155.051  27.755  0.00  0.00    +0.411 C 
ATOM      7  O   UNL     1      51.242 154.215  27.704  0.00  0.00    -0.226 OA
ENDROOT
BRANCH   4   8
ATOM      8  C   UNL     1      50.118 158.779  30.325  0.00  0.00    +0.043 C 
ATOM      9  C   UNL     1      50.742 159.604  31.396  0.00  0.00    +0.066 C 
ATOM     10  N   UNL     1      50.314 160.945  31.484  0.00  0.00    -0.274 NA
ATOM     11  C   UNL     1      49.140 161.304  30.778  0.00  0.00    +0.125 C 
ATOM     12  C   UNL     1      47.900 160.581  31.163  0.00  0.00    +0.026 C 
ATOM     13  C   UNL     1      48.120 159.217  31.739  0.00  0.00    +0.002 C 
ATOM     14  C   UNL     1      48.787 158.273  30.755  0.00  0.00    +0.006 C 
ENDBRANCH   4   8
BRANCH   6  15
ATOM     15  O   UNL     1      53.423 154.668  27.332  0.00  0.00    -0.370 OA
BRANCH  15  16
ATOM     16  P   UNL     1      53.610 153.194  26.446  0.00  0.00    +0.489 P 
ATOM     17  O   UNL     1      53.507 153.449  24.961  0.00  0.00    -0.232 OA
BRANCH  16  18
ATOM     18  C   UNL     1      52.326 152.094  27.011  0.00  0.00    +0.431 C 
ATOM     19  O   UNL     1      51.625 151.442  26.216  0.00  0.00    -0.235 OA
BRANCH  18  20
ATOM     20  O   UNL     1      52.120 151.976  28.369  0.00  0.00    -0.471 OA
ATOM     21  H   UNL     1      52.648 152.467  28.967  0.00  0.00    +0.296 HD
ENDBRANCH  18  20
ENDBRANCH  16  18
BRANCH  16  22
ATOM     22  O   UNL     1      55.097 152.465  26.809  0.00  0.00    -0.307 OA
ATOM     23  H   UNL     1      55.185 151.641  26.304  0.00  0.00    +0.221 HD
ENDBRANCH  16  22
ENDBRANCH  15  16
ENDBRANCH   6  15
TORSDOF 6
