MODEL 1
REMARK VINA RESULT:    -7.514      0.000      0.000
REMARK INTER + INTRA:         -10.337
REMARK INTER:                  -9.271
REMARK INTRA:                  -1.065
REMARK UNBOUND:                -1.065
REMARK  Name = =
REMARK  5 active torsions:
REMARK  status: ('A' for Active; 'I' for Inactive)
REMARK    1  A    between atoms: C_1  and  O_23
REMARK    2  A    between atoms: C_14  and  C_15
REMARK    3  A    between atoms: O_23  and  C_25
REMARK    4  A    between atoms: C_24  and  O_30
REMARK    5  A    between atoms: C_28  and  O_31
REMARK                            x       y       z     vdW  Elec       q    Type
REMARK                         _______ _______ _______ _____ _____    ______ ____
ROOT
ATOM      1  C   UNL     1      61.339 162.999  38.543  0.00  0.00    +0.175 C 
ATOM      2  C   UNL     1      62.268 163.433  37.394  0.00  0.00    +0.070 C 
ATOM      3  C   UNL     1      61.562 164.428  36.558  0.00  0.00    -0.022 C 
ATOM      4  C   UNL     1      60.343 164.016  36.060  0.00  0.00    -0.026 C 
ATOM      5  C   UNL     1      59.550 164.794  35.265  0.00  0.00    -0.005 C 
ATOM      6  C   UNL     1      60.034 166.060  34.965  0.00  0.00    -0.000 C 
ATOM      7  C   UNL     1      61.246 166.495  35.448  0.00  0.00    -0.000 C 
ATOM      8  C   UNL     1      62.036 165.682  36.259  0.00  0.00    -0.004 C 
ATOM      9  C   UNL     1      61.674 167.764  35.114  0.00  0.00    -0.000 C 
ATOM     10  C   UNL     1      60.914 168.595  34.313  0.00  0.00    -0.000 C 
ATOM     11  C   UNL     1      59.698 168.158  33.828  0.00  0.00    -0.000 C 
ATOM     12  C   UNL     1      59.262 166.879  34.163  0.00  0.00    -0.000 C 
ATOM     13  C   UNL     1      59.969 162.619  36.493  0.00  0.00    +0.034 C 
ATOM     14  C   UNL     1      59.940 162.684  38.004  0.00  0.00    +0.070 C 
ENDROOT
BRANCH  14  15
ATOM     15  C   UNL     1      59.359 161.492  38.630  0.00  0.00    +0.023 C 
ATOM     16  C   UNL     1      59.427 160.315  38.000  0.00  0.00    +0.041 C 
ATOM     17  C   UNL     1      58.859 159.119  38.598  0.00  0.00    +0.196 C 
ATOM     18  O   UNL     1      58.927 158.009  37.991  0.00  0.00    -0.287 OA
ATOM     19  C   UNL     1      58.217 159.256  39.897  0.00  0.00    +0.045 C 
ATOM     20  C   UNL     1      58.150 160.423  40.523  0.00  0.00    +0.045 C 
ATOM     21  C   UNL     1      58.720 161.628  39.925  0.00  0.00    +0.192 C 
ATOM     22  O   UNL     1      58.638 162.727  40.553  0.00  0.00    -0.287 OA
ENDBRANCH  14  15
BRANCH   1  23
ATOM     23  O   UNL     1      61.917 161.952  39.139  0.00  0.00    -0.475 OA
BRANCH  23  25
ATOM     24  C   UNL     1      62.727 160.354  40.753  0.00  0.00    +0.171 C 
ATOM     25  C   UNL     1      62.736 161.536  40.063  0.00  0.00    +0.172 C 
ATOM     26  C   UNL     1      63.786 162.434  40.402  0.00  0.00    +0.043 C 
ATOM     27  C   UNL     1      64.730 162.162  41.344  0.00  0.00    +0.040 C 
ATOM     28  C   UNL     1      64.699 160.964  42.026  0.00  0.00    +0.137 C 
ATOM     29  C   UNL     1      63.707 160.095  41.718  0.00  0.00    +0.076 C 
BRANCH  24  30
ATOM     30  O   UNL     1      61.807 159.373  40.571  0.00  0.00    -0.503 OA
ATOM     31  H   UNL     1      62.038 158.479  40.726  0.00  0.00    +0.292 HD
ENDBRANCH  24  30
BRANCH  28  32
ATOM     32  O   UNL     1      65.656 160.670  42.994  0.00  0.00    -0.505 OA
ATOM     33  H   UNL     1      66.488 161.100  42.976  0.00  0.00    +0.292 HD
ENDBRANCH  28  32
ENDBRANCH  23  25
ENDBRANCH   1  23
TORSDOF 5
ENDMDL
