REMARK  Name = =
REMARK  5 active torsions:
REMARK  status: ('A' for Active; 'I' for Inactive)
REMARK    1  A    between atoms: C_1  and  O_23
REMARK    2  A    between atoms: C_14  and  C_15
REMARK    3  A    between atoms: O_23  and  C_25
REMARK    4  A    between atoms: C_24  and  O_30
REMARK    5  A    between atoms: C_28  and  O_31
REMARK                            x       y       z     vdW  Elec       q    Type
REMARK                         _______ _______ _______ _____ _____    ______ ____
ROOT
ATOM      1  C   UNL     1      52.180 157.248  28.397  0.00  0.00    +0.175 C 
ATOM      2  C   UNL     1      51.354 158.524  28.151  0.00  0.00    +0.070 C 
ATOM      3  C   UNL     1      50.760 158.965  29.431  0.00  0.00    -0.022 C 
ATOM      4  C   UNL     1      49.996 158.016  30.080  0.00  0.00    -0.026 C 
ATOM      5  C   UNL     1      49.364 158.241  31.270  0.00  0.00    -0.005 C 
ATOM      6  C   UNL     1      49.523 159.504  31.822  0.00  0.00    -0.000 C 
ATOM      7  C   UNL     1      50.279 160.468  31.195  0.00  0.00    -0.000 C 
ATOM      8  C   UNL     1      50.915 160.213  29.982  0.00  0.00    -0.004 C 
ATOM      9  C   UNL     1      50.400 161.706  31.794  0.00  0.00    -0.000 C 
ATOM     10  C   UNL     1      49.782 161.990  32.997  0.00  0.00    -0.000 C 
ATOM     11  C   UNL     1      49.024 161.023  33.625  0.00  0.00    -0.000 C 
ATOM     12  C   UNL     1      48.900 159.773  33.026  0.00  0.00    -0.000 C 
ATOM     13  C   UNL     1      49.938 156.699  29.344  0.00  0.00    +0.034 C 
ATOM     14  C   UNL     1      51.381 156.254  29.247  0.00  0.00    +0.070 C 
ENDROOT
BRANCH  14  15
ATOM     15  C   UNL     1      51.537 154.873  28.780  0.00  0.00    +0.023 C 
ATOM     16  C   UNL     1      51.620 154.624  27.470  0.00  0.00    +0.041 C 
ATOM     17  C   UNL     1      51.774 153.264  26.981  0.00  0.00    +0.196 C 
ATOM     18  O   UNL     1      51.850 153.039  25.737  0.00  0.00    -0.287 OA
ATOM     19  C   UNL     1      51.831 152.197  27.969  0.00  0.00    +0.045 C 
ATOM     20  C   UNL     1      51.749 152.443  29.269  0.00  0.00    +0.045 C 
ATOM     21  C   UNL     1      51.594 153.809  29.765  0.00  0.00    +0.192 C 
ATOM     22  O   UNL     1      51.520 154.008  31.015  0.00  0.00    -0.287 OA
ENDBRANCH  14  15
BRANCH   1  23
ATOM     23  O   UNL     1      52.514 156.760  27.199  0.00  0.00    -0.475 OA
BRANCH  23  25
ATOM     24  C   UNL     1      54.592 157.383  26.147  0.00  0.00    +0.171 C 
ATOM     25  C   UNL     1      53.381 156.751  26.226  0.00  0.00    +0.172 C 
ATOM     26  C   UNL     1      53.018 155.977  25.089  0.00  0.00    +0.043 C 
ATOM     27  C   UNL     1      53.804 155.856  23.984  0.00  0.00    +0.040 C 
ATOM     28  C   UNL     1      55.020 156.503  23.928  0.00  0.00    +0.137 C 
ATOM     29  C   UNL     1      55.383 157.245  25.001  0.00  0.00    +0.076 C 
BRANCH  24  30
ATOM     30  O   UNL     1      55.109 158.165  27.128  0.00  0.00    -0.503 OA
ATOM     31  H   UNL     1      54.630 158.299  27.922  0.00  0.00    +0.292 HD
ENDBRANCH  24  30
BRANCH  28  32
ATOM     32  O   UNL     1      55.836 156.391  22.805  0.00  0.00    -0.505 OA
ATOM     33  H   UNL     1      55.561 155.871  22.076  0.00  0.00    +0.292 HD
ENDBRANCH  28  32
ENDBRANCH  23  25
ENDBRANCH   1  23
TORSDOF 5
