REMARK  Name = =
REMARK  6 active torsions:
REMARK  status: ('A' for Active; 'I' for Inactive)
REMARK    1  A    between atoms: N_1  and  C_31
REMARK    2  A    between atoms: C_7  and  N_25
REMARK    3  A    between atoms: C_17  and  C_36
REMARK    4  A    between atoms: C_30  and  N_32
REMARK    5  A    between atoms: C_37  and  C_38
REMARK    6  A    between atoms: C_38  and  O_40
REMARK                            x       y       z     vdW  Elec       q    Type
REMARK                         _______ _______ _______ _____ _____    ______ ____
ROOT
ATOM      1  N   UNL     1      -9.995  -1.740  20.618  0.00  0.00    -0.247 N 
ATOM      2  C   UNL     1      -8.674  -1.538  20.072  0.00  0.00    +0.183 C 
ATOM      3  C   UNL     1      -7.834  -0.804  21.051  0.00  0.00    +0.247 C 
ATOM      4  O   UNL     1      -8.355  -0.466  22.172  0.00  0.00    -0.273 OA
ATOM      5  N   UNL     1      -6.477  -0.455  20.813  0.00  0.00    -0.270 N 
ATOM      6  C   UNL     1      -5.503  -1.410  20.244  0.00  0.00    +0.167 C 
ATOM      7  C   UNL     1      -4.269  -0.563  20.035  0.00  0.00    +0.089 C 
ATOM      8  C   UNL     1      -4.341   0.377  21.188  0.00  0.00    +0.040 C 
ATOM      9  C   UNL     1      -5.815   0.806  21.072  0.00  0.00    +0.095 C 
ATOM     10  C   UNL     1      -5.315  -2.541  21.172  0.00  0.00    +0.242 C 
ATOM     11  O   UNL     1      -5.012  -2.202  22.373  0.00  0.00    -0.273 OA
ATOM     12  N   UNL     1      -5.432  -3.917  20.895  0.00  0.00    -0.295 N 
ATOM     13  C   UNL     1      -4.806  -4.666  19.833  0.00  0.00    +0.176 C 
ATOM     14  C   UNL     1      -5.730  -5.126  18.779  0.00  0.00    +0.243 C 
ATOM     15  O   UNL     1      -5.302  -4.912  17.575  0.00  0.00    -0.273 OA
ATOM     16  N   UNL     1      -6.971  -5.744  18.906  0.00  0.00    -0.292 N 
ATOM     17  C   UNL     1      -7.359  -6.961  19.541  0.00  0.00    +0.194 C 
ATOM     18  C   UNL     1      -8.872  -7.039  19.517  0.00  0.00    +0.339 C 
ATOM     19  O   UNL     1      -9.452  -7.632  18.569  0.00  0.00    -0.248 OA
ATOM     20  O   UNL     1      -9.641  -6.473  20.511  0.00  0.00    -0.447 OA
ATOM     21  C   UNL     1      -9.455  -5.198  21.080  0.00  0.00    +0.218 C 
ATOM     22  C   UNL     1     -10.175  -4.211  20.184  0.00  0.00    +0.133 C 
ATOM     23  C   UNL     1     -10.536  -3.001  20.970  0.00  0.00    +0.234 C 
ATOM     24  O   UNL     1     -11.332  -3.141  21.949  0.00  0.00    -0.274 OA
ATOM     25  H   UNL     1      -6.013  -4.431  21.501  0.00  0.00    +0.150 HD
ATOM     26  H   UNL     1      -7.712  -5.254  18.482  0.00  0.00    +0.150 HD
ENDROOT
BRANCH   7  27
ATOM     27  N   UNL     1      -3.078  -1.301  19.859  0.00  0.00    -0.244 NA
ATOM     28  C   UNL     1      -1.919  -0.515  20.187  0.00  0.00    +0.107 C 
ATOM     29  C   UNL     1      -1.135  -0.358  18.895  0.00  0.00    +0.161 C 
ATOM     30  O   UNL     1      -2.148  -0.468  17.934  0.00  0.00    -0.336 OA
ATOM     31  C   UNL     1      -2.894  -1.514  18.413  0.00  0.00    +0.220 C 
ENDBRANCH   7  27
BRANCH   1  33
ATOM     32  C   UNL     1     -10.978   0.333  19.892  0.00  0.00    +0.084 C 
ATOM     33  C   UNL     1     -10.808  -0.586  20.825  0.00  0.00    +0.084 C 
BRANCH  32  34
ATOM     34  N   UNL     1     -11.798   1.451  20.170  0.00  0.00    -0.247 N 
ATOM     35  C   UNL     1     -11.269   2.537  20.886  0.00  0.00    +0.307 C 
ATOM     36  O   UNL     1     -10.088   2.524  21.280  0.00  0.00    -0.265 OA
ATOM     37  C   UNL     1     -13.180   1.422  19.692  0.00  0.00    +0.121 C 
ENDBRANCH  32  34
ENDBRANCH   1  33
BRANCH  17  38
ATOM     38  C   UNL     1      -6.848  -7.224  20.881  0.00  0.00    +0.011 C 
ATOM     39  C   UNL     1      -7.294  -8.309  21.518  0.00  0.00    +0.079 C 
BRANCH  39  40
ATOM     40  C   UNL     1      -6.835  -8.649  22.866  0.00  0.00    +0.338 C 
ATOM     41  O   UNL     1      -5.991  -7.972  23.505  0.00  0.00    -0.245 OA
BRANCH  40  42
ATOM     42  O   UNL     1      -7.356  -9.776  23.472  0.00  0.00    -0.477 OA
ATOM     43  H   UNL     1      -7.987 -10.301  23.021  0.00  0.00    +0.295 HD
ENDBRANCH  40  42
ENDBRANCH  39  40
ENDBRANCH  17  38
TORSDOF 6
