MODEL 1
REMARK VINA RESULT:    -8.899      0.000      0.000
REMARK INTER + INTRA:         -17.153
REMARK INTER:                 -15.142
REMARK INTRA:                  -2.011
REMARK UNBOUND:                -2.011
REMARK  Name = =
REMARK  14 active torsions:
REMARK  status: ('A' for Active; 'I' for Inactive)
REMARK    1  A    between atoms: C_1  and  O_14
REMARK    2  A    between atoms: C_2  and  N_35
REMARK    3  A    between atoms: C_9  and  C_10
REMARK    4  A    between atoms: N_12  and  O_13
REMARK    5  A    between atoms: O_14  and  C_15
REMARK    6  A    between atoms: C_15  and  C_21
REMARK    7  A    between atoms: N_17  and  C_32
REMARK    8  A    between atoms: C_18  and  C_23
REMARK    9  A    between atoms: C_19  and  C_29
REMARK   10  A    between atoms: C_29  and  O_31
REMARK   11  A    between atoms: C_32  and  N_33
REMARK   12  A    between atoms: N_35  and  C_36
REMARK   13  A    between atoms: N_35  and  O_39
REMARK   14  A    between atoms: C_36  and  N_38
REMARK                            x       y       z     vdW  Elec       q    Type
REMARK                         _______ _______ _______ _____ _____    ______ ____
ROOT
ATOM      1  C   UNL     1      -8.517  -1.704  31.700  0.00  0.00    +0.198 C 
ATOM      2  C   UNL     1      -9.784  -1.993  30.914  0.00  0.00    +0.164 C 
ATOM      3  C   UNL     1     -10.831  -2.190  31.955  0.00  0.00    +0.002 C 
ATOM      4  C   UNL     1     -10.178  -2.495  33.129  0.00  0.00    -0.021 C 
ATOM      5  C   UNL     1      -8.707  -2.588  32.911  0.00  0.00    +0.072 C 
ATOM      6  C   UNL     1     -10.857  -2.687  34.321  0.00  0.00    -0.004 C 
ATOM      7  C   UNL     1     -12.249  -2.567  34.315  0.00  0.00    -0.000 C 
ATOM      8  C   UNL     1     -12.931  -2.267  33.169  0.00  0.00    +0.004 C 
ATOM      9  C   UNL     1     -12.224  -2.078  31.973  0.00  0.00    +0.053 C 
ENDROOT
BRANCH   9  10
ATOM     10  C   UNL     1     -12.986  -1.852  30.782  0.00  0.00    +0.267 C 
ATOM     11  O   UNL     1     -13.218  -2.846  30.012  0.00  0.00    -0.268 OA
ATOM     12  N   UNL     1     -13.502  -0.621  30.373  0.00  0.00    -0.193 N 
ATOM     13  H   UNL     1     -13.341   0.179  30.925  0.00  0.00    +0.183 HD
BRANCH  12  14
ATOM     14  O   UNL     1     -14.227  -0.507  29.219  0.00  0.00    -0.295 OA
ATOM     15  H   UNL     1     -15.129  -0.830  29.370  0.00  0.00    +0.241 HD
ENDBRANCH  12  14
ENDBRANCH   9  10
BRANCH   1  16
ATOM     16  O   UNL     1      -7.365  -2.171  31.022  0.00  0.00    -0.447 OA
BRANCH  16  17
ATOM     17  C   UNL     1      -6.149  -2.189  31.690  0.00  0.00    +0.342 C 
ATOM     18  O   UNL     1      -5.891  -1.146  32.392  0.00  0.00    -0.245 OA
BRANCH  17  23
ATOM     19  N   UNL     1      -3.502  -4.463  30.396  0.00  0.00    -0.284 N 
ATOM     20  C   UNL     1      -3.338  -5.432  31.427  0.00  0.00    +0.143 C 
ATOM     21  C   UNL     1      -4.077  -5.330  32.512  0.00  0.00    +0.077 C 
ATOM     22  C   UNL     1      -5.083  -4.241  32.726  0.00  0.00    +0.012 C 
ATOM     23  C   UNL     1      -5.199  -3.292  31.633  0.00  0.00    +0.090 C 
ATOM     24  C   UNL     1      -4.451  -3.419  30.560  0.00  0.00    +0.069 C 
BRANCH  20  25
ATOM     25  C   UNL     1      -2.319  -6.451  31.298  0.00  0.00    +0.085 C 
ATOM     26  N   UNL     1      -2.640  -7.692  30.896  0.00  0.00    -0.226 NA
ATOM     27  C   UNL     1      -1.712  -8.679  30.744  0.00  0.00    +0.199 C 
ATOM     28  N   UNL     1      -0.410  -8.446  30.994  0.00  0.00    -0.222 NA
ATOM     29  C   UNL     1      -0.051  -7.207  31.398  0.00  0.00    +0.102 C 
ATOM     30  C   UNL     1      -0.999  -6.191  31.558  0.00  0.00    +0.037 C 
ENDBRANCH  20  25
BRANCH  21  31
ATOM     31  C   UNL     1      -4.021  -6.311  33.572  0.00  0.00    +0.336 C 
ATOM     32  O   UNL     1      -3.384  -6.067  34.618  0.00  0.00    -0.245 OA
BRANCH  31  33
ATOM     33  O   UNL     1      -4.658  -7.515  33.464  0.00  0.00    -0.477 OA
ATOM     34  H   UNL     1      -5.582  -7.544  33.309  0.00  0.00    +0.295 HD
ENDBRANCH  31  33
ENDBRANCH  21  31
BRANCH  19  35
ATOM     35  C   UNL     1      -2.680  -4.552  29.204  0.00  0.00    +0.184 C 
BRANCH  35  36
ATOM     36  N   UNL     1      -2.122  -3.231  28.910  0.00  0.00    -0.196 NA
ATOM     37  C   UNL     1      -0.843  -3.044  29.567  0.00  0.00    +0.109 C 
ENDBRANCH  35  36
ENDBRANCH  19  35
ENDBRANCH  17  23
ENDBRANCH  16  17
ENDBRANCH   1  16
BRANCH   2  38
ATOM     38  N   UNL     1     -10.061  -0.861  30.058  0.00  0.00    -0.178 N 
BRANCH  38  39
ATOM     39  C   UNL     1     -10.159  -1.030  28.670  0.00  0.00    +0.154 C 
ATOM     40  S   UNL     1      -9.618   0.123  27.658  0.00  0.00    -0.017 S 
BRANCH  39  41
ATOM     41  N   UNL     1     -10.736  -2.202  28.117  0.00  0.00    -0.339 N 
ATOM     42  H   UNL     1     -11.447  -2.129  27.441  0.00  0.00    +0.144 HD
ATOM     43  H   UNL     1     -10.424  -3.089  28.410  0.00  0.00    +0.144 HD
ENDBRANCH  39  41
ENDBRANCH  38  39
BRANCH  38  44
ATOM     44  O   UNL     1     -10.251   0.348  30.605  0.00  0.00    -0.292 OA
ATOM     45  H   UNL     1      -9.434   0.638  31.039  0.00  0.00    +0.242 HD
ENDBRANCH  38  44
ENDBRANCH   2  38
TORSDOF 14
ENDMDL
