MODEL 1
REMARK VINA RESULT:    -9.713      0.000      0.000
REMARK INTER + INTRA:         -17.051
REMARK INTER:                 -15.675
REMARK INTRA:                  -1.376
REMARK UNBOUND:                -1.376
REMARK  Name = =
REMARK  12 active torsions:
REMARK  status: ('A' for Active; 'I' for Inactive)
REMARK    1  A    between atoms: N_1  and  N_24
REMARK    2  A    between atoms: C_2  and  C_18
REMARK    3  A    between atoms: C_2  and  N_36
REMARK    4  A    between atoms: C_5  and  C_8
REMARK    5  A    between atoms: C_14  and  N_15
REMARK    6  A    between atoms: N_15  and  N_16
REMARK    7  A    between atoms: N_20  and  N_21
REMARK    8  A    between atoms: N_24  and  C_25
REMARK    9  A    between atoms: C_33  and  O_35
REMARK   10  A    between atoms: N_36  and  P_37
REMARK   11  A    between atoms: P_37  and  N_39
REMARK   12  A    between atoms: P_37  and  O_40
REMARK                            x       y       z     vdW  Elec       q    Type
REMARK                         _______ _______ _______ _____ _____    ______ ____
ROOT
ATOM      1  N   UNL     1      -0.887  -4.600  29.805  0.00  0.00    -0.191 N 
ATOM      2  C   UNL     1       0.058  -5.726  30.057  0.00  0.00    +0.199 C 
ATOM      3  C   UNL     1       1.452  -5.345  29.772  0.00  0.00    +0.045 C 
ATOM      4  C   UNL     1       1.721  -4.346  28.711  0.00  0.00    +0.013 C 
ATOM      5  C   UNL     1       0.899  -3.070  28.801  0.00  0.00    +0.078 C 
ATOM      6  C   UNL     1      -0.387  -3.324  29.462  0.00  0.00    +0.242 C 
ATOM      7  O   UNL     1      -1.074  -2.323  29.737  0.00  0.00    -0.273 OA
ENDROOT
BRANCH   5   8
ATOM      8  C   UNL     1       0.885  -2.486  27.447  0.00  0.00    +0.009 C 
ATOM      9  C   UNL     1       0.435  -1.108  27.240  0.00  0.00    +0.002 C 
ATOM     10  C   UNL     1       1.631  -0.293  26.714  0.00  0.00    +0.020 C 
ATOM     11  C   UNL     1       2.736  -1.057  27.465  0.00  0.00    +0.002 C 
ATOM     12  C   UNL     1       2.359  -2.470  26.985  0.00  0.00    +0.002 C 
ATOM     13  C   UNL     1       2.320  -2.240  25.489  0.00  0.00    +0.021 C 
ATOM     14  C   UNL     1       1.877  -0.806  25.304  0.00  0.00    +0.090 C 
BRANCH  14  15
ATOM     15  N   UNL     1       2.878  -0.021  24.614  0.00  0.00    -0.224 N 
ATOM     16  H   UNL     1       2.654   0.914  24.403  0.00  0.00    +0.172 HD
BRANCH  15  17
ATOM     17  N   UNL     1       4.117  -0.479  24.230  0.00  0.00    +0.042 NA
ATOM     18  O   UNL     1       5.036   0.134  23.708  0.00  0.00    -0.126 OA
ENDBRANCH  15  17
ENDBRANCH  14  15
ENDBRANCH   5   8
BRANCH   2  19
ATOM     19  C   UNL     1      -0.479  -6.884  29.343  0.00  0.00    +0.270 C 
ATOM     20  O   UNL     1      -0.992  -6.680  28.183  0.00  0.00    -0.270 OA
ATOM     21  N   UNL     1      -0.503  -8.220  29.796  0.00  0.00    -0.231 N 
ATOM     22  H   UNL     1      -0.118  -8.438  30.675  0.00  0.00    +0.173 HD
BRANCH  21  23
ATOM     23  N   UNL     1      -1.061  -9.236  29.023  0.00  0.00    -0.226 N 
ATOM     24  C   UNL     1      -0.259  -9.869  28.001  0.00  0.00    +0.316 C 
ATOM     25  O   UNL     1       0.938  -9.498  27.807  0.00  0.00    -0.264 OA
ATOM     26  H   UNL     1      -1.992  -9.520  29.171  0.00  0.00    +0.173 HD
ENDBRANCH  21  23
ENDBRANCH   2  19
BRANCH   1  27
ATOM     27  N   UNL     1      -2.239  -4.869  29.920  0.00  0.00    -0.257 N 
ATOM     28  H   UNL     1      -2.674  -5.203  29.101  0.00  0.00    +0.170 HD
BRANCH  27  29
ATOM     29  C   UNL     1      -3.086  -4.735  31.042  0.00  0.00    +0.082 C 
ATOM     30  C   UNL     1      -3.360  -5.826  31.864  0.00  0.00    +0.096 C 
ATOM     31  N   UNL     1      -2.825  -7.044  31.687  0.00  0.00    -0.243 NA
ATOM     32  C   UNL     1      -3.055  -8.102  32.474  0.00  0.00    +0.099 C 
ATOM     33  C   UNL     1      -3.902  -7.979  33.562  0.00  0.00    +0.021 C 
ATOM     34  C   UNL     1      -4.483  -6.734  33.790  0.00  0.00    +0.003 C 
ATOM     35  C   UNL     1      -4.220  -5.672  32.957  0.00  0.00    +0.022 C 
ATOM     36  C   UNL     1      -4.813  -4.461  33.252  0.00  0.00    +0.038 C 
ATOM     37  C   UNL     1      -4.520  -3.395  32.419  0.00  0.00    +0.135 C 
ATOM     38  C   UNL     1      -3.676  -3.511  31.334  0.00  0.00    +0.054 C 
BRANCH  37  39
ATOM     39  O   UNL     1      -5.097  -2.171  32.695  0.00  0.00    -0.505 OA
ATOM     40  H   UNL     1      -6.022  -2.059  32.605  0.00  0.00    +0.292 HD
ENDBRANCH  37  39
ENDBRANCH  27  29
ENDBRANCH   1  27
BRANCH   2  41
ATOM     41  N   UNL     1      -0.064  -5.924  31.499  0.00  0.00    -0.202 NA
ATOM     42  H   UNL     1      -0.534  -6.815  31.659  0.00  0.00    +0.135 HD
BRANCH  41  43
ATOM     43  P   UNL     1       1.429  -5.946  32.351  0.00  0.00    +0.340 P 
ATOM     44  O   UNL     1       2.362  -7.047  31.874  0.00  0.00    -0.255 OA
BRANCH  43  45
ATOM     45  N   UNL     1       2.323  -4.446  32.303  0.00  0.00    -0.247 NA
ATOM     46  H   UNL     1       1.984  -3.825  33.038  0.00  0.00    +0.129 HD
ATOM     47  H   UNL     1       2.192  -4.001  31.395  0.00  0.00    +0.129 HD
ENDBRANCH  43  45
BRANCH  43  48
ATOM     48  O   UNL     1       1.083  -6.268  33.984  0.00  0.00    -0.322 OA
ATOM     49  H   UNL     1       1.873  -6.630  34.416  0.00  0.00    +0.220 HD
ENDBRANCH  43  48
ENDBRANCH  41  43
ENDBRANCH   2  41
TORSDOF 12
ENDMDL
