REMARK  Name = =
REMARK  14 active torsions:
REMARK  status: ('A' for Active; 'I' for Inactive)
REMARK    1  A    between atoms: C_1  and  O_14
REMARK    2  A    between atoms: C_2  and  N_35
REMARK    3  A    between atoms: C_9  and  C_10
REMARK    4  A    between atoms: N_12  and  O_13
REMARK    5  A    between atoms: O_14  and  C_15
REMARK    6  A    between atoms: C_15  and  C_21
REMARK    7  A    between atoms: N_17  and  C_32
REMARK    8  A    between atoms: C_18  and  C_23
REMARK    9  A    between atoms: C_19  and  C_29
REMARK   10  A    between atoms: C_29  and  O_31
REMARK   11  A    between atoms: C_32  and  N_33
REMARK   12  A    between atoms: N_35  and  C_36
REMARK   13  A    between atoms: N_35  and  O_39
REMARK   14  A    between atoms: C_36  and  N_38
REMARK                            x       y       z     vdW  Elec       q    Type
REMARK                         _______ _______ _______ _____ _____    ______ ____
ROOT
ATOM      1  C   UNL     1       1.023  -6.721  28.672  0.00  0.00    +0.198 C 
ATOM      2  C   UNL     1       1.693  -6.064  27.478  0.00  0.00    +0.164 C 
ATOM      3  C   UNL     1       0.928  -4.802  27.270  0.00  0.00    +0.002 C 
ATOM      4  C   UNL     1      -0.292  -4.966  27.887  0.00  0.00    -0.021 C 
ATOM      5  C   UNL     1      -0.423  -6.338  28.454  0.00  0.00    +0.072 C 
ATOM      6  C   UNL     1      -1.236  -3.953  27.933  0.00  0.00    -0.004 C 
ATOM      7  C   UNL     1      -0.926  -2.733  27.327  0.00  0.00    -0.000 C 
ATOM      8  C   UNL     1       0.274  -2.535  26.704  0.00  0.00    +0.004 C 
ATOM      9  C   UNL     1       1.215  -3.574  26.668  0.00  0.00    +0.053 C 
ENDROOT
BRANCH   9  10
ATOM     10  C   UNL     1       2.422  -3.350  25.930  0.00  0.00    +0.267 C 
ATOM     11  O   UNL     1       3.247  -2.477  26.367  0.00  0.00    -0.268 OA
ATOM     12  N   UNL     1       2.782  -4.004  24.751  0.00  0.00    -0.193 N 
ATOM     13  H   UNL     1       2.175  -4.677  24.366  0.00  0.00    +0.183 HD
BRANCH  12  14
ATOM     14  O   UNL     1       3.964  -3.726  24.122  0.00  0.00    -0.295 OA
ATOM     15  H   UNL     1       4.445  -3.048  24.622  0.00  0.00    +0.241 HD
ENDBRANCH  12  14
ENDBRANCH   9  10
BRANCH   1  16
ATOM     16  O   UNL     1       1.094  -8.133  28.597  0.00  0.00    -0.447 OA
BRANCH  16  17
ATOM     17  C   UNL     1       1.230  -8.737  27.355  0.00  0.00    +0.342 C 
ATOM     18  O   UNL     1       0.387  -8.360  26.464  0.00  0.00    -0.245 OA
BRANCH  17  23
ATOM     19  N   UNL     1       4.559 -10.225  26.608  0.00  0.00    -0.284 N 
ATOM     20  C   UNL     1       4.284 -11.605  26.387  0.00  0.00    +0.143 C 
ATOM     21  C   UNL     1       3.040 -12.025  26.487  0.00  0.00    +0.077 C 
ATOM     22  C   UNL     1       1.891 -11.126  26.828  0.00  0.00    +0.012 C 
ATOM     23  C   UNL     1       2.245  -9.733  27.035  0.00  0.00    +0.090 C 
ATOM     24  C   UNL     1       3.494  -9.341  26.927  0.00  0.00    +0.069 C 
BRANCH  20  25
ATOM     25  C   UNL     1       5.375 -12.523  26.139  0.00  0.00    +0.085 C 
ATOM     26  N   UNL     1       5.857 -13.294  27.127  0.00  0.00    -0.226 NA
ATOM     27  C   UNL     1       6.871 -14.185  26.937  0.00  0.00    +0.199 C 
ATOM     28  N   UNL     1       7.442 -14.332  25.726  0.00  0.00    -0.222 NA
ATOM     29  C   UNL     1       6.980 -13.572  24.708  0.00  0.00    +0.102 C 
ATOM     30  C   UNL     1       5.941 -12.655  24.898  0.00  0.00    +0.037 C 
ENDBRANCH  20  25
BRANCH  21  31
ATOM     31  C   UNL     1       2.668 -13.394  26.210  0.00  0.00    +0.336 C 
ATOM     32  O   UNL     1       1.504 -13.784  26.435  0.00  0.00    -0.245 OA
BRANCH  31  33
ATOM     33  O   UNL     1       3.566 -14.287  25.698  0.00  0.00    -0.477 OA
ATOM     34  H   UNL     1       4.446 -14.017  25.521  0.00  0.00    +0.295 HD
ENDBRANCH  31  33
ENDBRANCH  21  31
BRANCH  19  35
ATOM     35  C   UNL     1       5.928  -9.754  26.521  0.00  0.00    +0.184 C 
BRANCH  35  36
ATOM     36  N   UNL     1       6.437  -9.516  27.873  0.00  0.00    -0.196 NA
ATOM     37  C   UNL     1       7.054  -8.208  27.978  0.00  0.00    +0.109 C 
ENDBRANCH  35  36
ENDBRANCH  19  35
ENDBRANCH  17  23
ENDBRANCH  16  17
ENDBRANCH   1  16
BRANCH   2  38
ATOM     38  N   UNL     1       3.080  -5.822  27.805  0.00  0.00    -0.178 N 
BRANCH  38  39
ATOM     39  C   UNL     1       3.420  -4.980  28.872  0.00  0.00    +0.154 C 
ATOM     40  S   UNL     1       2.648  -5.101  30.299  0.00  0.00    -0.017 S 
BRANCH  39  41
ATOM     41  N   UNL     1       4.437  -4.001  28.732  0.00  0.00    -0.339 N 
ATOM     42  H   UNL     1       4.918  -3.909  27.878  0.00  0.00    +0.144 HD
ATOM     43  H   UNL     1       4.662  -3.413  29.489  0.00  0.00    +0.144 HD
ENDBRANCH  39  41
ENDBRANCH  38  39
BRANCH  38  44
ATOM     44  O   UNL     1       4.041  -6.431  27.095  0.00  0.00    -0.292 OA
ATOM     45  H   UNL     1       3.635  -6.972  26.400  0.00  0.00    +0.242 HD
ENDBRANCH  38  44
ENDBRANCH   2  38
TORSDOF 14
