REMARK  Name = =
REMARK  0 active torsions:
REMARK  status: ('A' for Active; 'I' for Inactive)
REMARK                            x       y       z     vdW  Elec       q    Type
REMARK                         _______ _______ _______ _____ _____    ______ ____
ROOT
ATOM      1  N   UNL     1     -13.932 -42.832  26.406  0.00  0.00    -0.248 N 
ATOM      2  C   UNL     1     -14.577 -41.539  26.304  0.00  0.00    +0.169 C 
ATOM      3  N   UNL     1     -14.732 -41.433  24.844  0.00  0.00    -0.279 NA
ATOM      4  C   UNL     1     -15.329 -42.716  24.523  0.00  0.00    +0.092 C 
ATOM      5  C   UNL     1     -14.558 -43.661  25.406  0.00  0.00    +0.113 C 
ATOM      6  C   UNL     1     -12.900 -43.156  27.324  0.00  0.00    +0.311 C 
ATOM      7  O   UNL     1     -12.441 -44.325  27.291  0.00  0.00    -0.252 OA
ATOM      8  N   UNL     1     -12.400 -42.201  28.250  0.00  0.00    -0.232 N 
ATOM      9  C   UNL     1     -11.363 -42.512  29.179  0.00  0.00    +0.307 C 
ATOM     10  O   UNL     1     -10.870 -43.676  29.181  0.00  0.00    -0.265 OA
ATOM     11  H   UNL     1     -13.831 -41.315  24.381  0.00  0.00    +0.125 HD
ATOM     12  H   UNL     1     -12.782 -41.294  28.250  0.00  0.00    +0.160 HD
ENDROOT
TORSDOF 0
