REMARK  Name = =
REMARK  8 active torsions:
REMARK  status: ('A' for Active; 'I' for Inactive)
REMARK    1  A    between atoms: S_1  and  N_2
REMARK    2  A    between atoms: S_1  and  S_14
REMARK    3  A    between atoms: S_1  and  S_19
REMARK    4  A    between atoms: S_14  and  S_15
REMARK    5  A    between atoms: S_15  and  C_16
REMARK    6  A    between atoms: C_16  and  O_18
REMARK    7  A    between atoms: S_19  and  C_20
REMARK    8  A    between atoms: C_20  and  O_22
REMARK                            x       y       z     vdW  Elec       q    Type
REMARK                         _______ _______ _______ _____ _____    ______ ____
ROOT
ATOM      1  S   UNL     1     -16.138 -41.705  26.198  0.00  0.00    -0.078 S 
ATOM      2  H   UNL     1     -15.955 -40.368  26.032  0.00  0.00    +0.120 HD
ENDROOT
BRANCH   1   3
ATOM      3  N   UNL     1     -15.107 -41.951  27.301  0.00  0.00    -0.227 NA
ATOM      4  C   UNL     1     -15.386 -42.676  28.504  0.00  0.00    +0.105 C 
ATOM      5  C   UNL     1     -14.564 -43.970  28.436  0.00  0.00    +0.112 C 
ATOM      6  N   UNL     1     -13.169 -43.542  28.439  0.00  0.00    -0.275 N 
ATOM      7  C   UNL     1     -12.743 -42.630  27.421  0.00  0.00    +0.112 C 
ATOM      8  C   UNL     1     -13.749 -41.532  27.156  0.00  0.00    +0.105 C 
ATOM      9  C   UNL     1     -12.285 -44.037  29.440  0.00  0.00    +0.220 C 
ATOM     10  N   UNL     1     -11.004 -43.653  29.456  0.00  0.00    -0.212 NA
ATOM     11  C   UNL     1     -10.124 -44.077  30.363  0.00  0.00    +0.103 C 
ATOM     12  C   UNL     1     -10.588 -44.954  31.320  0.00  0.00    +0.041 C 
ATOM     13  C   UNL     1     -11.901 -45.355  31.314  0.00  0.00    +0.103 C 
ATOM     14  N   UNL     1     -12.729 -44.889  30.372  0.00  0.00    -0.212 NA
ENDBRANCH   1   3
BRANCH   1  15
ATOM     15  S   UNL     1     -17.528 -42.453  26.711  0.00  0.00    -0.014 S 
BRANCH  15  16
ATOM     16  S   UNL     1     -19.309 -41.567  26.640  0.00  0.00    -0.000 S 
BRANCH  16  17
ATOM     17  C   UNL     1     -20.374 -42.269  25.394  0.00  0.00    +0.209 C 
ATOM     18  S   UNL     1     -21.979 -42.446  25.613  0.00  0.00    -0.003 S 
BRANCH  17  19
ATOM     19  O   UNL     1     -19.791 -42.674  24.201  0.00  0.00    -0.495 OA
ATOM     20  H   UNL     1     -20.320 -43.047  23.524  0.00  0.00    +0.293 HD
ENDBRANCH  17  19
ENDBRANCH  16  17
ENDBRANCH  15  16
ENDBRANCH   1  15
BRANCH   1  21
ATOM     21  S   UNL     1     -16.103 -42.462  24.628  0.00  0.00    -0.010 S 
BRANCH  21  22
ATOM     22  C   UNL     1     -14.680 -43.106  23.995  0.00  0.00    +0.209 C 
ATOM     23  S   UNL     1     -14.559 -44.657  23.503  0.00  0.00    -0.003 S 
BRANCH  22  24
ATOM     24  O   UNL     1     -13.509 -42.333  23.858  0.00  0.00    -0.495 OA
ATOM     25  H   UNL     1     -13.508 -41.434  24.121  0.00  0.00    +0.293 HD
ENDBRANCH  22  24
ENDBRANCH  21  22
ENDBRANCH   1  21
TORSDOF 8
