REMARK  Name = =
REMARK  5 active torsions:
REMARK  status: ('A' for Active; 'I' for Inactive)
REMARK    1  A    between atoms: C_1  and  C_15
REMARK    2  A    between atoms: C_1  and  C_21
REMARK    3  A    between atoms: C_9  and  S_30
REMARK    4  A    between atoms: C_21  and  N_24
REMARK    5  A    between atoms: S_30  and  S_31
REMARK                            x       y       z     vdW  Elec       q    Type
REMARK                         _______ _______ _______ _____ _____    ______ ____
ROOT
ATOM      1  C   UNL     1     -23.114 -40.963  23.609  0.00  0.00    +0.027 C 
ATOM      2  C   UNL     1     -24.091 -41.231  22.515  0.00  0.00    +0.005 C 
ATOM      3  C   UNL     1     -24.935 -40.049  22.097  0.00  0.00    +0.000 C 
ATOM      4  C   UNL     1     -26.133 -40.648  21.331  0.00  0.00    +0.000 C 
ATOM      5  C   UNL     1     -27.042 -39.553  20.893  0.00  0.00    +0.000 C 
ATOM      6  C   UNL     1     -26.340 -38.313  20.438  0.00  0.00    +0.000 C 
ATOM      7  C   UNL     1     -25.601 -38.539  19.149  0.00  0.00    +0.003 C 
ATOM      8  C   UNL     1     -24.587 -37.468  18.880  0.00  0.00    +0.042 C 
ATOM      9  C   UNL     1     -23.168 -38.007  19.003  0.00  0.00    +0.172 C 
ATOM     10  O   UNL     1     -22.331 -37.203  19.735  0.00  0.00    -0.345 OA
ATOM     11  C   UNL     1     -22.328 -37.441  21.083  0.00  0.00    +0.143 C 
ATOM     12  C   UNL     1     -21.716 -38.776  21.469  0.00  0.00    +0.032 C 
ATOM     13  C   UNL     1     -21.602 -38.937  22.929  0.00  0.00    +0.003 C 
ATOM     14  C   UNL     1     -22.590 -39.619  23.725  0.00  0.00    +0.005 C 
ENDROOT
BRANCH   1  15
ATOM     15  C   UNL     1     -23.902 -41.146  24.905  0.00  0.00    -0.048 C 
ATOM     16  C   UNL     1     -23.374 -40.597  25.985  0.00  0.00    -0.035 C 
ATOM     17  C   UNL     1     -23.946 -40.640  27.358  0.00  0.00    +0.025 C 
ATOM     18  C   UNL     1     -25.342 -41.197  27.382  0.00  0.00    +0.005 C 
ATOM     19  C   UNL     1     -25.372 -42.353  26.435  0.00  0.00    +0.005 C 
ATOM     20  C   UNL     1     -25.215 -41.755  25.024  0.00  0.00    +0.022 C 
ENDBRANCH   1  15
BRANCH   1  21
ATOM     21  C   UNL     1     -22.168 -42.147  23.634  0.00  0.00    +0.049 C 
ATOM     22  C   UNL     1     -20.999 -42.140  22.684  0.00  0.00    +0.016 C 
ATOM     23  C   UNL     1     -20.796 -42.082  24.173  0.00  0.00    +0.016 C 
BRANCH  21  24
ATOM     24  N   UNL     1     -22.766 -43.444  23.690  0.00  0.00    -0.273 NA
ATOM     25  C   UNL     1     -23.422 -44.038  22.624  0.00  0.00    +0.089 C 
ATOM     26  C   UNL     1     -23.000 -45.508  22.369  0.00  0.00    +0.086 C 
ATOM     27  N   UNL     1     -23.112 -46.245  23.603  0.00  0.00    -0.295 NA
ATOM     28  C   UNL     1     -22.026 -45.672  24.426  0.00  0.00    +0.086 C 
ATOM     29  C   UNL     1     -22.498 -44.270  24.809  0.00  0.00    +0.089 C 
ATOM     30  H   UNL     1     -22.969 -47.243  23.449  0.00  0.00    +0.123 HD
ENDBRANCH  21  24
ENDBRANCH   1  21
BRANCH   9  31
ATOM     31  S   UNL     1     -22.496 -38.052  17.296  0.00  0.00    -0.057 S 
BRANCH  31  32
ATOM     32  S   UNL     1     -22.378 -36.034  16.623  0.00  0.00    -0.108 S 
ATOM     33  H   UNL     1     -21.884 -36.007  15.356  0.00  0.00    +0.114 HD
ENDBRANCH  31  32
ENDBRANCH   9  31
TORSDOF 5
