REMARK  Name = =
REMARK  0 active torsions:
REMARK  status: ('A' for Active; 'I' for Inactive)
REMARK                            x       y       z     vdW  Elec       q    Type
REMARK                         _______ _______ _______ _____ _____    ______ ____
ROOT
ATOM      1  C   UNL     1     -13.146 -45.642  26.060  0.00  0.00    +0.022 C 
ATOM      2  C   UNL     1     -12.489 -46.287  27.259  0.00  0.00    +0.004 C 
ATOM      3  C   UNL     1     -11.761 -45.242  28.015  0.00  0.00    +0.001 C 
ATOM      4  C   UNL     1     -12.789 -44.362  28.699  0.00  0.00    +0.004 C 
ATOM      5  C   UNL     1     -13.517 -43.603  27.661  0.00  0.00    +0.018 C 
ATOM      6  C   UNL     1     -13.044 -42.192  27.454  0.00  0.00    +0.009 C 
ATOM      7  C   UNL     1     -14.189 -41.421  26.831  0.00  0.00    +0.026 C 
ATOM      8  C   UNL     1     -14.624 -42.163  25.593  0.00  0.00    -0.031 C 
ATOM      9  C   UNL     1     -15.432 -41.533  24.759  0.00  0.00    -0.031 C 
ATOM     10  C   UNL     1     -15.898 -42.193  23.530  0.00  0.00    +0.026 C 
ATOM     11  C   UNL     1     -15.681 -43.675  23.528  0.00  0.00    +0.009 C 
ATOM     12  C   UNL     1     -14.291 -44.055  23.992  0.00  0.00    +0.026 C 
ATOM     13  C   UNL     1     -14.138 -43.539  25.370  0.00  0.00    -0.034 C 
ATOM     14  C   UNL     1     -13.605 -44.267  26.347  0.00  0.00    -0.049 C 
ATOM     15  C   UNL     1     -11.878 -43.535  29.571  0.00  0.00    +0.000 C 
ATOM     16  C   UNL     1     -10.997 -44.614  30.170  0.00  0.00    +0.000 C 
ATOM     17  C   UNL     1     -11.010 -45.770  29.215  0.00  0.00    +0.000 C 
ENDROOT
TORSDOF 0
