REMARK  Name = =
REMARK  10 active torsions:
REMARK  status: ('A' for Active; 'I' for Inactive)
REMARK    1  A    between atoms: C_4  and  O_39
REMARK    2  A    between atoms: C_6  and  O_38
REMARK    3  A    between atoms: C_10  and  N_29
REMARK    4  A    between atoms: C_11  and  C_12
REMARK    5  A    between atoms: C_14  and  N_18
REMARK    6  A    between atoms: C_15  and  O_28
REMARK    7  A    between atoms: N_18  and  C_19
REMARK    8  A    between atoms: C_22  and  C_25
REMARK    9  A    between atoms: C_25  and  O_27
REMARK   10  A    between atoms: C_31  and  C_35
REMARK                            x       y       z     vdW  Elec       q    Type
REMARK                         _______ _______ _______ _____ _____    ______ ____
ROOT
ATOM      1  O   UNL     1      -9.313 -42.449  33.500  0.00  0.00    -0.452 OA
ATOM      2  C   UNL     1      -9.379 -41.763  34.584  0.00  0.00    +0.154 A 
ATOM      3  C   UNL     1     -10.610 -41.366  35.097  0.00  0.00    +0.109 A 
ATOM      4  C   UNL     1     -10.695 -40.626  36.267  0.00  0.00    +0.143 C 
ATOM      5  C   UNL     1      -9.554 -40.266  36.946  0.00  0.00    +0.073 C 
ATOM      6  C   UNL     1      -8.334 -40.651  36.451  0.00  0.00    +0.140 C 
ATOM      7  C   UNL     1      -8.252 -41.383  35.296  0.00  0.00    +0.074 C 
ATOM      8  C   UNL     1     -11.700 -41.751  34.381  0.00  0.00    +0.218 A 
ATOM      9  O   UNL     1     -12.858 -41.460  34.734  0.00  0.00    -0.285 OA
ATOM     10  C   UNL     1     -11.575 -42.510  33.185  0.00  0.00    +0.123 A 
ATOM     11  C   UNL     1     -10.349 -42.857  32.750  0.00  0.00    +0.162 A 
ENDROOT
BRANCH  11  12
ATOM     12  C   UNL     1     -10.037 -43.629  31.566  0.00  0.00    +0.037 C 
ATOM     13  C   UNL     1     -10.449 -43.147  30.307  0.00  0.00    +0.021 C 
ATOM     14  C   UNL     1     -10.244 -43.780  29.130  0.00  0.00    +0.083 C 
ATOM     15  C   UNL     1      -9.581 -44.997  29.169  0.00  0.00    +0.147 C 
ATOM     16  C   UNL     1      -9.166 -45.501  30.363  0.00  0.00    +0.038 C 
ATOM     17  C   UNL     1      -9.397 -44.812  31.566  0.00  0.00    +0.006 C 
BRANCH  14  18
ATOM     18  N   UNL     1     -10.710 -43.266  27.900  0.00  0.00    -0.310 N 
ATOM     19  H   UNL     1     -10.014 -43.022  27.248  0.00  0.00    +0.152 HD
BRANCH  18  20
ATOM     20  C   UNL     1     -12.029 -43.058  27.487  0.00  0.00    +0.048 C 
ATOM     21  C   UNL     1     -13.093 -42.972  28.342  0.00  0.00    +0.015 C 
ATOM     22  C   UNL     1     -14.397 -42.793  27.858  0.00  0.00    +0.008 C 
ATOM     23  C   UNL     1     -14.650 -42.700  26.529  0.00  0.00    +0.076 C 
ATOM     24  C   UNL     1     -13.608 -42.782  25.651  0.00  0.00    +0.008 C 
ATOM     25  C   UNL     1     -12.324 -42.957  26.121  0.00  0.00    +0.015 C 
BRANCH  23  26
ATOM     26  C   UNL     1     -16.009 -42.514  25.992  0.00  0.00    +0.338 C 
ATOM     27  O   UNL     1     -16.213 -42.395  24.758  0.00  0.00    -0.245 OA
BRANCH  26  28
ATOM     28  O   UNL     1     -17.090 -42.466  26.846  0.00  0.00    -0.477 OA
ATOM     29  H   UNL     1     -16.961 -42.553  27.770  0.00  0.00    +0.295 HD
ENDBRANCH  26  28
ENDBRANCH  23  26
ENDBRANCH  18  20
ENDBRANCH  14  18
BRANCH  15  30
ATOM     30  O   UNL     1      -9.364 -45.663  27.954  0.00  0.00    -0.504 OA
ATOM     31  H   UNL     1      -9.665 -45.284  27.152  0.00  0.00    +0.292 HD
ENDBRANCH  15  30
ENDBRANCH  11  12
BRANCH  10  32
ATOM     32  N   UNL     1     -12.800 -42.893  32.572  0.00  0.00    -0.299 N 
ATOM     33  C   UNL     1     -12.993 -44.270  32.168  0.00  0.00    +0.118 C 
ATOM     34  C   UNL     1     -14.374 -44.648  32.713  0.00  0.00    +0.168 C 
ATOM     35  N   UNL     1     -15.391 -43.912  32.044  0.00  0.00    -0.207 NA
ATOM     36  C   UNL     1     -14.982 -42.614  31.627  0.00  0.00    +0.111 C 
ATOM     37  C   UNL     1     -13.916 -41.969  32.458  0.00  0.00    +0.110 C 
BRANCH  34  38
ATOM     38  C   UNL     1     -14.580 -46.117  32.607  0.00  0.00    +0.237 C 
ATOM     39  O   UNL     1     -15.578 -46.561  31.983  0.00  0.00    -0.274 OA
ATOM     40  N   UNL     1     -13.675 -47.038  33.197  0.00  0.00    -0.328 N 
ATOM     41  H   UNL     1     -12.889 -46.709  33.689  0.00  0.00    +0.145 HD
ATOM     42  H   UNL     1     -13.834 -48.006  33.114  0.00  0.00    +0.145 HD
ENDBRANCH  34  38
ENDBRANCH  10  32
BRANCH   6  43
ATOM     43  O   UNL     1      -7.188 -40.268  37.168  0.00  0.00    -0.505 OA
ATOM     44  H   UNL     1      -7.274 -39.767  37.955  0.00  0.00    +0.292 HD
ENDBRANCH   6  43
BRANCH   4  45
ATOM     45  O   UNL     1     -11.957 -40.268  36.716  0.00  0.00    -0.505 OA
ATOM     46  H   UNL     1     -12.717 -40.527  36.233  0.00  0.00    +0.292 HD
ENDBRANCH   4  45
TORSDOF 10
