MODEL 1
REMARK VINA RESULT:    -6.608      0.000      0.000
REMARK INTER + INTRA:          -9.654
REMARK INTER:                  -9.119
REMARK INTRA:                  -0.535
REMARK UNBOUND:                -0.535
REMARK  Name = =
REMARK  7 active torsions:
REMARK  status: ('A' for Active; 'I' for Inactive)
REMARK    1  A    between atoms: C_3  and  O_15
REMARK    2  A    between atoms: C_5  and  S_14
REMARK    3  A    between atoms: C_10  and  C_11
REMARK    4  A    between atoms: O_15  and  C_16
REMARK    5  A    between atoms: C_16  and  C_17
REMARK    6  A    between atoms: C_17  and  O_19
REMARK    7  A    between atoms: O_19  and  C_20
REMARK                            x       y       z     vdW  Elec       q    Type
REMARK                         _______ _______ _______ _____ _____    ______ ____
ROOT
ATOM      1  C   UNL     1      53.746 154.059  26.604  0.00  0.00    +0.142 C 
ATOM      2  C   UNL     1      53.198 155.332  26.799  0.00  0.00    +0.039 C 
ATOM      3  C   UNL     1      52.616 155.509  28.183  0.00  0.00    +0.145 C 
ATOM      4  C   UNL     1      51.647 154.328  28.403  0.00  0.00    +0.089 C 
ATOM      5  C   UNL     1      52.399 153.026  28.337  0.00  0.00    +0.213 C 
ATOM      6  O   UNL     1      53.664 153.176  27.665  0.00  0.00    -0.469 OA
ATOM      7  C   UNL     1      53.201 156.296  25.846  0.00  0.00    +0.001 C 
ATOM      8  C   UNL     1      53.780 155.997  24.627  0.00  0.00    +0.000 C 
ATOM      9  C   UNL     1      54.337 154.765  24.374  0.00  0.00    +0.007 C 
ATOM     10  C   UNL     1      54.309 153.797  25.390  0.00  0.00    +0.084 C 
ENDROOT
BRANCH  10  11
ATOM     11  C   UNL     1      54.897 152.477  25.151  0.00  0.00    +0.256 C 
ATOM     12  O   UNL     1      56.067 152.236  25.534  0.00  0.00    -0.274 OA
ATOM     13 CL   UNL     1      53.953 151.262  24.337  0.00  0.00    -0.038 Cl
ENDBRANCH  10  11
BRANCH   5  14
ATOM     14  S   UNL     1      51.414 151.830  27.398  0.00  0.00    -0.126 S 
ATOM     15  H   UNL     1      51.319 152.237  26.103  0.00  0.00    +0.106 HD
ENDBRANCH   5  14
BRANCH   3  16
ATOM     16  O   UNL     1      52.068 156.692  28.323  0.00  0.00    -0.348 OA
BRANCH  16  17
ATOM     17  C   UNL     1      52.401 157.677  29.142  0.00  0.00    +0.186 C 
BRANCH  17  18
ATOM     18  C   UNL     1      51.283 158.564  29.584  0.00  0.00    +0.196 C 
ATOM     19  C   UNL     1      50.175 157.814  30.226  0.00  0.00    +0.050 C 
BRANCH  18  20
ATOM     20  O   UNL     1      51.698 159.682  30.348  0.00  0.00    -0.474 OA
BRANCH  20  21
ATOM     21  C   UNL     1      50.891 160.758  30.611  0.00  0.00    +0.172 C 
ATOM     22  C   UNL     1      50.616 161.130  31.845  0.00  0.00    +0.043 C 
ENDBRANCH  20  21
ENDBRANCH  18  20
ENDBRANCH  17  18
ENDBRANCH  16  17
ENDBRANCH   3  16
TORSDOF 7
ENDMDL
