REMARK  Name = =
REMARK  7 active torsions:
REMARK  status: ('A' for Active; 'I' for Inactive)
REMARK    1  A    between atoms: C_3  and  O_15
REMARK    2  A    between atoms: C_5  and  S_14
REMARK    3  A    between atoms: C_10  and  C_11
REMARK    4  A    between atoms: O_15  and  C_16
REMARK    5  A    between atoms: C_16  and  C_17
REMARK    6  A    between atoms: C_17  and  O_19
REMARK    7  A    between atoms: O_19  and  C_20
REMARK                            x       y       z     vdW  Elec       q    Type
REMARK                         _______ _______ _______ _____ _____    ______ ____
ROOT
ATOM      1  C   UNL     1      52.497 154.298  27.559  0.00  0.00    +0.142 C 
ATOM      2  C   UNL     1      52.763 154.871  26.310  0.00  0.00    +0.039 C 
ATOM      3  C   UNL     1      53.190 156.318  26.412  0.00  0.00    +0.145 C 
ATOM      4  C   UNL     1      52.112 157.032  27.254  0.00  0.00    +0.089 C 
ATOM      5  C   UNL     1      52.050 156.428  28.631  0.00  0.00    +0.213 C 
ATOM      6  O   UNL     1      52.644 155.117  28.664  0.00  0.00    -0.469 OA
ATOM      7  C   UNL     1      52.654 154.190  25.143  0.00  0.00    +0.001 C 
ATOM      8  C   UNL     1      52.264 152.866  25.201  0.00  0.00    +0.000 C 
ATOM      9  C   UNL     1      51.990 152.245  26.398  0.00  0.00    +0.007 C 
ATOM     10  C   UNL     1      52.114 152.990  27.581  0.00  0.00    +0.084 C 
ENDROOT
BRANCH  10  11
ATOM     11  C   UNL     1      51.832 152.355  28.871  0.00  0.00    +0.256 C 
ATOM     12  O   UNL     1      51.910 151.108  28.984  0.00  0.00    -0.274 OA
ATOM     13 CL   UNL     1      51.394 153.352  30.229  0.00  0.00    -0.038 Cl
ENDBRANCH  10  11
BRANCH   5  14
ATOM     14  S   UNL     1      50.312 156.258  29.116  0.00  0.00    -0.126 S 
ATOM     15  H   UNL     1      49.714 157.480  29.097  0.00  0.00    +0.106 HD
ENDBRANCH   5  14
BRANCH   3  16
ATOM     16  O   UNL     1      53.387 156.842  25.227  0.00  0.00    -0.348 OA
BRANCH  16  17
ATOM     17  C   UNL     1      54.525 157.169  24.635  0.00  0.00    +0.186 C 
BRANCH  17  18
ATOM     18  C   UNL     1      55.350 156.030  24.131  0.00  0.00    +0.196 C 
ATOM     19  C   UNL     1      56.147 155.381  25.202  0.00  0.00    +0.050 C 
BRANCH  18  20
ATOM     20  O   UNL     1      54.631 155.096  23.346  0.00  0.00    -0.474 OA
BRANCH  20  21
ATOM     21  C   UNL     1      55.193 153.962  22.820  0.00  0.00    +0.172 C 
ATOM     22  C   UNL     1      55.137 152.807  23.452  0.00  0.00    +0.043 C 
ENDBRANCH  20  21
ENDBRANCH  18  20
ENDBRANCH  17  18
ENDBRANCH  16  17
ENDBRANCH   3  16
TORSDOF 7
