REMARK  Name = =
REMARK  1 active torsions:
REMARK  status: ('A' for Active; 'I' for Inactive)
REMARK    1  A    between atoms: C_2  and  C_3
REMARK                            x       y       z     vdW  Elec       q    Type
REMARK                         _______ _______ _______ _____ _____    ______ ____
ROOT
ATOM      1  C   UNL     1      -4.427  -4.038  30.455  0.00  0.00    +0.003 C 
ATOM      2  C   UNL     1      -3.330  -3.537  29.932  0.00  0.00    +0.045 C 
ENDROOT
BRANCH   2   3
ATOM      3  C   UNL     1      -2.444  -4.427  29.201  0.00  0.00    +0.234 C 
ATOM      4  O   UNL     1      -1.440  -3.983  28.588  0.00  0.00    -0.283 OA
ENDBRANCH   2   3
TORSDOF 1
