REMARK  Name = =
REMARK  3 active torsions:
REMARK  status: ('A' for Active; 'I' for Inactive)
REMARK    1  A    between atoms: C_1  and  C_13
REMARK    2  A    between atoms: C_4  and  O_25
REMARK    3  A    between atoms: C_6  and  O_24
REMARK                            x       y       z     vdW  Elec       q    Type
REMARK                         _______ _______ _______ _____ _____    ______ ____
ROOT
ATOM      1  C   UNL     1     -11.190  -6.324  19.380  0.00  0.00    +0.047 C 
ATOM      2  C   UNL     1     -10.589  -5.265  20.074  0.00  0.00    +0.136 C 
ATOM      3  C   UNL     1     -11.097  -3.990  20.065  0.00  0.00    +0.045 C 
ATOM      4  C   UNL     1     -12.244  -3.712  19.368  0.00  0.00    +0.136 C 
ATOM      5  C   UNL     1     -12.862  -4.712  18.685  0.00  0.00    +0.073 C 
ATOM      6  C   UNL     1     -12.339  -6.022  18.683  0.00  0.00    +0.136 C 
ATOM      7  C   UNL     1     -10.346  -2.905  20.748  0.00  0.00    +0.036 C 
ATOM      8  C   UNL     1      -9.574  -3.328  21.933  0.00  0.00    +0.052 C 
ATOM      9  C   UNL     1      -9.152  -4.762  21.974  0.00  0.00    +0.206 C 
ATOM     10  O   UNL     1      -9.453  -5.471  20.800  0.00  0.00    -0.476 OA
ENDROOT
BRANCH   1  13
ATOM     11  N   UNL     1      -9.256  -9.260  18.284  0.00  0.00    -0.219 NA
ATOM     12  C   UNL     1      -9.383  -7.877  18.673  0.00  0.00    +0.093 C 
ATOM     13  C   UNL     1     -10.637  -7.676  19.486  0.00  0.00    +0.050 C 
ATOM     14  C   UNL     1     -10.809  -8.549  20.599  0.00  0.00    +0.029 C 
ATOM     15  C   UNL     1     -10.818 -10.003  20.011  0.00  0.00    +0.022 C 
ATOM     16  C   UNL     1      -9.463 -10.172  19.371  0.00  0.00    +0.077 C 
ATOM     17  C   UNL     1      -8.390 -10.230  20.390  0.00  0.00    +0.043 C 
ATOM     18  C   UNL     1      -8.732  -9.472  21.626  0.00  0.00    -0.025 C 
ATOM     19  C   UNL     1      -9.882  -8.675  21.710  0.00  0.00    -0.026 C 
ATOM     20  C   UNL     1     -10.126  -8.059  22.913  0.00  0.00    -0.005 C 
ATOM     21  C   UNL     1      -9.305  -8.200  23.994  0.00  0.00    -0.000 C 
ATOM     22  C   UNL     1      -8.172  -8.991  23.900  0.00  0.00    -0.000 C 
ATOM     23  C   UNL     1      -7.877  -9.634  22.712  0.00  0.00    -0.005 C 
ENDBRANCH   1  13
BRANCH   6  24
ATOM     24  O   UNL     1     -13.032  -6.957  17.962  0.00  0.00    -0.506 OA
ATOM     25  H   UNL     1     -13.810  -6.711  17.501  0.00  0.00    +0.292 HD
ENDBRANCH   6  24
BRANCH   4  26
ATOM     26  O   UNL     1     -12.750  -2.392  19.376  0.00  0.00    -0.506 OA
ATOM     27  H   UNL     1     -12.304  -1.722  19.855  0.00  0.00    +0.292 HD
ENDBRANCH   4  26
TORSDOF 3
