REMARK  Name = =
REMARK  1 active torsions:
REMARK  status: ('A' for Active; 'I' for Inactive)
REMARK    1  A    between atoms: C_3  and  O_8
REMARK                            x       y       z     vdW  Elec       q    Type
REMARK                         _______ _______ _______ _____ _____    ______ ____
ROOT
ATOM      1 CL   UNL     1     -10.627 -41.352  28.615  0.00  0.00    -0.079 Cl
ATOM      2  C   UNL     1     -10.586 -42.607  29.845  0.00  0.00    +0.091 C 
ATOM      3  C   UNL     1      -9.697 -43.647  29.657  0.00  0.00    +0.144 C 
ATOM      4  C   UNL     1      -9.677 -44.623  30.632  0.00  0.00    +0.037 C 
ATOM      5  C   UNL     1     -10.494 -44.587  31.749  0.00  0.00    +0.003 C 
ATOM      6  C   UNL     1     -11.375 -43.535  31.917  0.00  0.00    +0.001 C 
ATOM      7  C   UNL     1     -11.411 -42.545  30.949  0.00  0.00    +0.014 C 
ENDROOT
BRANCH   3   8
ATOM      8  O   UNL     1      -8.856 -43.720  28.541  0.00  0.00    -0.505 OA
ATOM      9  H   UNL     1      -8.884 -43.048  27.889  0.00  0.00    +0.292 HD
ENDBRANCH   3   8
TORSDOF 1
