REMARK  Name = =
REMARK  6 active torsions:
REMARK  status: ('A' for Active; 'I' for Inactive)
REMARK    1  A    between atoms: C_1  and  C_18
REMARK    2  A    between atoms: C_1  and  N_32
REMARK    3  A    between atoms: C_19  and  C_25
REMARK    4  A    between atoms: C_21  and  O_31
REMARK    5  A    between atoms: N_32  and  C_33
REMARK    6  A    between atoms: C_34  and  N_39
REMARK                            x       y       z     vdW  Elec       q    Type
REMARK                         _______ _______ _______ _____ _____    ______ ____
ROOT
ATOM      1  C   UNL     1      61.537 162.990  40.084  0.00  0.00    +0.061 C 
ATOM      2  C   UNL     1      61.186 162.694  38.641  0.00  0.00    +0.019 C 
ATOM      3  C   UNL     1      60.300 163.829  38.167  0.00  0.00    +0.006 C 
ATOM      4  C   UNL     1      61.048 165.119  38.393  0.00  0.00    +0.018 C 
ATOM      5  C   UNL     1      62.424 164.969  38.889  0.00  0.00    +0.006 C 
ATOM      6  C   UNL     1      63.526 165.028  37.895  0.00  0.00    +0.005 C 
ATOM      7  C   UNL     1      63.100 165.092  36.456  0.00  0.00    +0.021 C 
ATOM      8  C   UNL     1      61.966 166.043  36.329  0.00  0.00    -0.052 C 
ATOM      9  C   UNL     1      61.008 166.049  37.241  0.00  0.00    -0.052 C 
ATOM     10  C   UNL     1      59.871 167.014  37.101  0.00  0.00    +0.021 C 
ATOM     11  C   UNL     1      60.285 168.335  36.548  0.00  0.00    +0.005 C 
ATOM     12  C   UNL     1      61.381 168.309  35.546  0.00  0.00    +0.004 C 
ATOM     13  C   UNL     1      61.916 166.961  35.201  0.00  0.00    +0.018 C 
ATOM     14  C   UNL     1      61.183 166.448  33.998  0.00  0.00    +0.004 C 
ATOM     15  C   UNL     1      60.458 167.658  33.456  0.00  0.00    +0.000 C 
ATOM     16  C   UNL     1      60.986 168.850  34.188  0.00  0.00    +0.000 C 
ATOM     17  C   UNL     1      62.652 164.028  40.015  0.00  0.00    +0.019 C 
ENDROOT
BRANCH   1  18
ATOM     18  C   UNL     1      60.368 163.495  40.808  0.00  0.00    -0.007 C 
ATOM     19  C   UNL     1      59.347 162.693  41.197  0.00  0.00    +0.024 C 
ATOM     20  C   UNL     1      58.257 163.200  41.932  0.00  0.00    +0.069 C 
ATOM     21  C   UNL     1      58.180 164.506  42.279  0.00  0.00    +0.140 C 
ATOM     22  C   UNL     1      59.205 165.338  41.892  0.00  0.00    +0.037 C 
ATOM     23  C   UNL     1      60.272 164.848  41.175  0.00  0.00    +0.000 C 
ATOM     24 BR   UNL     1      56.822 162.058  42.480  0.00  0.00    -0.046 Br
BRANCH  19  25
ATOM     25  C   UNL     1      59.201 161.266  40.891  0.00  0.00    +0.085 C 
ATOM     26  N   UNL     1      59.608 160.290  41.680  0.00  0.00    -0.224 NA
ATOM     27  C   UNL     1      59.433 158.999  41.411  0.00  0.00    +0.199 C 
ATOM     28  N   UNL     1      58.812 158.646  40.277  0.00  0.00    -0.222 NA
ATOM     29  C   UNL     1      58.376 159.597  39.433  0.00  0.00    +0.102 C 
ATOM     30  C   UNL     1      58.551 160.937  39.701  0.00  0.00    +0.040 C 
ENDBRANCH  19  25
BRANCH  21  31
ATOM     31  O   UNL     1      57.084 164.993  43.013  0.00  0.00    -0.505 OA
ATOM     32  H   UNL     1      56.395 164.411  43.268  0.00  0.00    +0.292 HD
ENDBRANCH  21  31
ENDBRANCH   1  18
BRANCH   1  33
ATOM     33  N   UNL     1      62.100 161.848  40.755  0.00  0.00    -0.294 NA
ATOM     34  H   UNL     1      61.607 161.033  40.389  0.00  0.00    +0.124 HD
BRANCH  33  35
ATOM     35  C   UNL     1      63.482 161.531  40.696  0.00  0.00    +0.114 C 
ATOM     36  C   UNL     1      64.251 160.997  39.690  0.00  0.00    +0.143 C 
ATOM     37  C   UNL     1      65.366 161.046  40.481  0.00  0.00    +0.197 C 
ATOM     38  O   UNL     1      66.560 160.737  40.342  0.00  0.00    -0.292 OA
ATOM     39  C   UNL     1      64.604 161.579  41.489  0.00  0.00    +0.212 C 
ATOM     40  O   UNL     1      64.827 161.966  42.683  0.00  0.00    -0.215 OA
BRANCH  36  41
ATOM     41  N   UNL     1      63.985 160.561  38.340  0.00  0.00    -0.314 NA
ATOM     42  H   UNL     1      64.723 159.926  38.036  0.00  0.00    +0.119 HD
ATOM     43  H   UNL     1      63.957 161.371  37.720  0.00  0.00    +0.119 HD
ENDBRANCH  36  41
ENDBRANCH  33  35
ENDBRANCH   1  33
TORSDOF 6
