REMARK  Name = =
REMARK  6 active torsions:
REMARK  status: ('A' for Active; 'I' for Inactive)
REMARK    1  A    between atoms: P_1  and  O_3
REMARK    2  A    between atoms: P_1  and  O_4
REMARK    3  A    between atoms: O_4  and  N_5
REMARK    4  A    between atoms: C_6  and  O_8
REMARK    5  A    between atoms: O_8  and  C_9
REMARK    6  A    between atoms: O_17  and  O_24
REMARK                            x       y       z     vdW  Elec       q    Type
REMARK                         _______ _______ _______ _____ _____    ______ ____
ROOT
ATOM      1  N   UNL     1      -1.903  -6.270  31.436  0.00  0.00    -0.149 N 
ATOM      2  C   UNL     1      -2.770  -5.151  31.391  0.00  0.00    +0.429 C 
ATOM      3  O   UNL     1      -2.293  -4.049  30.974  0.00  0.00    -0.224 OA
ATOM      4  H   UNL     1      -2.256  -7.132  31.756  0.00  0.00    +0.186 HD
ENDROOT
BRANCH   1   5
ATOM      5  O   UNL     1      -0.606  -6.196  31.054  0.00  0.00    -0.172 OA
BRANCH   5   6
ATOM      6  P   UNL     1      -0.425  -6.559  29.428  0.00  0.00    +0.522 P 
ATOM      7  O   UNL     1      -1.764  -6.332  28.719  0.00  0.00    -0.115 OA
ATOM      8  O   UNL     1       0.755  -5.637  28.679  0.00  0.00    -0.223 OA
BRANCH   6   9
ATOM      9  O   UNL     1      -0.075  -8.199  29.270  0.00  0.00    -0.300 OA
ATOM     10  H   UNL     1       0.769  -8.393  29.706  0.00  0.00    +0.222 HD
ENDBRANCH   6   9
ENDBRANCH   5   6
ENDBRANCH   1   5
BRANCH   2  11
ATOM     11  O   UNL     1      -4.092  -5.168  31.763  0.00  0.00    -0.409 OA
BRANCH  11  12
ATOM     12  C   UNL     1      -4.827  -4.035  32.098  0.00  0.00    +0.150 C 
ATOM     13  C   UNL     1      -5.245  -3.171  31.100  0.00  0.00    +0.038 C 
ATOM     14  C   UNL     1      -5.975  -2.037  31.401  0.00  0.00    +0.003 C 
ATOM     15  C   UNL     1      -6.318  -1.721  32.699  0.00  0.00    +0.000 C 
ATOM     16  C   UNL     1      -5.903  -2.582  33.696  0.00  0.00    +0.003 C 
ATOM     17  C   UNL     1      -5.170  -3.718  33.397  0.00  0.00    +0.038 C 
ENDBRANCH  11  12
ENDBRANCH   2  11
TORSDOF 5
REMARK  Name = =
REMARK  6 active torsions:
REMARK  status: ('A' for Active; 'I' for Inactive)
REMARK    1  A    between atoms: P_1  and  O_3
REMARK    2  A    between atoms: P_1  and  O_4
REMARK    3  A    between atoms: O_4  and  N_5
REMARK    4  A    between atoms: C_6  and  O_8
REMARK    5  A    between atoms: O_8  and  C_9
REMARK    6  A    between atoms: O_17  and  O_24
REMARK                            x       y       z     vdW  Elec       q    Type
REMARK                         _______ _______ _______ _____ _____    ______ ____
ROOT
ATOM      1  P   UNL     1       1.561  -4.602  29.715  0.00  0.00    +0.000 P 
ENDROOT
TORSDOF 0
REMARK  Name = =
REMARK  6 active torsions:
REMARK  status: ('A' for Active; 'I' for Inactive)
REMARK    1  A    between atoms: P_1  and  O_3
REMARK    2  A    between atoms: P_1  and  O_4
REMARK    3  A    between atoms: O_4  and  N_5
REMARK    4  A    between atoms: C_6  and  O_8
REMARK    5  A    between atoms: O_8  and  C_9
REMARK    6  A    between atoms: O_17  and  O_24
REMARK                            x       y       z     vdW  Elec       q    Type
REMARK                         _______ _______ _______ _____ _____    ______ ____
ROOT
ATOM      1  O   UNL     1       0.569  -3.556  30.218  0.00  0.00    -0.253 OA
ATOM      2  H   UNL     1       0.610  -2.602  30.048  0.00  0.00    +0.253 HD
ENDROOT
BRANCH   1   3
ATOM      3  O   UNL     1       1.825  -3.998  31.264  0.00  0.00    -0.253 OA
ATOM      4  H   UNL     1       1.784  -4.952  31.434  0.00  0.00    +0.253 HD
ENDBRANCH   1   3
TORSDOF 1
REMARK  Name = =
REMARK  6 active torsions:
REMARK  status: ('A' for Active; 'I' for Inactive)
REMARK    1  A    between atoms: P_1  and  O_3
REMARK    2  A    between atoms: P_1  and  O_4
REMARK    3  A    between atoms: O_4  and  N_5
REMARK    4  A    between atoms: C_6  and  O_8
REMARK    5  A    between atoms: O_8  and  C_9
REMARK    6  A    between atoms: O_17  and  O_24
REMARK                            x       y       z     vdW  Elec       q    Type
REMARK                         _______ _______ _______ _____ _____    ______ ____
ROOT
ATOM      1  N   UNL     1       2.546  -3.625  28.656  0.00  0.00    -0.218 NA
ATOM      2  C   UNL     1       3.883  -4.165  28.501  0.00  0.00    +0.089 C 
ATOM      3  C   UNL     1       4.391  -3.545  27.198  0.00  0.00    +0.020 C 
ATOM      4  C   UNL     1       3.153  -3.174  26.415  0.00  0.00    +0.020 C 
ATOM      5  C   UNL     1       2.049  -3.667  27.303  0.00  0.00    +0.089 C 
ENDROOT
TORSDOF 0
REMARK  Name = =
REMARK  6 active torsions:
REMARK  status: ('A' for Active; 'I' for Inactive)
REMARK    1  A    between atoms: P_1  and  O_3
REMARK    2  A    between atoms: P_1  and  O_4
REMARK    3  A    between atoms: O_4  and  N_5
REMARK    4  A    between atoms: C_6  and  O_8
REMARK    5  A    between atoms: O_8  and  C_9
REMARK    6  A    between atoms: O_17  and  O_24
REMARK                            x       y       z     vdW  Elec       q    Type
REMARK                         _______ _______ _______ _____ _____    ______ ____
ROOT
ATOM      1  O   HOH     1       2.357  -6.114  29.818  0.00  0.00    -0.253 OA
ATOM      2  H   HOH     0       3.327  -6.114  29.818  0.00  0.00    +0.253 HD
ENDROOT
TORSDOF 0
