REMARK  Name = =
REMARK  10 active torsions:
REMARK  status: ('A' for Active; 'I' for Inactive)
REMARK    1  A    between atoms: P_1  and  O_3
REMARK    2  A    between atoms: P_1  and  O_4
REMARK    3  A    between atoms: O_4  and  N_5
REMARK    4  A    between atoms: N_5  and  C_8
REMARK    5  A    between atoms: C_6  and  O_16
REMARK    6  A    between atoms: C_9  and  C_10
REMARK    7  A    between atoms: O_16  and  C_17
REMARK    8  A    between atoms: O_25  and  N_26
REMARK    9  A    between atoms: C_27  and  N_31
REMARK   10  A    between atoms: N_31  and  O_32
REMARK                            x       y       z     vdW  Elec       q    Type
REMARK                         _______ _______ _______ _____ _____    ______ ____
ROOT
ATOM      1  N   UNL     1       0.135  -4.951  28.607  0.00  0.00    -0.103 N 
ATOM      2  C   UNL     1       0.709  -4.121  27.609  0.00  0.00    +0.437 C 
ATOM      3  O   UNL     1      -0.036  -3.518  26.773  0.00  0.00    -0.223 OA
ENDROOT
BRANCH   1   4
ATOM      4  C   UNL     1       0.963  -5.620  29.514  0.00  0.00    +0.101 C 
ATOM      5  C   UNL     1       1.505  -6.775  29.402  0.00  0.00    +0.019 C 
BRANCH   5   6
ATOM      6  C   UNL     1       1.444  -7.743  28.348  0.00  0.00    +0.001 C 
ATOM      7  C   UNL     1       0.334  -8.035  27.622  0.00  0.00    +0.000 C 
ATOM      8  C   UNL     1       0.322  -8.930  26.572  0.00  0.00    +0.000 C 
ATOM      9  C   UNL     1       1.490  -9.571  26.232  0.00  0.00    +0.000 C 
ATOM     10  C   UNL     1       2.626  -9.288  26.959  0.00  0.00    +0.000 C 
ATOM     11  C   UNL     1       2.639  -8.401  27.998  0.00  0.00    +0.000 C 
ENDBRANCH   5   6
ENDBRANCH   1   4
BRANCH   1  12
ATOM     12  O   UNL     1      -1.218  -5.070  28.646  0.00  0.00    -0.189 OA
BRANCH  12  13
ATOM     13  P   UNL     1      -1.853  -4.073  29.866  0.00  0.00    +0.383 P 
ATOM     14  O   UNL     1      -2.655  -2.990  29.141  0.00  0.00    -0.143 OA
BRANCH  13  15
ATOM     15  O   UNL     1      -0.587  -3.332  30.642  0.00  0.00    -0.325 OA
ATOM     16  H   UNL     1      -0.930  -2.757  31.344  0.00  0.00    +0.219 HD
ENDBRANCH  13  15
ENDBRANCH  12  13
ENDBRANCH   1  12
BRANCH   2  17
ATOM     17  O   UNL     1       2.063  -3.894  27.455  0.00  0.00    -0.409 OA
BRANCH  17  18
ATOM     18  C   UNL     1       2.558  -3.198  26.338  0.00  0.00    +0.150 C 
ATOM     19  C   UNL     1       2.608  -1.830  26.426  0.00  0.00    +0.038 C 
ATOM     20  C   UNL     1       3.078  -1.076  25.381  0.00  0.00    +0.003 C 
ATOM     21  C   UNL     1       3.502  -1.704  24.234  0.00  0.00    +0.000 C 
ATOM     22  C   UNL     1       3.463  -3.083  24.117  0.00  0.00    +0.003 C 
ATOM     23  C   UNL     1       2.984  -3.815  25.188  0.00  0.00    +0.038 C 
ENDBRANCH  17  18
ENDBRANCH   2  17
TORSDOF 7
REMARK  Name = =
REMARK  10 active torsions:
REMARK  status: ('A' for Active; 'I' for Inactive)
REMARK    1  A    between atoms: P_1  and  O_3
REMARK    2  A    between atoms: P_1  and  O_4
REMARK    3  A    between atoms: O_4  and  N_5
REMARK    4  A    between atoms: N_5  and  C_8
REMARK    5  A    between atoms: C_6  and  O_16
REMARK    6  A    between atoms: C_9  and  C_10
REMARK    7  A    between atoms: O_16  and  C_17
REMARK    8  A    between atoms: O_25  and  N_26
REMARK    9  A    between atoms: C_27  and  N_31
REMARK   10  A    between atoms: N_31  and  O_32
REMARK                            x       y       z     vdW  Elec       q    Type
REMARK                         _______ _______ _______ _____ _____    ______ ____
ROOT
ATOM      1  O   HOH     1      -2.839  -5.000  30.850  0.00  0.00    +0.000 OA
ENDROOT
TORSDOF 0
REMARK  Name = =
REMARK  10 active torsions:
REMARK  status: ('A' for Active; 'I' for Inactive)
REMARK    1  A    between atoms: P_1  and  O_3
REMARK    2  A    between atoms: P_1  and  O_4
REMARK    3  A    between atoms: O_4  and  N_5
REMARK    4  A    between atoms: N_5  and  C_8
REMARK    5  A    between atoms: C_6  and  O_16
REMARK    6  A    between atoms: C_9  and  C_10
REMARK    7  A    between atoms: O_16  and  C_17
REMARK    8  A    between atoms: O_25  and  N_26
REMARK    9  A    between atoms: C_27  and  N_31
REMARK   10  A    between atoms: N_31  and  O_32
REMARK                            x       y       z     vdW  Elec       q    Type
REMARK                         _______ _______ _______ _____ _____    ______ ____
ROOT
ATOM      1  P   UNL     1      -3.773  -4.180  31.939  0.00  0.00    +0.000 P 
ENDROOT
TORSDOF 0
REMARK  Name = =
REMARK  10 active torsions:
REMARK  status: ('A' for Active; 'I' for Inactive)
REMARK    1  A    between atoms: P_1  and  O_3
REMARK    2  A    between atoms: P_1  and  O_4
REMARK    3  A    between atoms: O_4  and  N_5
REMARK    4  A    between atoms: N_5  and  C_8
REMARK    5  A    between atoms: C_6  and  O_16
REMARK    6  A    between atoms: C_9  and  C_10
REMARK    7  A    between atoms: O_16  and  C_17
REMARK    8  A    between atoms: O_25  and  N_26
REMARK    9  A    between atoms: C_27  and  N_31
REMARK   10  A    between atoms: N_31  and  O_32
REMARK                            x       y       z     vdW  Elec       q    Type
REMARK                         _______ _______ _______ _____ _____    ______ ____
ROOT
ATOM      1  N   UNL     1      -5.315  -3.464  31.569  0.00  0.00    -0.154 NA
ATOM      2  C   UNL     1      -6.072  -3.421  32.776  0.00  0.00    +0.162 C 
ATOM      3  C   UNL     1      -7.040  -2.287  32.530  0.00  0.00    +0.038 C 
ATOM      4  C   UNL     1      -6.210  -1.276  31.821  0.00  0.00    +0.023 C 
ATOM      5  C   UNL     1      -5.204  -2.121  31.064  0.00  0.00    +0.102 C 
ENDROOT
BRANCH   1   6
ATOM      6  O   UNL     1      -4.666  -4.627  30.869  0.00  0.00    -0.310 OA
ATOM      7  H   UNL     1      -4.853  -5.444  31.358  0.00  0.00    +0.237 HD
ENDBRANCH   1   6
BRANCH   2   8
ATOM      8  N   UNL     1      -5.255  -3.211  33.945  0.00  0.00    -0.178 NA
ATOM      9  H   UNL     1      -4.426  -2.681  33.675  0.00  0.00    +0.156 HD
BRANCH   8  10
ATOM     10  O   UNL     1      -5.907  -2.535  34.906  0.00  0.00    -0.313 OA
ATOM     11  H   UNL     1      -6.698  -3.031  35.170  0.00  0.00    +0.236 HD
ENDBRANCH   8  10
ENDBRANCH   2   8
TORSDOF 3
REMARK  Name = =
REMARK  10 active torsions:
REMARK  status: ('A' for Active; 'I' for Inactive)
REMARK    1  A    between atoms: P_1  and  O_3
REMARK    2  A    between atoms: P_1  and  O_4
REMARK    3  A    between atoms: O_4  and  N_5
REMARK    4  A    between atoms: N_5  and  C_8
REMARK    5  A    between atoms: C_6  and  O_16
REMARK    6  A    between atoms: C_9  and  C_10
REMARK    7  A    between atoms: O_16  and  C_17
REMARK    8  A    between atoms: O_25  and  N_26
REMARK    9  A    between atoms: C_27  and  N_31
REMARK   10  A    between atoms: N_31  and  O_32
REMARK                            x       y       z     vdW  Elec       q    Type
REMARK                         _______ _______ _______ _____ _____    ______ ____
ROOT
ATOM      1  O   HOH     1      -4.080  -5.604  32.789  0.00  0.00    -0.253 OA
ATOM      2  H   HOH     0      -3.110  -5.604  32.789  0.00  0.00    +0.253 HD
ENDROOT
TORSDOF 0
REMARK  Name = =
REMARK  10 active torsions:
REMARK  status: ('A' for Active; 'I' for Inactive)
REMARK    1  A    between atoms: P_1  and  O_3
REMARK    2  A    between atoms: P_1  and  O_4
REMARK    3  A    between atoms: O_4  and  N_5
REMARK    4  A    between atoms: N_5  and  C_8
REMARK    5  A    between atoms: C_6  and  O_16
REMARK    6  A    between atoms: C_9  and  C_10
REMARK    7  A    between atoms: O_16  and  C_17
REMARK    8  A    between atoms: O_25  and  N_26
REMARK    9  A    between atoms: C_27  and  N_31
REMARK   10  A    between atoms: N_31  and  O_32
REMARK                            x       y       z     vdW  Elec       q    Type
REMARK                         _______ _______ _______ _____ _____    ______ ____
ROOT
ATOM      1  O   HOH     1      -2.790  -2.815  32.078  0.00  0.00    -0.253 OA
ATOM      2  H   HOH     0      -1.820  -2.815  32.078  0.00  0.00    +0.253 HD
ENDROOT
TORSDOF 0
