MODEL 1
REMARK VINA RESULT:    -8.655      0.000      0.000
REMARK INTER + INTRA:         -11.654
REMARK INTER:                 -12.196
REMARK INTRA:                   0.542
REMARK UNBOUND:                 0.542
REMARK  Name = =
REMARK  8 active torsions:
REMARK  status: ('A' for Active; 'I' for Inactive)
REMARK    1  A    between atoms: C_1  and  S_19
REMARK    2  A    between atoms: C_5  and  N_35
REMARK    3  A    between atoms: S_19  and  C_29
REMARK    4  A    between atoms: N_22  and  C_31
REMARK    5  A    between atoms: C_31  and  C_34
REMARK    6  A    between atoms: N_35  and  P_36
REMARK    7  A    between atoms: P_36  and  N_38
REMARK    8  A    between atoms: P_36  and  N_39
REMARK                            x       y       z     vdW  Elec       q    Type
REMARK                         _______ _______ _______ _____ _____    ______ ____
ROOT
ATOM      1  C   UNL     1       1.865  -4.672  27.237  0.00  0.00    +0.119 C 
ATOM      2  C   UNL     1       2.447  -3.966  28.384  0.00  0.00    +0.021 C 
ATOM      3  C   UNL     1       1.980  -2.629  28.729  0.00  0.00    +0.003 C 
ATOM      4  C   UNL     1       0.554  -2.324  28.501  0.00  0.00    +0.015 C 
ATOM      5  C   UNL     1      -0.150  -3.552  28.005  0.00  0.00    +0.063 C 
ATOM      6  C   UNL     1       0.554  -4.097  26.815  0.00  0.00    +0.039 C 
ATOM      7  C   UNL     1       0.472  -1.247  27.456  0.00  0.00    +0.001 C 
ATOM      8  C   UNL     1       1.894  -0.892  27.082  0.00  0.00    +0.000 C 
ATOM      9  C   UNL     1       2.765  -1.466  28.174  0.00  0.00    +0.000 C 
ATOM     10  C   UNL     1       3.793  -4.380  28.828  0.00  0.00    +0.002 C 
ATOM     11  C   UNL     1       4.761  -4.736  27.745  0.00  0.00    +0.001 C 
ATOM     12  C   UNL     1       4.148  -5.184  26.499  0.00  0.00    +0.009 C 
ATOM     13  C   UNL     1       4.710  -6.098  25.727  0.00  0.00    +0.065 C 
ATOM     14  C   UNL     1       3.947  -6.428  24.500  0.00  0.00    +0.151 C 
ATOM     15  O   UNL     1       3.896  -7.577  24.109  0.00  0.00    -0.296 OA
ATOM     16  C   UNL     1       3.260  -5.319  23.779  0.00  0.00    +0.065 C 
ATOM     17  C   UNL     1       2.453  -4.480  24.761  0.00  0.00    +0.009 C 
ATOM     18  C   UNL     1       2.859  -4.622  26.125  0.00  0.00    +0.022 C 
ENDROOT
BRANCH   1  19
ATOM     19  S   UNL     1       1.629  -6.419  27.588  0.00  0.00    +0.037 S 
ATOM     20  O   UNL     1       0.809  -7.054  26.483  0.00  0.00    -0.166 OA
ATOM     21  O   UNL     1       2.958  -7.121  27.564  0.00  0.00    -0.166 OA
BRANCH  19  29
ATOM     22  N   UNL     1      -1.078  -7.185  32.728  0.00  0.00    -0.254 N 
ATOM     23  C   UNL     1       0.040  -7.146  33.515  0.00  0.00    +0.226 C 
ATOM     24  N   UNL     1       1.100  -6.980  32.753  0.00  0.00    -0.231 NA
ATOM     25  C   UNL     1       0.733  -6.900  31.431  0.00  0.00    +0.167 C 
ATOM     26  C   UNL     1      -0.659  -7.034  31.463  0.00  0.00    +0.106 C 
ATOM     27  C   UNL     1      -1.242  -6.982  30.241  0.00  0.00    +0.119 C 
ATOM     28  N   UNL     1      -0.606  -6.815  29.074  0.00  0.00    -0.210 NA
ATOM     29  C   UNL     1       0.757  -6.681  29.066  0.00  0.00    +0.263 C 
ATOM     30  N   UNL     1       1.360  -6.736  30.291  0.00  0.00    -0.159 NA
BRANCH  22  31
ATOM     31  C   UNL     1      -2.393  -7.380  33.179  0.00  0.00    +0.123 C 
ATOM     32  C   UNL     1      -2.934  -8.556  33.360  0.00  0.00    +0.027 C 
BRANCH  31  34
ATOM     33  N   UNL     1      -3.846  -5.243  33.749  0.00  0.00    -0.190 NA
ATOM     34  C   UNL     1      -3.204  -6.188  33.504  0.00  0.00    +0.116 C 
ENDBRANCH  31  34
ENDBRANCH  22  31
ENDBRANCH  19  29
ENDBRANCH   1  19
BRANCH   5  35
ATOM     35  N   UNL     1      -1.545  -3.225  27.743  0.00  0.00    -0.234 NA
ATOM     36  H   UNL     1      -1.968  -3.924  27.133  0.00  0.00    +0.132 HD
BRANCH  35  37
ATOM     37  P   UNL     1      -2.321  -3.236  29.335  0.00  0.00    +0.277 P 
ATOM     38  O   UNL     1      -2.817  -1.869  29.658  0.00  0.00    -0.270 OA
BRANCH  37  39
ATOM     39  N   UNL     1      -1.214  -3.767  30.563  0.00  0.00    -0.257 NA
ATOM     40  H   UNL     1      -0.887  -2.961  31.097  0.00  0.00    +0.128 HD
ATOM     41  H   UNL     1      -0.419  -4.231  30.125  0.00  0.00    +0.128 HD
ENDBRANCH  37  39
BRANCH  37  42
ATOM     42  N   UNL     1      -3.673  -4.354  29.337  0.00  0.00    -0.257 NA
ATOM     43  H   UNL     1      -4.314  -4.111  30.092  0.00  0.00    +0.128 HD
ATOM     44  H   UNL     1      -3.328  -5.304  29.476  0.00  0.00    +0.128 HD
ENDBRANCH  37  42
ENDBRANCH  35  37
ENDBRANCH   5  35
TORSDOF 8
ENDMDL
