REMARK  Name = =
REMARK  11 active torsions:
REMARK  status: ('A' for Active; 'I' for Inactive)
REMARK    1  A    between atoms: N_1  and  C_8
REMARK    2  A    between atoms: C_3  and  O_20
REMARK    3  A    between atoms: S_7  and  N_14
REMARK    4  A    between atoms: O_20  and  C_21
REMARK    5  A    between atoms: C_22  and  C_29
REMARK    6  A    between atoms: C_24  and  C_27
REMARK    7  A    between atoms: C_29  and  S_33
REMARK    8  A    between atoms: C_30  and  C_31
REMARK    9  A    between atoms: S_33  and  P_34
REMARK   10  A    between atoms: P_34  and  O_36
REMARK   11  A    between atoms: P_34  and  O_37
REMARK                            x       y       z     vdW  Elec       q    Type
REMARK                         _______ _______ _______ _____ _____    ______ ____
ROOT
ATOM      1  N   UNL     1     -20.329 -41.965  25.097  0.00  0.00    -0.163 N 
ATOM      2  N   UNL     1     -21.393 -41.299  24.711  0.00  0.00    -0.090 NA
ATOM      3  C   UNL     1     -21.142 -40.508  23.657  0.00  0.00    +0.422 A 
ATOM      4  O   UNL     1     -19.836 -40.720  23.401  0.00  0.00    -0.358 OA
ATOM      5  C   UNL     1     -19.359 -41.581  24.253  0.00  0.00    +0.442 A 
ATOM      6  O   UNL     1     -18.143 -41.956  24.230  0.00  0.00    -0.221 OA
ENDROOT
BRANCH   1   8
ATOM      7  S   UNL     1     -21.813 -43.650  26.505  0.00  0.00    -0.081 S 
ATOM      8  C   UNL     1     -20.157 -42.908  26.168  0.00  0.00    +0.235 C 
ATOM      9  C   UNL     1     -19.994 -42.250  27.469  0.00  0.00    +0.262 C 
ATOM     10  O   UNL     1     -19.657 -41.036  27.591  0.00  0.00    -0.272 OA
ATOM     11  N   UNL     1     -20.253 -43.120  28.542  0.00  0.00    -0.245 N 
ATOM     12  C   UNL     1     -21.339 -43.966  28.331  0.00  0.00    +0.273 C 
ATOM     13  O   UNL     1     -21.975 -44.777  29.005  0.00  0.00    -0.263 OA
ATOM     14  H   UNL     1     -22.254 -44.665  25.715  0.00  0.00    +0.109 HD
ATOM     15  H   UNL     1     -19.716 -43.130  29.367  0.00  0.00    +0.158 HD
BRANCH   7  16
ATOM     16  N   UNL     1     -23.133 -42.549  26.347  0.00  0.00    -0.235 NA
ATOM     17  C   UNL     1     -23.655 -42.176  27.650  0.00  0.00    +0.099 C 
ATOM     18  C   UNL     1     -24.455 -43.355  28.169  0.00  0.00    +0.087 C 
ATOM     19  N   UNL     1     -25.736 -43.326  27.508  0.00  0.00    -0.295 NA
ATOM     20  C   UNL     1     -25.566 -42.795  26.189  0.00  0.00    +0.087 C 
ATOM     21  C   UNL     1     -24.209 -43.106  25.590  0.00  0.00    +0.099 C 
ATOM     22  H   UNL     1     -26.380 -42.735  28.035  0.00  0.00    +0.123 HD
ENDBRANCH   7  16
ENDBRANCH   1   8
BRANCH   3  23
ATOM     23  O   UNL     1     -21.934 -39.650  22.932  0.00  0.00    -0.408 OA
BRANCH  23  24
ATOM     24  C   UNL     1     -23.300 -39.579  22.944  0.00  0.00    +0.151 C 
ATOM     25  C   UNL     1     -23.981 -39.217  21.755  0.00  0.00    +0.041 C 
ATOM     26  C   UNL     1     -25.339 -39.135  21.728  0.00  0.00    +0.004 C 
ATOM     27  C   UNL     1     -26.106 -39.409  22.880  0.00  0.00    +0.000 C 
ATOM     28  C   UNL     1     -25.466 -39.762  24.044  0.00  0.00    +0.003 C 
ATOM     29  C   UNL     1     -24.087 -39.837  24.042  0.00  0.00    +0.038 C 
BRANCH  27  30
ATOM     30  C   UNL     1     -27.547 -39.328  22.875  0.00  0.00    +0.000 C 
ATOM     31  C   UNL     1     -28.296 -39.156  21.805  0.00  0.00    +0.000 C 
ENDBRANCH  27  30
BRANCH  25  32
ATOM     32  C   UNL     1     -23.168 -38.936  20.566  0.00  0.00    +0.042 C 
ATOM     33  C   UNL     1     -23.572 -38.105  19.667  0.00  0.00    +0.052 C 
BRANCH  33  34
ATOM     34  C   UNL     1     -22.937 -37.705  18.439  0.00  0.00    +0.235 C 
ATOM     35  O   UNL     1     -21.891 -38.122  17.935  0.00  0.00    -0.283 OA
ENDBRANCH  33  34
BRANCH  32  36
ATOM     36  S   UNL     1     -21.618 -39.799  20.390  0.00  0.00    -0.004 S 
BRANCH  36  37
ATOM     37  P   UNL     1     -19.932 -38.595  20.354  0.00  0.00    +0.391 P 
ATOM     38  O   UNL     1     -18.967 -39.000  19.262  0.00  0.00    -0.246 OA
BRANCH  37  39
ATOM     39  O   UNL     1     -19.067 -38.895  21.812  0.00  0.00    -0.316 OA
ATOM     40  H   UNL     1     -18.859 -39.840  21.876  0.00  0.00    +0.221 HD
ENDBRANCH  37  39
BRANCH  37  41
ATOM     41  O   UNL     1     -20.246 -36.938  20.331  0.00  0.00    -0.316 OA
ATOM     42  H   UNL     1     -20.867 -36.717  21.043  0.00  0.00    +0.221 HD
ENDBRANCH  37  41
ENDBRANCH  36  37
ENDBRANCH  32  36
ENDBRANCH  25  32
ENDBRANCH  23  24
ENDBRANCH   3  23
TORSDOF 11
