MODEL 1
REMARK VINA RESULT:    -9.684      0.000      0.000
REMARK INTER + INTRA:         -16.544
REMARK INTER:                 -14.213
REMARK INTRA:                  -2.331
REMARK UNBOUND:                -2.331
REMARK  Name = =
REMARK  9 active torsions:
REMARK  status: ('A' for Active; 'I' for Inactive)
REMARK    1  A    between atoms: C_1  and  C_19
REMARK    2  A    between atoms: C_2  and  N_41
REMARK    3  A    between atoms: C_3  and  N_6
REMARK    4  A    between atoms: C_18  and  N_35
REMARK    5  A    between atoms: C_26  and  N_39
REMARK    6  A    between atoms: C_27  and  C_30
REMARK    7  A    between atoms: N_39  and  O_40
REMARK    8  A    between atoms: N_41  and  S_42
REMARK    9  A    between atoms: S_42  and  N_45
REMARK                            x       y       z     vdW  Elec       q    Type
REMARK                         _______ _______ _______ _____ _____    ______ ____
ROOT
ATOM      1  C   UNL     1       0.520  -5.508  28.340  0.00  0.00    +0.002 C 
ATOM      2  C   UNL     1       0.137  -5.362  29.563  0.00  0.00    +0.076 C 
ATOM      3  C   UNL     1      -1.134  -6.112  29.817  0.00  0.00    +0.063 C 
ATOM      4  C   UNL     1      -1.472  -6.713  28.722  0.00  0.00    -0.005 C 
ATOM      5  C   UNL     1      -0.464  -6.434  27.648  0.00  0.00    +0.055 C 
ENDROOT
BRANCH   3   6
ATOM      6  N   UNL     1      -1.874  -6.140  31.021  0.00  0.00    -0.274 N 
ATOM      7  C   UNL     1      -1.615  -7.108  32.094  0.00  0.00    +0.139 C 
ATOM      8  N   UNL     1      -2.169  -8.383  31.609  0.00  0.00    -0.282 NA
ATOM      9  C   UNL     1      -2.658  -9.027  32.816  0.00  0.00    +0.070 C 
ATOM     10  C   UNL     1      -3.345  -7.902  33.523  0.00  0.00    +0.025 C 
ATOM     11  C   UNL     1      -2.514  -6.698  33.234  0.00  0.00    +0.059 C 
ATOM     12  C   UNL     1      -3.357  -5.610  32.670  0.00  0.00    -0.006 C 
ATOM     13  C   UNL     1      -2.971  -5.301  31.390  0.00  0.00    +0.049 C 
ATOM     14  C   UNL     1      -3.612  -4.314  30.662  0.00  0.00    +0.015 C 
ATOM     15  C   UNL     1      -4.658  -3.637  31.247  0.00  0.00    +0.001 C 
ATOM     16  C   UNL     1      -5.035  -3.956  32.524  0.00  0.00    -0.000 C 
ATOM     17  C   UNL     1      -4.413  -4.938  33.279  0.00  0.00    -0.003 C 
ATOM     18  H   UNL     1      -1.446  -8.947  31.162  0.00  0.00    +0.125 HD
ENDBRANCH   3   6
BRANCH   1  20
ATOM     19  C   UNL     1       1.708  -3.780  27.123  0.00  0.00    +0.090 C 
ATOM     20  C   UNL     1       1.668  -5.004  27.588  0.00  0.00    +0.053 C 
ATOM     21  C   UNL     1       2.808  -5.855  27.273  0.00  0.00    +0.197 C 
ATOM     22  O   UNL     1       2.891  -7.030  27.655  0.00  0.00    -0.287 OA
ATOM     23  C   UNL     1       3.994  -5.428  26.472  0.00  0.00    +0.044 C 
ATOM     24  C   UNL     1       3.990  -4.142  26.016  0.00  0.00    +0.043 C 
ATOM     25  C   UNL     1       5.085  -3.638  25.301  0.00  0.00    +0.005 C 
ATOM     26  C   UNL     1       6.157  -4.428  25.059  0.00  0.00    +0.019 C 
ATOM     27  C   UNL     1       6.149  -5.712  25.515  0.00  0.00    +0.078 C 
ATOM     28  C   UNL     1       5.063  -6.234  26.232  0.00  0.00    +0.027 C 
ATOM     29  C   UNL     1       2.876  -3.299  26.315  0.00  0.00    +0.209 C 
ATOM     30  O   UNL     1       2.905  -2.119  25.876  0.00  0.00    -0.285 OA
BRANCH  28  31
ATOM     31  C   UNL     1       5.102  -7.664  26.537  0.00  0.00    +0.031 C 
ATOM     32  S   UNL     1       4.411  -9.023  25.528  0.00  0.00    -0.086 S 
ATOM     33  C   UNL     1       4.845 -10.314  26.628  0.00  0.00    +0.035 C 
ATOM     34  C   UNL     1       5.457  -9.689  27.653  0.00  0.00    +0.007 C 
ATOM     35  C   UNL     1       5.594  -8.363  27.624  0.00  0.00    +0.007 C 
ENDBRANCH  28  31
BRANCH  19  36
ATOM     36  N   UNL     1       0.784  -2.725  27.255  0.00  0.00    -0.305 N 
ATOM     37  C   UNL     1      -0.214  -2.003  26.558  0.00  0.00    +0.093 C 
ATOM     38  C   UNL     1      -0.562  -1.202  27.827  0.00  0.00    +0.043 C 
ATOM     39  C   UNL     1       0.708  -1.745  28.384  0.00  0.00    +0.093 C 
ENDBRANCH  19  36
BRANCH  27  40
ATOM     40  N   UNL     1       7.283  -6.520  25.200  0.00  0.00    -0.267 N 
ATOM     41  H   UNL     1       7.165  -7.490  25.081  0.00  0.00    +0.194 HD
BRANCH  40  42
ATOM     42  O   UNL     1       8.521  -5.979  25.061  0.00  0.00    -0.289 OA
ATOM     43  H   UNL     1       8.458  -5.013  25.110  0.00  0.00    +0.244 HD
ENDBRANCH  40  42
ENDBRANCH  27  40
ENDBRANCH   1  20
BRANCH   2  44
ATOM     44  N   UNL     1       0.688  -4.653  30.647  0.00  0.00    -0.205 N 
ATOM     45  H   UNL     1       0.281  -3.798  30.914  0.00  0.00    +0.175 HD
BRANCH  44  46
ATOM     46  S   UNL     1       2.072  -5.245  31.532  0.00  0.00    +0.107 S 
ATOM     47  O   UNL     1       3.291  -4.999  30.648  0.00  0.00    -0.138 OA
ATOM     48  O   UNL     1       1.946  -6.668  31.900  0.00  0.00    -0.138 OA
BRANCH  46  49
ATOM     49  N   UNL     1       2.345  -4.245  32.922  0.00  0.00    -0.191 NA
ATOM     50  H   UNL     1       3.229  -4.503  33.359  0.00  0.00    +0.146 HD
ATOM     51  H   UNL     1       1.584  -4.376  33.589  0.00  0.00    +0.146 HD
ENDBRANCH  46  49
ENDBRANCH  44  46
ENDBRANCH   2  44
TORSDOF 9
ENDMDL
