REMARK  Name = =
REMARK  0 active torsions:
REMARK  status: ('A' for Active; 'I' for Inactive)
REMARK                            x       y       z     vdW  Elec       q    Type
REMARK                         _______ _______ _______ _____ _____    ______ ____
ROOT
ATOM      1  C   UNL     1      51.258 155.617  28.781  0.00  0.00    +0.135 C 
ATOM      2  C   UNL     1      52.125 156.634  28.401  0.00  0.00    +0.012 C 
ATOM      3  C   UNL     1      53.130 156.312  27.376  0.00  0.00    +0.033 C 
ATOM      4  C   UNL     1      52.651 155.375  26.317  0.00  0.00    +0.052 C 
ATOM      5  C   UNL     1      51.728 154.309  26.784  0.00  0.00    +0.206 C 
ATOM      6  O   UNL     1      51.411 154.401  28.170  0.00  0.00    -0.476 OA
ATOM      7  C   UNL     1      52.063 157.904  28.953  0.00  0.00    -0.001 C 
ATOM      8  C   UNL     1      51.105 158.183  29.920  0.00  0.00    -0.000 C 
ATOM      9  C   UNL     1      50.249 157.170  30.292  0.00  0.00    +0.003 C 
ATOM     10  C   UNL     1      50.315 155.909  29.741  0.00  0.00    +0.037 C 
ENDROOT
TORSDOF 0
