REMARK  Name = =
REMARK  1 active torsions:
REMARK  status: ('A' for Active; 'I' for Inactive)
REMARK    1  A    between atoms: C_10  and  C_11
REMARK                            x       y       z     vdW  Elec       q    Type
REMARK                         _______ _______ _______ _____ _____    ______ ____
ROOT
ATOM      1  C   UNL     1      51.707 155.775  28.129  0.00  0.00    +0.138 C 
ATOM      2  C   UNL     1      52.807 155.920  27.311  0.00  0.00    +0.012 C 
ATOM      3  C   UNL     1      53.112 154.844  26.341  0.00  0.00    +0.033 C 
ATOM      4  C   UNL     1      52.909 153.532  27.016  0.00  0.00    +0.052 C 
ATOM      5  C   UNL     1      51.608 153.386  27.710  0.00  0.00    +0.206 C 
ATOM      6  O   UNL     1      50.943 154.603  27.985  0.00  0.00    -0.476 OA
ATOM      7  C   UNL     1      53.568 157.059  27.436  0.00  0.00    -0.001 C 
ATOM      8  C   UNL     1      53.243 158.035  28.352  0.00  0.00    +0.000 C 
ATOM      9  C   UNL     1      52.139 157.870  29.160  0.00  0.00    +0.007 C 
ATOM     10  C   UNL     1      51.357 156.739  29.058  0.00  0.00    +0.084 C 
ENDROOT
BRANCH  10  11
ATOM     11  C   UNL     1      50.175 156.542  29.905  0.00  0.00    +0.256 C 
ATOM     12  O   UNL     1      49.668 157.561  30.448  0.00  0.00    -0.274 OA
ATOM     13 CL   UNL     1      49.489 154.960  30.155  0.00  0.00    -0.038 Cl
ENDBRANCH  10  11
TORSDOF 1
