REMARK  Name = =
REMARK  4 active torsions:
REMARK  status: ('A' for Active; 'I' for Inactive)
REMARK    1  A    between atoms: C_3  and  O_14
REMARK    2  A    between atoms: C_10  and  C_11
REMARK    3  A    between atoms: O_14  and  C_15
REMARK    4  A    between atoms: C_15  and  C_16
REMARK                            x       y       z     vdW  Elec       q    Type
REMARK                         _______ _______ _______ _____ _____    ______ ____
ROOT
ATOM      1  C   UNL     1      51.444 155.860  28.454  0.00  0.00    +0.141 C 
ATOM      2  C   UNL     1      52.654 155.855  27.752  0.00  0.00    +0.039 C 
ATOM      3  C   UNL     1      52.924 154.631  26.976  0.00  0.00    +0.144 C 
ATOM      4  C   UNL     1      52.760 153.471  27.953  0.00  0.00    +0.082 C 
ATOM      5  C   UNL     1      51.312 153.420  28.394  0.00  0.00    +0.208 C 
ATOM      6  O   UNL     1      50.695 154.701  28.312  0.00  0.00    -0.475 OA
ATOM      7  C   UNL     1      53.470 156.948  27.827  0.00  0.00    +0.001 C 
ATOM      8  C   UNL     1      53.092 158.027  28.586  0.00  0.00    +0.000 C 
ATOM      9  C   UNL     1      51.896 158.024  29.274  0.00  0.00    +0.007 C 
ATOM     10  C   UNL     1      51.057 156.924  29.209  0.00  0.00    +0.084 C 
ENDROOT
BRANCH  10  11
ATOM     11  C   UNL     1      49.784 156.890  29.922  0.00  0.00    +0.256 C 
ATOM     12  O   UNL     1      49.056 155.857  29.929  0.00  0.00    -0.274 OA
ATOM     13 CL   UNL     1      49.296 158.340  30.773  0.00  0.00    -0.038 Cl
ENDBRANCH  10  11
BRANCH   3  14
ATOM     14  O   UNL     1      54.098 154.691  26.356  0.00  0.00    -0.352 OA
BRANCH  14  15
ATOM     15  C   UNL     1      54.186 154.579  25.023  0.00  0.00    +0.143 C 
BRANCH  15  16
ATOM     16  C   UNL     1      53.821 155.841  24.300  0.00  0.00    +0.032 C 
ATOM     17  C   UNL     1      54.886 156.896  24.452  0.00  0.00    +0.003 C 
ENDBRANCH  15  16
ENDBRANCH  14  15
ENDBRANCH   3  14
TORSDOF 4
