REMARK  Name = =
REMARK  5 active torsions:
REMARK  status: ('A' for Active; 'I' for Inactive)
REMARK    1  A    between atoms: C_3  and  O_15
REMARK    2  A    between atoms: C_5  and  S_14
REMARK    3  A    between atoms: C_10  and  C_11
REMARK    4  A    between atoms: O_15  and  C_16
REMARK    5  A    between atoms: C_16  and  C_17
REMARK                            x       y       z     vdW  Elec       q    Type
REMARK                         _______ _______ _______ _____ _____    ______ ____
ROOT
ATOM      1  C   UNL     1      53.691 154.511  25.803  0.00  0.00    +0.142 C 
ATOM      2  C   UNL     1      52.824 154.177  26.828  0.00  0.00    +0.039 C 
ATOM      3  C   UNL     1      52.546 152.714  27.013  0.00  0.00    +0.145 C 
ATOM      4  C   UNL     1      52.225 152.171  25.637  0.00  0.00    +0.089 C 
ATOM      5  C   UNL     1      53.449 152.278  24.777  0.00  0.00    +0.213 C 
ATOM      6  O   UNL     1      54.209 153.439  25.053  0.00  0.00    -0.469 OA
ATOM      7  C   UNL     1      52.259 155.142  27.624  0.00  0.00    +0.001 C 
ATOM      8  C   UNL     1      52.576 156.470  27.378  0.00  0.00    +0.000 C 
ATOM      9  C   UNL     1      53.444 156.783  26.349  0.00  0.00    +0.007 C 
ATOM     10  C   UNL     1      54.017 155.805  25.541  0.00  0.00    +0.084 C 
ENDROOT
BRANCH  10  11
ATOM     11  C   UNL     1      54.923 156.131  24.468  0.00  0.00    +0.256 C 
ATOM     12  O   UNL     1      55.565 155.233  23.894  0.00  0.00    -0.274 OA
ATOM     13 CL   UNL     1      55.119 157.785  23.972  0.00  0.00    -0.038 Cl
ENDBRANCH  10  11
BRANCH   5  14
ATOM     14  S   UNL     1      54.499 150.790  24.913  0.00  0.00    -0.126 S 
ATOM     15  H   UNL     1      55.593 150.933  24.118  0.00  0.00    +0.106 HD
ENDBRANCH   5  14
BRANCH   3  16
ATOM     16  O   UNL     1      51.571 152.477  27.934  0.00  0.00    -0.352 OA
BRANCH  16  17
ATOM     17  C   UNL     1      51.807 151.486  28.850  0.00  0.00    +0.143 C 
BRANCH  17  18
ATOM     18  C   UNL     1      50.872 150.319  28.691  0.00  0.00    +0.032 C 
ATOM     19  C   UNL     1      50.000 150.147  29.933  0.00  0.00    +0.003 C 
ENDBRANCH  17  18
ENDBRANCH  16  17
ENDBRANCH   3  16
TORSDOF 5
