REMARK  Name = =
REMARK  0 active torsions:
REMARK  status: ('A' for Active; 'I' for Inactive)
REMARK                            x       y       z     vdW  Elec       q    Type
REMARK                         _______ _______ _______ _____ _____    ______ ____
ROOT
ATOM      1  C   UNL     1     -14.122 -43.381  27.827  0.00  0.00    +0.145 C 
ATOM      2  O   UNL     1     -13.464 -43.057  26.644  0.00  0.00    -0.351 OA
ATOM      3  C   UNL     1     -12.469 -42.123  27.001  0.00  0.00    +0.174 C 
ATOM      4  C   UNL     1     -11.429 -42.871  27.775  0.00  0.00    +0.174 C 
ATOM      5  O   UNL     1     -10.254 -42.157  27.910  0.00  0.00    -0.326 OA
ATOM      6  C   UNL     1      -9.459 -42.726  28.901  0.00  0.00    +0.264 C 
ATOM      7  O   UNL     1      -9.569 -41.974  30.034  0.00  0.00    -0.321 OA
ATOM      8  C   UNL     1      -9.415 -42.657  31.216  0.00  0.00    +0.209 C 
ATOM      9  C   UNL     1      -8.523 -43.825  31.126  0.00  0.00    +0.183 C 
ATOM     10  O   UNL     1      -7.653 -44.051  31.948  0.00  0.00    -0.293 OA
ATOM     11  C   UNL     1      -8.690 -44.760  29.992  0.00  0.00    +0.102 C 
ATOM     12  C   UNL     1      -9.746 -44.185  29.077  0.00  0.00    +0.179 C 
ATOM     13  O   UNL     1     -11.021 -44.319  29.603  0.00  0.00    -0.350 OA
ATOM     14  C   UNL     1     -11.935 -43.461  29.054  0.00  0.00    +0.147 C 
ATOM     15  C   UNL     1     -13.237 -44.170  28.763  0.00  0.00    +0.064 C 
ENDROOT
TORSDOF 0
