REMARK  Name = =
REMARK  1 active torsions:
REMARK  status: ('A' for Active; 'I' for Inactive)
REMARK    1  A    between atoms: C_12  and  O_19
REMARK                            x       y       z     vdW  Elec       q    Type
REMARK                         _______ _______ _______ _____ _____    ______ ____
ROOT
ATOM      1  N   UNL     1     -13.224 -44.772  26.908  0.00  0.00    -0.298 NA
ATOM      2  C   UNL     1     -13.261 -43.909  28.051  0.00  0.00    +0.063 C 
ATOM      3  C   UNL     1     -12.927 -44.643  29.296  0.00  0.00    +0.044 C 
ATOM      4  C   UNL     1     -11.488 -45.013  29.210  0.00  0.00    +0.065 C 
ATOM      5  C   UNL     1     -10.834 -45.567  30.427  0.00  0.00    +0.174 C 
ATOM      6  O   UNL     1      -9.431 -45.208  30.206  0.00  0.00    -0.476 OA
ATOM      7  C   UNL     1      -9.462 -43.938  29.572  0.00  0.00    +0.168 C 
ATOM      8  C   UNL     1     -10.679 -43.786  28.985  0.00  0.00    +0.014 C 
ATOM      9  C   UNL     1     -11.112 -42.709  28.284  0.00  0.00    -0.022 C 
ATOM     10  C   UNL     1     -10.199 -41.669  28.164  0.00  0.00    -0.001 C 
ATOM     11  C   UNL     1      -8.936 -41.737  28.728  0.00  0.00    +0.039 C 
ATOM     12  C   UNL     1      -8.583 -42.885  29.432  0.00  0.00    +0.167 C 
ATOM     13  C   UNL     1     -12.489 -42.669  27.733  0.00  0.00    +0.042 C 
ATOM     14  C   UNL     1     -11.346 -45.042  31.718  0.00  0.00    +0.070 C 
ATOM     15  C   UNL     1     -12.584 -44.239  31.639  0.00  0.00    -0.027 C 
ATOM     16  C   UNL     1     -13.318 -44.044  30.557  0.00  0.00    -0.029 C 
ATOM     17  C   UNL     1     -11.332 -45.909  28.018  0.00  0.00    +0.025 C 
ATOM     18  C   UNL     1     -12.449 -45.958  27.062  0.00  0.00    +0.069 C 
ATOM     19  H   UNL     1     -14.182 -45.048  26.691  0.00  0.00    +0.123 HD
ENDROOT
BRANCH  12  20
ATOM     20  O   UNL     1      -7.329 -42.979  30.005  0.00  0.00    -0.503 OA
ATOM     21  H   UNL     1      -6.720 -42.272  29.919  0.00  0.00    +0.292 HD
ENDBRANCH  12  20
TORSDOF 1
