REMARK  Name = =
REMARK  1 active torsions:
REMARK  status: ('A' for Active; 'I' for Inactive)
REMARK    1  A    between atoms: N_11  and  O_12
REMARK                            x       y       z     vdW  Elec       q    Type
REMARK                         _______ _______ _______ _____ _____    ______ ____
ROOT
ATOM      1  C   UNL     1     -13.214 -44.475  27.469  0.00  0.00    +0.018 C 
ATOM      2  C   UNL     1     -13.903 -43.923  28.529  0.00  0.00    +0.083 C 
ATOM      3  C   UNL     1     -13.501 -44.282  29.811  0.00  0.00    +0.019 C 
ATOM      4  C   UNL     1     -12.448 -45.159  29.960  0.00  0.00    +0.002 C 
ATOM      5  C   UNL     1     -11.758 -45.711  28.909  0.00  0.00    +0.000 C 
ATOM      6  C   UNL     1     -12.158 -45.355  27.638  0.00  0.00    +0.001 C 
ATOM      7  N   UNL     1     -14.939 -43.060  28.356  0.00  0.00    -0.227 NA
ATOM      8  C   UNL     1     -15.358 -42.688  27.134  0.00  0.00    +0.159 C 
ATOM      9  C   UNL     1     -14.690 -43.223  26.044  0.00  0.00    +0.039 C 
ATOM     10  C   UNL     1     -13.638 -44.100  26.197  0.00  0.00    +0.005 C 
ATOM     11  N   UNL     1     -16.441 -41.786  26.993  0.00  0.00    -0.251 N 
ATOM     12  H   UNL     1     -16.244 -40.822  26.960  0.00  0.00    +0.196 HD
ENDROOT
BRANCH  11  13
ATOM     13  O   UNL     1     -17.724 -42.179  26.902  0.00  0.00    -0.288 OA
ATOM     14  H   UNL     1     -17.770 -43.147  26.948  0.00  0.00    +0.244 HD
ENDBRANCH  11  13
TORSDOF 1
