REMARK  Name = =
REMARK  7 active torsions:
REMARK  status: ('A' for Active; 'I' for Inactive)
REMARK    1  A    between atoms: N_1  and  C_16
REMARK    2  A    between atoms: N_1  and  N_30
REMARK    3  A    between atoms: N_4  and  N_5
REMARK    4  A    between atoms: N_7  and  N_9
REMARK    5  A    between atoms: N_8  and  S_13
REMARK    6  A    between atoms: C_16  and  N_28
REMARK    7  A    between atoms: N_28  and  O_29
REMARK                            x       y       z     vdW  Elec       q    Type
REMARK                         _______ _______ _______ _____ _____    ______ ____
ROOT
ATOM      1  N   UNL     1     -15.864 -41.837  25.273  0.00  0.00    -0.142 N 
ATOM      2  C   UNL     1     -14.661 -42.306  25.881  0.00  0.00    +0.339 C 
ATOM      3  O   UNL     1     -13.645 -42.595  25.167  0.00  0.00    -0.249 OA
ATOM      4  N   UNL     1     -14.491 -42.485  27.277  0.00  0.00    -0.210 N 
ATOM      5  H   UNL     1     -15.240 -42.281  27.883  0.00  0.00    +0.177 HD
ENDROOT
BRANCH   4   6
ATOM      6  N   UNL     1     -13.280 -42.947  27.815  0.00  0.00    -0.271 N 
ATOM      7  C   UNL     1     -13.113 -43.196  29.225  0.00  0.00    +0.250 C 
ATOM      8  N   UNL     1     -14.129 -43.383  29.917  0.00  0.00    -0.140 NA
ATOM      9  N   UNL     1     -11.791 -43.225  29.794  0.00  0.00    -0.230 N 
ATOM     10  H   UNL     1     -12.520 -43.106  27.210  0.00  0.00    +0.188 HD
ATOM     11  H   UNL     1     -11.061 -43.656  29.293  0.00  0.00    +0.191 HD
BRANCH   8  12
ATOM     12  N   UNL     1     -14.338 -43.640  31.249  0.00  0.00    -0.188 N 
ATOM     13  C   UNL     1     -14.295 -44.974  31.794  0.00  0.00    +0.317 C 
ATOM     14  O   UNL     1     -14.056 -45.897  30.999  0.00  0.00    -0.251 OA
ATOM     15  N   UNL     1     -14.521 -45.182  33.180  0.00  0.00    -0.312 N 
ATOM     16  H   UNL     1     -14.524 -42.886  31.854  0.00  0.00    +0.179 HD
ATOM     17  H   UNL     1     -14.707 -44.415  33.769  0.00  0.00    +0.147 HD
ATOM     18  H   UNL     1     -14.492 -46.093  33.552  0.00  0.00    +0.147 HD
ENDBRANCH   8  12
BRANCH   9  19
ATOM     19  S   UNL     1     -11.459 -42.527  31.321  0.00  0.00    +0.041 S 
ATOM     20  O   UNL     1     -10.012 -42.046  31.265  0.00  0.00    -0.156 OA
ATOM     21  O   UNL     1     -12.285 -41.343  31.656  0.00  0.00    -0.156 OA
ATOM     22  H   UNL     1     -11.723 -43.473  32.262  0.00  0.00    +0.235 HD
ENDBRANCH   9  19
ENDBRANCH   4   6
BRANCH   1  23
ATOM     23  C   UNL     1     -15.925 -41.686  23.842  0.00  0.00    +0.207 C 
ATOM     24  C   UNL     1     -15.607 -40.240  23.478  0.00  0.00    +0.051 C 
BRANCH  23  35
ATOM     25  C   UNL     1     -20.645 -39.937  23.633  0.00  0.00    +0.018 C 
ATOM     26  C   UNL     1     -20.363 -40.956  24.513  0.00  0.00    +0.083 C 
ATOM     27  C   UNL     1     -21.275 -41.214  25.534  0.00  0.00    +0.019 C 
ATOM     28  C   UNL     1     -22.441 -40.504  25.705  0.00  0.00    +0.002 C 
ATOM     29  C   UNL     1     -22.705 -39.488  24.811  0.00  0.00    +0.000 C 
ATOM     30  C   UNL     1     -21.818 -39.219  23.800  0.00  0.00    +0.001 C 
ATOM     31  N   UNL     1     -19.225 -41.681  24.389  0.00  0.00    -0.226 NA
ATOM     32  C   UNL     1     -18.366 -41.407  23.402  0.00  0.00    +0.165 C 
ATOM     33  C   UNL     1     -18.609 -40.397  22.495  0.00  0.00    +0.039 C 
ATOM     34  C   UNL     1     -19.761 -39.654  22.612  0.00  0.00    +0.005 C 
ATOM     35  N   UNL     1     -17.144 -42.125  23.232  0.00  0.00    -0.207 N 
BRANCH  35  36
ATOM     36  O   UNL     1     -17.175 -43.237  22.470  0.00  0.00    -0.283 OA
ATOM     37  H   UNL     1     -18.077 -43.379  22.142  0.00  0.00    +0.245 HD
ENDBRANCH  35  36
ENDBRANCH  23  35
ENDBRANCH   1  23
BRANCH   1  38
ATOM     38  N   UNL     1     -16.948 -41.539  26.104  0.00  0.00    +0.056 NA
ATOM     39  O   UNL     1     -17.378 -42.352  26.957  0.00  0.00    -0.078 OA
ENDBRANCH   1  38
TORSDOF 7
