REMARK  Name = =
REMARK  0 active torsions:
REMARK  status: ('A' for Active; 'I' for Inactive)
REMARK                            x       y       z     vdW  Elec       q    Type
REMARK                         _______ _______ _______ _____ _____    ______ ____
ROOT
ATOM      1  N   UNL     1      52.217 155.822  28.246  0.00  0.00    -0.236 N 
ATOM      2  C   UNL     1      52.945 156.867  27.827  0.00  0.00    +0.310 C 
ATOM      3  O   UNL     1      53.172 157.880  28.541  0.00  0.00    -0.252 OA
ATOM      4  N   UNL     1      53.469 156.851  26.576  0.00  0.00    -0.267 N 
ATOM      5  C   UNL     1      53.254 155.795  25.777  0.00  0.00    +0.070 C 
ATOM      6  C   UNL     1      52.509 154.717  26.195  0.00  0.00    +0.074 C 
ATOM      7  C   UNL     1      51.980 154.746  27.475  0.00  0.00    +0.254 C 
ATOM      8  O   UNL     1      51.288 153.795  27.923  0.00  0.00    -0.270 OA
ATOM      9  H   UNL     1      51.840 155.843  29.155  0.00  0.00    +0.159 HD
ATOM     10  H   UNL     1      54.005 157.612  26.255  0.00  0.00    +0.156 HD
ENDROOT
TORSDOF 0
