REMARK  Name = =
REMARK  4 active torsions:
REMARK  status: ('A' for Active; 'I' for Inactive)
REMARK    1  A    between atoms: C_5  and  N_9
REMARK    2  A    between atoms: C_6  and  C_16
REMARK    3  A    between atoms: C_19  and  O_22
REMARK    4  A    between atoms: O_22  and  C_23
REMARK                            x       y       z     vdW  Elec       q    Type
REMARK                         _______ _______ _______ _____ _____    ______ ____
ROOT
ATOM      1  N   UNL     1      53.763 160.929  30.503  0.00  0.00    -0.275 N 
ATOM      2  C   UNL     1      52.734 161.660  30.968  0.00  0.00    +0.328 A 
ATOM      3  O   UNL     1      52.991 162.793  31.454  0.00  0.00    -0.247 OA
ATOM      4  N   UNL     1      51.472 161.192  30.914  0.00  0.00    -0.295 N 
ATOM      5  C   UNL     1      51.273 159.953  30.374  0.00  0.00    +0.117 A 
ATOM      6  C   UNL     1      52.295 159.196  29.897  0.00  0.00    +0.086 A 
ATOM      7  C   UNL     1      53.597 159.705  29.965  0.00  0.00    +0.264 A 
ATOM      8  O   UNL     1      54.541 159.012  29.528  0.00  0.00    -0.267 OA
ATOM      9  H   UNL     1      54.672 161.303  30.558  0.00  0.00    +0.173 HD
ATOM     10  H   UNL     1      50.717 161.726  31.253  0.00  0.00    +0.172 HD
ENDROOT
BRANCH   5  11
ATOM     11  N   UNL     1      49.953 159.502  30.344  0.00  0.00    -0.295 N 
ATOM     12  C   UNL     1      49.061 159.816  29.270  0.00  0.00    +0.092 C 
ATOM     13  C   UNL     1      48.023 160.800  29.800  0.00  0.00    +0.021 C 
ATOM     14  C   UNL     1      47.295 160.162  30.962  0.00  0.00    +0.002 C 
ATOM     15  C   UNL     1      47.980 160.508  32.257  0.00  0.00    +0.002 C 
ATOM     16  C   UNL     1      49.061 159.546  32.654  0.00  0.00    +0.021 C 
ATOM     17  C   UNL     1      49.598 158.709  31.522  0.00  0.00    +0.092 C 
ENDBRANCH   5  11
BRANCH   6  18
ATOM     18  C   UNL     1      52.053 157.897  29.316  0.00  0.00    +0.007 C 
ATOM     19  C   UNL     1      51.325 156.885  29.896  0.00  0.00    +0.003 C 
ATOM     20  C   UNL     1      51.170 155.648  29.258  0.00  0.00    +0.037 C 
ATOM     21  C   UNL     1      51.735 155.385  28.028  0.00  0.00    +0.145 C 
ATOM     22  C   UNL     1      52.467 156.392  27.440  0.00  0.00    +0.037 C 
ATOM     23  C   UNL     1      52.622 157.616  28.068  0.00  0.00    +0.003 C 
BRANCH  21  24
ATOM     24  O   UNL     1      51.544 154.139  27.451  0.00  0.00    -0.453 OA
BRANCH  24  25
ATOM     25  C   UNL     1      52.330 153.590  26.486  0.00  0.00    +0.145 C 
ATOM     26  C   UNL     1      52.740 152.259  26.525  0.00  0.00    +0.037 C 
ATOM     27  C   UNL     1      53.534 151.721  25.543  0.00  0.00    +0.003 C 
ATOM     28  C   UNL     1      53.955 152.483  24.483  0.00  0.00    +0.000 C 
ATOM     29  C   UNL     1      53.565 153.801  24.419  0.00  0.00    +0.003 C 
ATOM     30  C   UNL     1      52.755 154.345  25.422  0.00  0.00    +0.037 C 
ENDBRANCH  24  25
ENDBRANCH  21  24
ENDBRANCH   6  18
TORSDOF 4
