REMARK  Name = =
REMARK  0 active torsions:
REMARK  status: ('A' for Active; 'I' for Inactive)
REMARK                            x       y       z     vdW  Elec       q    Type
REMARK                         _______ _______ _______ _____ _____    ______ ____
ROOT
ATOM      1  C   UNL     1      49.920 154.978  29.197  0.00  0.00    +0.000 C 
ATOM      2  C   UNL     1      49.420 156.382  29.091  0.00  0.00    +0.000 C 
ATOM      3  C   UNL     1      50.558 157.307  29.012  0.00  0.00    +0.000 C 
ATOM      4  C   UNL     1      50.823 158.119  30.246  0.00  0.00    +0.000 C 
ATOM      5  C   UNL     1      49.544 158.659  30.772  0.00  0.00    +0.000 C 
ATOM      6  C   UNL     1      49.658 159.662  31.854  0.00  0.00    +0.001 C 
ATOM      7  C   UNL     1      50.857 160.518  31.842  0.00  0.00    +0.007 C 
ATOM      8  C   UNL     1      52.090 159.894  31.312  0.00  0.00    +0.000 C 
ATOM      9  C   UNL     1      51.793 159.235  29.959  0.00  0.00    +0.000 C 
ATOM     10  C   UNL     1      50.635 161.931  31.373  0.00  0.00    +0.064 C 
ATOM     11  C   UNL     1      49.581 162.533  32.194  0.00  0.00    +0.151 C 
ATOM     12  O   UNL     1      49.593 163.723  32.445  0.00  0.00    -0.296 OA
ATOM     13  C   UNL     1      48.489 161.709  32.731  0.00  0.00    +0.065 C 
ATOM     14  C   UNL     1      48.367 160.388  32.013  0.00  0.00    +0.008 C 
ATOM     15  C   UNL     1      48.727 157.446  31.243  0.00  0.00    +0.000 C 
ATOM     16  C   UNL     1      48.308 156.735  29.990  0.00  0.00    +0.000 C 
ATOM     17  C   UNL     1      51.741 156.381  28.713  0.00  0.00    +0.000 C 
ATOM     18  C   UNL     1      51.395 155.085  29.449  0.00  0.00    +0.000 C 
ENDROOT
TORSDOF 0
