REMARK  Name = =
REMARK  0 active torsions:
REMARK  status: ('A' for Active; 'I' for Inactive)
REMARK                            x       y       z     vdW  Elec       q    Type
REMARK                         _______ _______ _______ _____ _____    ______ ____
ROOT
ATOM      1  C   UNL     1      52.796 155.701  27.146  0.00  0.00    -0.000 C 
ATOM      2  C   UNL     1      52.443 154.278  27.321  0.00  0.00    -0.004 C 
ATOM      3  C   UNL     1      53.035 153.585  26.291  0.00  0.00    -0.018 C 
ATOM      4  C   UNL     1      53.770 154.516  25.440  0.00  0.00    -0.004 C 
ATOM      5  C   UNL     1      53.640 155.791  25.936  0.00  0.00    -0.000 C 
ATOM      6  C   UNL     1      54.251 156.871  25.301  0.00  0.00    -0.000 C 
ATOM      7  C   UNL     1      55.004 156.698  24.160  0.00  0.00    -0.000 C 
ATOM      8  C   UNL     1      55.132 155.401  23.664  0.00  0.00    -0.000 C 
ATOM      9  C   UNL     1      54.524 154.336  24.295  0.00  0.00    -0.000 C 
ATOM     10  C   UNL     1      52.832 152.208  26.260  0.00  0.00    +0.052 C 
ATOM     11  C   UNL     1      52.082 151.523  27.189  0.00  0.00    -0.021 C 
ATOM     12  C   UNL     1      51.500 152.247  28.213  0.00  0.00    -0.004 C 
ATOM     13  C   UNL     1      51.675 153.613  28.285  0.00  0.00    -0.001 C 
ENDROOT
TORSDOF 0
