REMARK  Name = =
REMARK  2 active torsions:
REMARK  status: ('A' for Active; 'I' for Inactive)
REMARK    1  A    between atoms: C_1  and  C_13
REMARK    2  A    between atoms: C_12  and  O_18
REMARK                            x       y       z     vdW  Elec       q    Type
REMARK                         _______ _______ _______ _____ _____    ______ ____
ROOT
ATOM      1  C   UNL     1      52.134 156.469  27.938  0.00  0.00    +0.037 C 
ATOM      2  C   UNL     1      52.869 156.939  26.869  0.00  0.00    +0.074 C 
ATOM      3  N   UNL     1      53.424 155.918  26.200  0.00  0.00    -0.229 N 
ATOM      4  C   UNL     1      53.047 154.801  26.836  0.00  0.00    +0.059 C 
ATOM      5  C   UNL     1      52.243 155.078  27.925  0.00  0.00    +0.017 C 
ATOM      6  C   UNL     1      51.730 154.085  28.737  0.00  0.00    +0.001 C 
ATOM      7  C   UNL     1      51.999 152.758  28.491  0.00  0.00    +0.000 C 
ATOM      8  C   UNL     1      52.798 152.458  27.410  0.00  0.00    +0.001 C 
ATOM      9  C   UNL     1      53.311 153.458  26.599  0.00  0.00    +0.015 C 
ATOM     10  C   UNL     1      54.259 156.032  25.034  0.00  0.00    +0.311 C 
ATOM     11  O   UNL     1      54.731 155.004  24.485  0.00  0.00    -0.264 OA
ENDROOT
BRANCH   1  13
ATOM     12  C   UNL     1      51.901 158.283  29.597  0.00  0.00    +0.151 C 
ATOM     13  C   UNL     1      51.364 157.196  28.943  0.00  0.00    +0.116 C 
ATOM     14  N   UNL     1      50.094 156.806  29.249  0.00  0.00    -0.241 NA
ATOM     15  C   UNL     1      49.340 157.427  30.157  0.00  0.00    +0.099 C 
ATOM     16  C   UNL     1      49.857 158.525  30.833  0.00  0.00    +0.024 C 
ATOM     17  C   UNL     1      51.146 158.955  30.551  0.00  0.00    +0.040 C 
BRANCH  12  18
ATOM     18  O   UNL     1      53.195 158.734  29.331  0.00  0.00    -0.504 OA
ATOM     19  H   UNL     1      53.536 159.476  29.790  0.00  0.00    +0.292 HD
ENDBRANCH  12  18
ENDBRANCH   1  13
TORSDOF 2
