REMARK  Name = =
REMARK  2 active torsions:
REMARK  status: ('A' for Active; 'I' for Inactive)
REMARK    1  A    between atoms: C_1  and  C_19
REMARK    2  A    between atoms: C_22  and  N_25
REMARK                            x       y       z     vdW  Elec       q    Type
REMARK                         _______ _______ _______ _____ _____    ______ ____
ROOT
ATOM      1  C   UNL     1      52.549 155.897  27.889  0.00  0.00    +0.022 C 
ATOM      2  C   UNL     1      51.263 156.489  28.416  0.00  0.00    +0.004 C 
ATOM      3  C   UNL     1      51.746 157.902  28.700  0.00  0.00    +0.000 C 
ATOM      4  C   UNL     1      50.748 158.679  29.400  0.00  0.00    +0.000 C 
ATOM      5  C   UNL     1      49.642 158.065  30.113  0.00  0.00    +0.000 C 
ATOM      6  C   UNL     1      49.292 158.849  31.349  0.00  0.00    +0.001 C 
ATOM      7  C   UNL     1      50.239 159.993  31.588  0.00  0.00    +0.007 C 
ATOM      8  C   UNL     1      50.407 160.884  30.386  0.00  0.00    +0.000 C 
ATOM      9  C   UNL     1      50.661 160.129  29.125  0.00  0.00    +0.000 C 
ATOM     10  C   UNL     1      49.909 160.727  32.834  0.00  0.00    +0.064 C 
ATOM     11  C   UNL     1      48.467 161.034  32.913  0.00  0.00    +0.151 C 
ATOM     12  O   UNL     1      48.102 162.152  33.191  0.00  0.00    -0.296 OA
ATOM     13  C   UNL     1      47.501 159.942  32.643  0.00  0.00    +0.065 C 
ATOM     14  C   UNL     1      47.848 159.286  31.344  0.00  0.00    +0.008 C 
ATOM     15  C   UNL     1      49.666 156.610  30.349  0.00  0.00    +0.000 C 
ATOM     16  C   UNL     1      50.722 155.824  29.637  0.00  0.00    +0.000 C 
ATOM     17  C   UNL     1      53.034 157.628  29.416  0.00  0.00    +0.000 C 
ATOM     18  C   UNL     1      53.526 156.252  28.950  0.00  0.00    +0.004 C 
ENDROOT
BRANCH   1  19
ATOM     19  C   UNL     1      52.476 154.499  27.495  0.00  0.00    -0.022 C 
ATOM     20  C   UNL     1      53.624 153.767  27.250  0.00  0.00    -0.003 C 
ATOM     21  C   UNL     1      53.597 152.439  26.880  0.00  0.00    +0.014 C 
ATOM     22  C   UNL     1      52.393 151.783  26.739  0.00  0.00    +0.042 C 
ATOM     23  C   UNL     1      51.233 152.489  26.976  0.00  0.00    +0.014 C 
ATOM     24  C   UNL     1      51.282 153.838  27.352  0.00  0.00    -0.003 C 
BRANCH  22  25
ATOM     25  N   UNL     1      52.383 150.417  26.358  0.00  0.00    -0.357 N 
ATOM     26  H   UNL     1      53.232 149.945  26.197  0.00  0.00    +0.142 HD
ATOM     27  H   UNL     1      51.527 149.941  26.255  0.00  0.00    +0.142 HD
ENDBRANCH  22  25
ENDBRANCH   1  19
TORSDOF 2
