REMARK  Name = =
REMARK  3 active torsions:
REMARK  status: ('A' for Active; 'I' for Inactive)
REMARK    1  A    between atoms: C_1  and  C_19
REMARK    2  A    between atoms: C_14  and  S_26
REMARK    3  A    between atoms: C_22  and  N_25
REMARK                            x       y       z     vdW  Elec       q    Type
REMARK                         _______ _______ _______ _____ _____    ______ ____
ROOT
ATOM      1  C   UNL     1      52.173 155.732  28.874  0.00  0.00    +0.022 C 
ATOM      2  C   UNL     1      51.165 156.826  28.729  0.00  0.00    +0.004 C 
ATOM      3  C   UNL     1      51.821 158.126  28.926  0.00  0.00    +0.000 C 
ATOM      4  C   UNL     1      50.967 159.180  29.571  0.00  0.00    +0.000 C 
ATOM      5  C   UNL     1      50.378 158.612  30.816  0.00  0.00    +0.001 C 
ATOM      6  C   UNL     1      49.562 159.627  31.526  0.00  0.00    +0.013 C 
ATOM      7  C   UNL     1      49.103 160.768  30.672  0.00  0.00    +0.008 C 
ATOM      8  C   UNL     1      48.770 160.361  29.269  0.00  0.00    +0.000 C 
ATOM      9  C   UNL     1      49.974 159.742  28.611  0.00  0.00    +0.000 C 
ATOM     10  C   UNL     1      47.941 161.428  31.358  0.00  0.00    +0.065 C 
ATOM     11  C   UNL     1      47.957 161.266  32.822  0.00  0.00    +0.152 C 
ATOM     12  O   UNL     1      46.936 161.558  33.433  0.00  0.00    -0.296 OA
ATOM     13  C   UNL     1      49.100 160.779  33.615  0.00  0.00    +0.078 C 
ATOM     14  C   UNL     1      50.193 160.183  32.765  0.00  0.00    +0.083 C 
ATOM     15  C   UNL     1      49.597 157.362  30.625  0.00  0.00    +0.000 C 
ATOM     16  C   UNL     1      49.876 156.594  29.398  0.00  0.00    +0.000 C 
ATOM     17  C   UNL     1      53.074 157.825  29.709  0.00  0.00    +0.000 C 
ATOM     18  C   UNL     1      53.434 156.383  29.380  0.00  0.00    +0.004 C 
ENDROOT
BRANCH   1  19
ATOM     19  C   UNL     1      52.385 155.126  27.529  0.00  0.00    -0.022 C 
ATOM     20  C   UNL     1      52.005 153.840  27.216  0.00  0.00    -0.003 C 
ATOM     21  C   UNL     1      52.216 153.311  25.964  0.00  0.00    +0.014 C 
ATOM     22  C   UNL     1      52.820 154.077  24.989  0.00  0.00    +0.042 C 
ATOM     23  C   UNL     1      53.212 155.386  25.289  0.00  0.00    +0.014 C 
ATOM     24  C   UNL     1      52.988 155.889  26.554  0.00  0.00    -0.003 C 
BRANCH  22  25
ATOM     25  N   UNL     1      53.075 153.611  23.671  0.00  0.00    -0.357 N 
ATOM     26  H   UNL     1      53.510 154.203  23.015  0.00  0.00    +0.142 HD
ATOM     27  H   UNL     1      52.817 152.696  23.414  0.00  0.00    +0.142 HD
ENDBRANCH  22  25
ENDBRANCH   1  19
BRANCH  14  28
ATOM     28  S   UNL     1      51.254 161.565  32.241  0.00  0.00    +0.018 S 
ATOM     29  O   UNL     1      50.502 162.868  32.578  0.00  0.00    -0.260 OA
ATOM     30  H   UNL     1      52.438 161.524  32.909  0.00  0.00    +0.139 HD
ENDBRANCH  14  28
TORSDOF 3
