REMARK  Name = =
REMARK  3 active torsions:
REMARK  status: ('A' for Active; 'I' for Inactive)
REMARK    1  A    between atoms: C_1  and  C_20
REMARK    2  A    between atoms: C_8  and  N_12
REMARK    3  A    between atoms: C_19  and  O_25
REMARK                            x       y       z     vdW  Elec       q    Type
REMARK                         _______ _______ _______ _____ _____    ______ ____
ROOT
ATOM      1  C   UNL     1      52.737 156.006  28.455  0.00  0.00    +0.037 C 
ATOM      2  C   UNL     1      53.888 156.740  28.429  0.00  0.00    +0.074 C 
ATOM      3  N   UNL     1      53.648 157.954  29.000  0.00  0.00    -0.229 N 
ATOM      4  C   UNL     1      52.361 157.990  29.384  0.00  0.00    +0.060 C 
ATOM      5  C   UNL     1      51.757 156.797  29.065  0.00  0.00    +0.017 C 
ATOM      6  C   UNL     1      50.431 156.569  29.346  0.00  0.00    +0.003 C 
ATOM      7  C   UNL     1      49.649 157.524  29.956  0.00  0.00    +0.015 C 
ATOM      8  C   UNL     1      50.229 158.761  30.299  0.00  0.00    +0.049 C 
ATOM      9  C   UNL     1      51.552 158.942  30.002  0.00  0.00    +0.030 C 
ATOM     10  C   UNL     1      54.605 158.985  29.158  0.00  0.00    +0.311 C 
ATOM     11  O   UNL     1      55.796 158.869  28.772  0.00  0.00    -0.264 OA
ENDROOT
BRANCH   8  12
ATOM     12  N   UNL     1      49.384 159.712  30.919  0.00  0.00    -0.306 N 
ATOM     13  C   UNL     1      49.771 161.060  30.879  0.00  0.00    +0.110 C 
ATOM     14  C   UNL     1      49.534 161.870  32.127  0.00  0.00    +0.110 C 
ATOM     15  N   UNL     1      48.114 162.227  32.279  0.00  0.00    -0.216 NA
ATOM     16  C   UNL     1      47.566 161.192  33.137  0.00  0.00    +0.091 C 
ATOM     17  C   UNL     1      47.358 159.961  32.290  0.00  0.00    +0.040 C 
ATOM     18  C   UNL     1      48.682 159.247  32.069  0.00  0.00    +0.092 C 
ENDBRANCH   8  12
BRANCH   1  20
ATOM     19  C   UNL     1      52.639 154.393  26.605  0.00  0.00    +0.151 C 
ATOM     20  C   UNL     1      52.447 154.662  27.963  0.00  0.00    +0.116 C 
ATOM     21  N   UNL     1      51.978 153.661  28.718  0.00  0.00    -0.241 NA
ATOM     22  C   UNL     1      51.691 152.430  28.215  0.00  0.00    +0.099 C 
ATOM     23  C   UNL     1      51.864 152.124  26.880  0.00  0.00    +0.024 C 
ATOM     24  C   UNL     1      52.356 153.149  26.061  0.00  0.00    +0.040 C 
BRANCH  19  25
ATOM     25  O   UNL     1      53.123 155.411  25.799  0.00  0.00    -0.504 OA
ATOM     26  H   UNL     1      53.314 156.251  26.169  0.00  0.00    +0.292 HD
ENDBRANCH  19  25
ENDBRANCH   1  20
TORSDOF 3
