REMARK  Name = =
REMARK  4 active torsions:
REMARK  status: ('A' for Active; 'I' for Inactive)
REMARK    1  A    between atoms: C_1  and  C_20
REMARK    2  A    between atoms: C_8  and  N_12
REMARK    3  A    between atoms: C_19  and  O_25
REMARK    4  A    between atoms: O_25  and  S_26
REMARK                            x       y       z     vdW  Elec       q    Type
REMARK                         _______ _______ _______ _____ _____    ______ ____
ROOT
ATOM      1  C   UNL     1      50.851 158.885  30.285  0.00  0.00    +0.037 C 
ATOM      2  C   UNL     1      52.039 159.552  30.227  0.00  0.00    +0.074 C 
ATOM      3  N   UNL     1      52.924 158.782  29.555  0.00  0.00    -0.229 N 
ATOM      4  C   UNL     1      52.307 157.619  29.179  0.00  0.00    +0.060 C 
ATOM      5  C   UNL     1      51.002 157.658  29.625  0.00  0.00    +0.017 C 
ATOM      6  C   UNL     1      50.171 156.588  29.366  0.00  0.00    +0.003 C 
ATOM      7  C   UNL     1      50.656 155.495  28.664  0.00  0.00    +0.015 C 
ATOM      8  C   UNL     1      51.953 155.452  28.217  0.00  0.00    +0.049 C 
ATOM      9  C   UNL     1      52.768 156.522  28.482  0.00  0.00    +0.030 C 
ATOM     10  C   UNL     1      54.265 159.153  29.301  0.00  0.00    +0.311 C 
ATOM     11  O   UNL     1      55.077 158.432  28.677  0.00  0.00    -0.264 OA
ENDROOT
BRANCH   8  12
ATOM     12  N   UNL     1      52.422 154.320  27.501  0.00  0.00    -0.306 N 
ATOM     13  C   UNL     1      53.370 154.747  26.493  0.00  0.00    +0.110 C 
ATOM     14  C   UNL     1      53.891 153.557  25.718  0.00  0.00    +0.110 C 
ATOM     15  N   UNL     1      53.872 152.366  26.534  0.00  0.00    -0.216 NA
ATOM     16  C   UNL     1      52.660 151.578  26.292  0.00  0.00    +0.091 C 
ATOM     17  C   UNL     1      51.607 152.080  27.269  0.00  0.00    +0.040 C 
ATOM     18  C   UNL     1      51.348 153.531  26.932  0.00  0.00    +0.092 C 
ENDBRANCH   8  12
BRANCH   1  20
ATOM     19  C   UNL     1      49.380 160.536  31.440  0.00  0.00    +0.189 C 
ATOM     20  C   UNL     1      49.594 159.308  30.869  0.00  0.00    +0.119 C 
ATOM     21  N   UNL     1      48.523 158.475  30.874  0.00  0.00    -0.241 NA
ATOM     22  C   UNL     1      47.328 158.748  31.368  0.00  0.00    +0.099 C 
ATOM     23  C   UNL     1      47.091 159.987  31.947  0.00  0.00    +0.024 C 
ATOM     24  C   UNL     1      48.144 160.877  31.973  0.00  0.00    +0.043 C 
BRANCH  19  25
ATOM     25  O   UNL     1      50.352 161.494  31.526  0.00  0.00    -0.362 OA
BRANCH  25  26
ATOM     26  S   UNL     1      50.253 162.778  32.658  0.00  0.00    +0.009 S 
ATOM     27  O   UNL     1      51.576 163.485  32.652  0.00  0.00    -0.065 OA
ATOM     28  O   UNL     1      50.072 162.180  34.024  0.00  0.00    -0.065 OA
ATOM     29  H   UNL     1      49.231 163.621  32.352  0.00  0.00    +0.227 HD
ENDBRANCH  25  26
ENDBRANCH  19  25
ENDBRANCH   1  20
TORSDOF 4
