REMARK  Name = =
REMARK  4 active torsions:
REMARK  status: ('A' for Active; 'I' for Inactive)
REMARK    1  A    between atoms: C_1  and  C_19
REMARK    2  A    between atoms: C_14  and  S_33
REMARK    3  A    between atoms: C_22  and  N_32
REMARK    4  A    between atoms: C_24  and  C_25
REMARK                            x       y       z     vdW  Elec       q    Type
REMARK                         _______ _______ _______ _____ _____    ______ ____
ROOT
ATOM      1  C   UNL     1      51.880 156.622  27.805  0.00  0.00    +0.022 C 
ATOM      2  C   UNL     1      52.311 157.301  29.015  0.00  0.00    +0.004 C 
ATOM      3  C   UNL     1      51.272 156.989  30.070  0.00  0.00    +0.000 C 
ATOM      4  C   UNL     1      50.374 158.119  30.396  0.00  0.00    +0.000 C 
ATOM      5  C   UNL     1      51.072 159.402  30.762  0.00  0.00    +0.001 C 
ATOM      6  C   UNL     1      50.014 160.481  30.835  0.00  0.00    +0.013 C 
ATOM      7  C   UNL     1      48.619 159.965  30.750  0.00  0.00    +0.008 C 
ATOM      8  C   UNL     1      48.363 158.728  31.594  0.00  0.00    +0.000 C 
ATOM      9  C   UNL     1      49.516 157.770  31.601  0.00  0.00    +0.000 C 
ATOM     10  C   UNL     1      47.591 160.983  31.040  0.00  0.00    +0.065 C 
ATOM     11  C   UNL     1      48.067 162.294  31.493  0.00  0.00    +0.152 C 
ATOM     12  O   UNL     1      47.314 163.288  31.336  0.00  0.00    -0.296 OA
ATOM     13  C   UNL     1      49.372 162.516  32.125  0.00  0.00    +0.078 C 
ATOM     14  C   UNL     1      50.108 161.219  32.178  0.00  0.00    +0.083 C 
ATOM     15  C   UNL     1      52.242 159.693  29.902  0.00  0.00    +0.000 C 
ATOM     16  C   UNL     1      52.436 158.790  28.753  0.00  0.00    +0.000 C 
ATOM     17  C   UNL     1      50.402 155.864  29.531  0.00  0.00    +0.000 C 
ATOM     18  C   UNL     1      50.609 155.817  28.041  0.00  0.00    +0.004 C 
ENDROOT
BRANCH   1  19
ATOM     19  C   UNL     1      52.695 156.116  26.731  0.00  0.00    -0.024 C 
ATOM     20  C   UNL     1      53.088 156.918  25.616  0.00  0.00    -0.003 C 
ATOM     21  C   UNL     1      53.915 156.504  24.639  0.00  0.00    +0.014 C 
ATOM     22  C   UNL     1      54.424 155.250  24.691  0.00  0.00    +0.041 C 
ATOM     23  C   UNL     1      54.078 154.414  25.777  0.00  0.00    +0.012 C 
ATOM     24  C   UNL     1      53.232 154.857  26.766  0.00  0.00    +0.002 C 
BRANCH  24  25
ATOM     25  C   UNL     1      52.800 153.885  27.808  0.00  0.00    +0.138 C 
ATOM     26  O   UNL     1      51.510 153.401  27.379  0.00  0.00    -0.344 OA
ATOM     27  C   UNL     1      51.217 152.159  27.954  0.00  0.00    +0.206 C 
ATOM     28  C   UNL     1      52.050 151.174  27.280  0.00  0.00    +0.180 C 
ATOM     29  O   UNL     1      51.676 150.123  26.816  0.00  0.00    -0.293 OA
ATOM     30  C   UNL     1      53.528 151.480  27.169  0.00  0.00    +0.070 C 
ATOM     31  C   UNL     1      53.795 152.756  27.829  0.00  0.00    +0.042 C 
ENDBRANCH  24  25
BRANCH  22  32
ATOM     32  N   UNL     1      55.233 154.726  23.676  0.00  0.00    -0.357 N 
ATOM     33  H   UNL     1      55.487 155.289  22.909  0.00  0.00    +0.142 HD
ATOM     34  H   UNL     1      55.548 153.795  23.729  0.00  0.00    +0.142 HD
ENDBRANCH  22  32
ENDBRANCH   1  19
BRANCH  14  35
ATOM     35  S   UNL     1      51.796 161.385  32.707  0.00  0.00    +0.018 S 
ATOM     36  O   UNL     1      52.587 162.347  31.871  0.00  0.00    -0.260 OA
ATOM     37  H   UNL     1      52.391 160.164  32.640  0.00  0.00    +0.139 HD
ENDBRANCH  14  35
TORSDOF 4
