REMARK  Name = =
REMARK  2 active torsions:
REMARK  status: ('A' for Active; 'I' for Inactive)
REMARK    1  A    between atoms: N_1  and  O_4
REMARK    2  A    between atoms: C_2  and  O_5
REMARK                            x       y       z     vdW  Elec       q    Type
REMARK                         _______ _______ _______ _____ _____    ______ ____
ROOT
ATOM      1  N   UNL     1      51.974 154.786  29.443  0.00  0.00    -0.163 N 
ATOM      2  C   UNL     1      52.781 154.598  28.287  0.00  0.00    +0.421 C 
ATOM      3  O   UNL     1      52.721 155.472  27.390  0.00  0.00    -0.224 OA
ATOM      4  H   UNL     1      52.008 154.110  30.158  0.00  0.00    +0.186 HD
ENDROOT
BRANCH   1   5
ATOM      5  O   UNL     1      51.160 155.857  29.601  0.00  0.00    -0.293 OA
ATOM      6  H   UNL     1      51.229 156.433  28.824  0.00  0.00    +0.241 HD
ENDBRANCH   1   5
BRANCH   2   7
ATOM      7  O   UNL     1      53.620 153.513  28.101  0.00  0.00    -0.465 OA
ATOM      8  H   UNL     1      53.680 152.849  28.759  0.00  0.00    +0.297 HD
ENDBRANCH   2   7
TORSDOF 2
