REMARK  Name = =
REMARK  5 active torsions:
REMARK  status: ('A' for Active; 'I' for Inactive)
REMARK    1  A    between atoms: C_1  and  O_19
REMARK    2  A    between atoms: C_2  and  C_11
REMARK    3  A    between atoms: C_12  and  C_17
REMARK    4  A    between atoms: O_19  and  C_21
REMARK    5  A    between atoms: N_20  and  O_23
REMARK                            x       y       z     vdW  Elec       q    Type
REMARK                         _______ _______ _______ _____ _____    ______ ____
ROOT
ATOM      1  C   UNL     1      53.442 154.528  27.415  0.00  0.00    +0.150 C 
ATOM      2  C   UNL     1      54.022 154.405  26.158  0.00  0.00    +0.035 C 
ATOM      3  C   UNL     1      54.244 155.472  25.314  0.00  0.00    +0.003 C 
ATOM      4  C   UNL     1      53.867 156.738  25.739  0.00  0.00    +0.000 C 
ATOM      5  C   UNL     1      53.288 156.902  26.981  0.00  0.00    +0.003 C 
ATOM      6  C   UNL     1      53.079 155.796  27.810  0.00  0.00    +0.038 C 
ATOM      7  C   UNL     1      54.074 157.826  24.920  0.00  0.00    +0.000 C 
ATOM      8  C   UNL     1      54.656 157.683  23.667  0.00  0.00    +0.000 C 
ATOM      9  C   UNL     1      55.021 156.414  23.268  0.00  0.00    +0.000 C 
ATOM     10  C   UNL     1      54.821 155.319  24.075  0.00  0.00    +0.000 C 
ENDROOT
BRANCH   2  11
ATOM     11  C   UNL     1      54.393 153.061  25.740  0.00  0.00    +0.006 C 
ATOM     12  C   UNL     1      53.388 152.154  25.491  0.00  0.00    +0.042 C 
ATOM     13  C   UNL     1      53.716 150.867  25.120  0.00  0.00    +0.003 C 
ATOM     14  C   UNL     1      55.041 150.503  25.002  0.00  0.00    +0.000 C 
ATOM     15  C   UNL     1      56.033 151.422  25.254  0.00  0.00    +0.000 C 
ATOM     16  C   UNL     1      55.725 152.712  25.626  0.00  0.00    +0.000 C 
BRANCH  12  17
ATOM     17  C   UNL     1      51.985 152.534  25.585  0.00  0.00    +0.234 C 
ATOM     18  O   UNL     1      51.594 153.724  25.661  0.00  0.00    -0.283 OA
ENDBRANCH  12  17
ENDBRANCH   2  11
BRANCH   1  19
ATOM     19  O   UNL     1      53.250 153.417  28.214  0.00  0.00    -0.409 OA
BRANCH  19  21
ATOM     20  N   UNL     1      51.734 151.707  29.012  0.00  0.00    -0.162 N 
ATOM     21  C   UNL     1      52.090 153.089  28.848  0.00  0.00    +0.429 C 
ATOM     22  O   UNL     1      51.345 154.000  29.282  0.00  0.00    -0.224 OA
ATOM     23  H   UNL     1      52.324 150.998  28.668  0.00  0.00    +0.186 HD
BRANCH  20  24
ATOM     24  O   UNL     1      50.587 151.390  29.640  0.00  0.00    -0.293 OA
ATOM     25  H   UNL     1      50.132 152.202  29.912  0.00  0.00    +0.241 HD
ENDBRANCH  20  24
ENDBRANCH  19  21
ENDBRANCH   1  19
TORSDOF 5
