MODEL 1
REMARK VINA RESULT:    -9.396      0.000      0.000
REMARK INTER + INTRA:         -13.934
REMARK INTER:                 -13.241
REMARK INTRA:                  -0.693
REMARK UNBOUND:                -0.693
REMARK  Name = =
REMARK  8 active torsions:
REMARK  status: ('A' for Active; 'I' for Inactive)
REMARK    1  A    between atoms: C_1  and  C_12
REMARK    2  A    between atoms: C_1  and  C_41
REMARK    3  A    between atoms: C_9  and  N_29
REMARK    4  A    between atoms: C_15  and  C_24
REMARK    5  A    between atoms: C_31  and  C_38
REMARK    6  A    between atoms: C_33  and  C_35
REMARK    7  A    between atoms: C_35  and  O_37
REMARK    8  A    between atoms: C_38  and  O_40
REMARK                            x       y       z     vdW  Elec       q    Type
REMARK                         _______ _______ _______ _____ _____    ______ ____
ROOT
ATOM      1  C   UNL     1     -22.618 -38.429  19.884  0.00  0.00    +0.137 C 
ATOM      2  C   UNL     1     -21.395 -38.810  20.630  0.00  0.00    +0.020 C 
ATOM      3  C   UNL     1     -20.660 -40.022  20.219  0.00  0.00    +0.021 C 
ATOM      4  C   UNL     1     -21.373 -40.861  19.245  0.00  0.00    +0.004 C 
ATOM      5  C   UNL     1     -22.859 -40.911  19.558  0.00  0.00    +0.001 C 
ATOM      6  C   UNL     1     -23.478 -39.532  19.399  0.00  0.00    +0.017 C 
ATOM      7  C   UNL     1     -20.068 -40.672  21.394  0.00  0.00    -0.027 C 
ATOM      8  C   UNL     1     -20.262 -41.914  21.697  0.00  0.00    -0.008 C 
ATOM      9  C   UNL     1     -19.234 -39.792  22.255  0.00  0.00    +0.092 C 
ATOM     10  C   UNL     1     -20.246 -38.854  22.897  0.00  0.00    +0.024 C 
ATOM     11  C   UNL     1     -21.160 -38.212  21.931  0.00  0.00    +0.003 C 
ENDROOT
BRANCH   1  12
ATOM     12  C   UNL     1     -22.244 -37.554  18.742  0.00  0.00    +0.233 C 
ATOM     13  O   UNL     1     -21.026 -37.125  18.762  0.00  0.00    -0.274 OA
ATOM     14  N   UNL     1     -23.053 -37.155  17.678  0.00  0.00    -0.276 N 
ATOM     15  C   UNL     1     -24.443 -37.534  17.430  0.00  0.00    +0.080 C 
ATOM     16  C   UNL     1     -25.329 -36.333  17.556  0.00  0.00    +0.046 C 
ATOM     17  C   UNL     1     -24.774 -35.202  16.782  0.00  0.00    -0.023 C 
ATOM     18  C   UNL     1     -23.474 -35.155  16.397  0.00  0.00    -0.006 C 
ATOM     19  C   UNL     1     -22.944 -34.082  15.666  0.00  0.00    -0.003 C 
ATOM     20  C   UNL     1     -23.755 -33.027  15.317  0.00  0.00    -0.000 C 
ATOM     21  C   UNL     1     -25.082 -33.076  15.712  0.00  0.00    -0.000 C 
ATOM     22  C   UNL     1     -25.592 -34.127  16.424  0.00  0.00    -0.004 C 
ATOM     23  C   UNL     1     -22.465 -36.203  16.706  0.00  0.00    +0.120 C 
BRANCH  15  24
ATOM     24  C   UNL     1     -24.579 -38.075  16.033  0.00  0.00    +0.019 C 
ATOM     25  C   UNL     1     -23.678 -38.860  15.468  0.00  0.00    +0.002 C 
ATOM     26  C   UNL     1     -24.105 -39.221  14.088  0.00  0.00    +0.000 C 
ATOM     27  C   UNL     1     -25.046 -38.118  13.732  0.00  0.00    +0.000 C 
ATOM     28  C   UNL     1     -25.708 -37.827  15.084  0.00  0.00    +0.002 C 
ENDBRANCH  15  24
ENDBRANCH   1  12
BRANCH   9  29
ATOM     29  N   UNL     1     -18.542 -40.563  23.243  0.00  0.00    -0.300 N 
ATOM     30  C   UNL     1     -17.192 -40.963  23.033  0.00  0.00    +0.124 C 
ATOM     31  C   UNL     1     -16.516 -41.666  23.915  0.00  0.00    +0.073 C 
ATOM     32  C   UNL     1     -17.075 -42.100  25.185  0.00  0.00    +0.012 C 
ATOM     33  C   UNL     1     -18.469 -41.680  25.391  0.00  0.00    +0.090 C 
ATOM     34  C   UNL     1     -19.104 -40.978  24.481  0.00  0.00    +0.068 C 
BRANCH  33  35
ATOM     35  C   UNL     1     -19.157 -42.064  26.657  0.00  0.00    +0.339 C 
ATOM     36  O   UNL     1     -18.854 -41.588  27.758  0.00  0.00    -0.245 OA
BRANCH  35  37
ATOM     37  O   UNL     1     -20.167 -42.991  26.569  0.00  0.00    -0.477 OA
ATOM     38  H   UNL     1     -19.965 -43.892  26.409  0.00  0.00    +0.295 HD
ENDBRANCH  35  37
ENDBRANCH  33  35
BRANCH  31  39
ATOM     39  C   UNL     1     -15.107 -42.056  23.636  0.00  0.00    +0.336 C 
ATOM     40  O   UNL     1     -14.779 -43.260  23.608  0.00  0.00    -0.245 OA
BRANCH  39  41
ATOM     41  O   UNL     1     -14.194 -41.036  23.412  0.00  0.00    -0.477 OA
ATOM     42  H   UNL     1     -14.476 -40.232  23.022  0.00  0.00    +0.295 HD
ENDBRANCH  39  41
ENDBRANCH  31  39
ENDBRANCH   9  29
BRANCH   1  43
ATOM     43  C   UNL     1     -23.413 -37.570  20.821  0.00  0.00    +0.227 C 
ATOM     44  O   UNL     1     -24.243 -38.113  21.596  0.00  0.00    -0.275 OA
ATOM     45  N   UNL     1     -23.261 -36.155  20.872  0.00  0.00    -0.328 N 
ATOM     46  H   UNL     1     -22.619 -35.708  20.276  0.00  0.00    +0.145 HD
ATOM     47  H   UNL     1     -23.799 -35.625  21.504  0.00  0.00    +0.145 HD
ENDBRANCH   1  43
TORSDOF 8
ENDMDL
