MODEL 1
REMARK VINA RESULT:    -7.950      0.000      0.000
REMARK INTER + INTRA:         -10.631
REMARK INTER:                  -9.809
REMARK INTRA:                  -0.822
REMARK UNBOUND:                -0.822
REMARK  Name = =
REMARK  4 active torsions:
REMARK  status: ('A' for Active; 'I' for Inactive)
REMARK    1  A    between atoms: C_1  and  C_27
REMARK    2  A    between atoms: C_3  and  N_7
REMARK    3  A    between atoms: C_6  and  C_13
REMARK    4  A    between atoms: C_18  and  N_19
REMARK                            x       y       z     vdW  Elec       q    Type
REMARK                         _______ _______ _______ _____ _____    ______ ____
ROOT
ATOM      1  C   UNL     1      55.782 163.157  41.539  0.00  0.00    +0.054 C 
ATOM      2  C   UNL     1      56.872 162.258  41.513  0.00  0.00    +0.019 C 
ATOM      3  C   UNL     1      56.658 160.930  41.269  0.00  0.00    +0.055 C 
ATOM      4  C   UNL     1      55.384 160.495  41.051  0.00  0.00    +0.015 C 
ATOM      5  C   UNL     1      54.339 161.404  41.083  0.00  0.00    +0.001 C 
ATOM      6  C   UNL     1      54.497 162.773  41.328  0.00  0.00    +0.002 C 
ENDROOT
BRANCH   3   7
ATOM      7  N   UNL     1      57.734 159.998  41.234  0.00  0.00    -0.242 N 
ATOM      8  C   UNL     1      58.207 159.175  42.351  0.00  0.00    +0.121 C 
ATOM      9  C   UNL     1      58.963 158.074  41.674  0.00  0.00    +0.113 C 
ATOM     10  N   UNL     1      59.573 158.778  40.556  0.00  0.00    -0.287 N 
ATOM     11  C   UNL     1      58.548 159.685  40.123  0.00  0.00    +0.308 C 
ATOM     12  O   UNL     1      58.435 160.102  38.945  0.00  0.00    -0.252 OA
ATOM     13  H   UNL     1      60.477 158.660  40.185  0.00  0.00    +0.151 HD
ENDBRANCH   3   7
BRANCH   6  14
ATOM     14  C   UNL     1      53.356 163.689  41.216  0.00  0.00    -0.009 C 
ATOM     15  C   UNL     1      53.408 164.600  40.217  0.00  0.00    -0.029 C 
ATOM     16  C   UNL     1      52.406 165.630  39.895  0.00  0.00    +0.026 C 
ATOM     17  C   UNL     1      51.358 165.834  40.898  0.00  0.00    +0.007 C 
ATOM     18  C   UNL     1      51.774 165.294  42.217  0.00  0.00    +0.024 C 
ATOM     19  C   UNL     1      52.202 163.815  42.071  0.00  0.00    +0.093 C 
BRANCH  19  20
ATOM     20  N   UNL     1      50.999 163.107  41.835  0.00  0.00    -0.316 N 
ATOM     21  C   UNL     1      50.708 161.732  41.925  0.00  0.00    +0.129 C 
ATOM     22  N   UNL     1      51.540 160.804  42.389  0.00  0.00    -0.229 NA
ATOM     23  C   UNL     1      51.237 159.512  42.426  0.00  0.00    +0.100 C 
ATOM     24  C   UNL     1      50.022 158.999  41.984  0.00  0.00    +0.021 C 
ATOM     25  C   UNL     1      49.122 159.918  41.493  0.00  0.00    +0.004 C 
ATOM     26  C   UNL     1      49.477 161.231  41.475  0.00  0.00    +0.034 C 
ATOM     27  H   UNL     1      50.238 163.670  41.564  0.00  0.00    +0.148 HD
ENDBRANCH  19  20
ENDBRANCH   6  14
BRANCH   1  29
ATOM     28  N   UNL     1      56.878 165.246  40.835  0.00  0.00    -0.325 N 
ATOM     29  C   UNL     1      56.169 164.513  41.809  0.00  0.00    +0.243 C 
ATOM     30  O   UNL     1      55.892 165.051  42.875  0.00  0.00    -0.270 OA
ATOM     31  H   UNL     1      57.107 164.828  39.973  0.00  0.00    +0.145 HD
ATOM     32  H   UNL     1      57.144 166.177  41.016  0.00  0.00    +0.145 HD
ENDBRANCH   1  29
TORSDOF 4
ENDMDL
