REMARK  Name = =
REMARK  4 active torsions:
REMARK  status: ('A' for Active; 'I' for Inactive)
REMARK    1  A    between atoms: C_1  and  C_27
REMARK    2  A    between atoms: C_3  and  N_7
REMARK    3  A    between atoms: C_6  and  C_13
REMARK    4  A    between atoms: C_18  and  N_19
REMARK                            x       y       z     vdW  Elec       q    Type
REMARK                         _______ _______ _______ _____ _____    ______ ____
ROOT
ATOM      1  C   UNL     1      52.322 154.793  27.287  0.00  0.00    +0.054 C 
ATOM      2  C   UNL     1      51.609 155.473  28.299  0.00  0.00    +0.019 C 
ATOM      3  C   UNL     1      51.682 156.835  28.392  0.00  0.00    +0.055 C 
ATOM      4  C   UNL     1      52.449 157.518  27.494  0.00  0.00    +0.015 C 
ATOM      5  C   UNL     1      53.134 156.819  26.513  0.00  0.00    +0.001 C 
ATOM      6  C   UNL     1      53.097 155.427  26.370  0.00  0.00    +0.002 C 
ENDROOT
BRANCH   3   7
ATOM      7  N   UNL     1      50.975 157.551  29.399  0.00  0.00    -0.242 N 
ATOM      8  C   UNL     1      49.695 157.166  30.002  0.00  0.00    +0.121 C 
ATOM      9  C   UNL     1      49.670 157.941  31.283  0.00  0.00    +0.113 C 
ATOM     10  N   UNL     1      50.313 159.185  30.889  0.00  0.00    -0.287 N 
ATOM     11  C   UNL     1      51.367 158.762  30.011  0.00  0.00    +0.308 C 
ATOM     12  O   UNL     1      52.438 159.395  29.847  0.00  0.00    -0.252 OA
ATOM     13  H   UNL     1      50.080 160.102  31.161  0.00  0.00    +0.151 HD
ENDBRANCH   3   7
BRANCH   6  14
ATOM     14  C   UNL     1      53.746 154.776  25.227  0.00  0.00    -0.009 C 
ATOM     15  C   UNL     1      54.598 155.537  24.501  0.00  0.00    -0.029 C 
ATOM     16  C   UNL     1      55.364 155.132  23.311  0.00  0.00    +0.026 C 
ATOM     17  C   UNL     1      54.991 153.844  22.721  0.00  0.00    +0.007 C 
ATOM     18  C   UNL     1      53.634 153.432  23.162  0.00  0.00    +0.024 C 
ATOM     19  C   UNL     1      53.554 153.445  24.706  0.00  0.00    +0.093 C 
BRANCH  19  20
ATOM     20  N   UNL     1      54.339 152.344  25.123  0.00  0.00    -0.316 N 
ATOM     21  C   UNL     1      55.676 152.280  25.561  0.00  0.00    +0.129 C 
ATOM     22  N   UNL     1      56.458 153.333  25.784  0.00  0.00    -0.229 NA
ATOM     23  C   UNL     1      57.725 153.227  26.166  0.00  0.00    +0.100 C 
ATOM     24  C   UNL     1      58.362 152.007  26.371  0.00  0.00    +0.021 C 
ATOM     25  C   UNL     1      57.597 150.883  26.154  0.00  0.00    +0.004 C 
ATOM     26  C   UNL     1      56.304 151.042  25.764  0.00  0.00    +0.034 C 
ATOM     27  H   UNL     1      53.872 151.477  25.104  0.00  0.00    +0.148 HD
ENDBRANCH  19  20
ENDBRANCH   6  14
BRANCH   1  29
ATOM     28  N   UNL     1      50.946 152.800  26.844  0.00  0.00    -0.325 N 
ATOM     29  C   UNL     1      52.144 153.369  27.323  0.00  0.00    +0.243 C 
ATOM     30  O   UNL     1      53.019 152.632  27.764  0.00  0.00    -0.270 OA
ATOM     31  H   UNL     1      50.234 153.379  26.487  0.00  0.00    +0.145 HD
ATOM     32  H   UNL     1      50.821 151.824  26.867  0.00  0.00    +0.145 HD
ENDBRANCH   1  29
TORSDOF 4
