MODEL 1
REMARK VINA RESULT:    -9.836      0.000      0.000
REMARK INTER + INTRA:         -10.741
REMARK INTER:                 -10.411
REMARK INTRA:                  -0.329
REMARK UNBOUND:                -0.329
REMARK  Name = =
REMARK  1 active torsions:
REMARK  status: ('A' for Active; 'I' for Inactive)
REMARK    1  A    between atoms: S_1  and  C_36
REMARK                            x       y       z     vdW  Elec       q    Type
REMARK                         _______ _______ _______ _____ _____    ______ ____
ROOT
ATOM      1  S   UNL     1     -22.373 -42.015  26.852  0.00  0.00    -0.160 S 
ATOM      2  S   UNL     1     -21.971 -41.762  25.300  0.00  0.00    -0.096 S 
ATOM      3  C   UNL     1     -20.335 -41.086  24.777  0.00  0.00    +0.100 C 
ATOM      4  C   UNL     1     -19.861 -42.243  23.850  0.00  0.00    +0.067 C 
ATOM      5  C   UNL     1     -18.999 -41.872  22.714  0.00  0.00    +0.203 C 
ATOM      6  O   UNL     1     -17.781 -42.167  22.681  0.00  0.00    -0.243 OA
ATOM      7  N   UNL     1     -19.540 -41.102  21.641  0.00  0.00    -0.266 NA
ATOM      8  C   UNL     1     -20.966 -41.135  21.335  0.00  0.00    +0.157 C 
ATOM      9  C   UNL     1     -21.162 -40.864  19.894  0.00  0.00    +0.239 C 
ATOM     10  O   UNL     1     -20.178 -41.228  19.146  0.00  0.00    -0.274 OA
ATOM     11  N   UNL     1     -22.289 -40.236  19.330  0.00  0.00    -0.296 N 
ATOM     12  C   UNL     1     -22.996 -39.122  19.913  0.00  0.00    +0.176 C 
ATOM     13  C   UNL     1     -24.393 -39.044  19.421  0.00  0.00    +0.243 C 
ATOM     14  O   UNL     1     -24.783 -39.868  18.521  0.00  0.00    -0.273 OA
ATOM     15  N   UNL     1     -25.304 -38.093  19.941  0.00  0.00    -0.295 N 
ATOM     16  C   UNL     1     -25.465 -37.755  21.334  0.00  0.00    +0.176 C 
ATOM     17  C   UNL     1     -26.824 -38.235  21.740  0.00  0.00    +0.243 C 
ATOM     18  O   UNL     1     -27.718 -38.212  20.880  0.00  0.00    -0.273 OA
ATOM     19  N   UNL     1     -27.101 -38.740  23.020  0.00  0.00    -0.295 N 
ATOM     20  C   UNL     1     -26.221 -39.539  23.844  0.00  0.00    +0.176 C 
ATOM     21  C   UNL     1     -26.322 -39.124  25.275  0.00  0.00    +0.243 C 
ATOM     22  O   UNL     1     -27.079 -38.181  25.541  0.00  0.00    -0.273 OA
ATOM     23  N   UNL     1     -25.608 -39.838  26.242  0.00  0.00    -0.302 N 
ATOM     24  C   UNL     1     -24.504 -40.742  25.975  0.00  0.00    +0.100 C 
ATOM     25  C   UNL     1     -23.668 -40.837  27.250  0.00  0.00    +0.069 C 
ATOM     26  C   UNL     1     -19.373 -41.136  25.899  0.00  0.00    +0.071 C 
ATOM     27  C   UNL     1     -18.046 -41.389  25.446  0.00  0.00    +0.033 C 
ATOM     28  C   UNL     1     -17.170 -41.944  26.430  0.00  0.00    +0.002 C 
ATOM     29  C   UNL     1     -17.521 -42.178  27.723  0.00  0.00    +0.020 C 
ATOM     30  C   UNL     1     -18.876 -41.769  28.067  0.00  0.00    +0.098 C 
ATOM     31  N   UNL     1     -19.544 -41.348  27.100  0.00  0.00    -0.247 NA
ATOM     32  C   UNL     1     -15.956 -42.323  25.924  0.00  0.00    +0.001 C 
ATOM     33  C   UNL     1     -15.655 -42.193  24.619  0.00  0.00    +0.158 C 
ATOM     34  N   UNL     1     -16.447 -41.609  23.698  0.00  0.00    -0.232 N 
ATOM     35  C   UNL     1     -17.655 -41.203  24.181  0.00  0.00    +0.101 C 
ATOM     36  H   UNL     1     -21.260 -41.799  27.605  0.00  0.00    +0.096 HD
ATOM     37  H   UNL     1     -19.054 -41.402  20.795  0.00  0.00    +0.126 HD
ATOM     38  H   UNL     1     -22.620 -40.585  18.471  0.00  0.00    +0.150 HD
ATOM     39  H   UNL     1     -25.878 -37.620  19.295  0.00  0.00    +0.150 HD
ATOM     40  H   UNL     1     -27.986 -38.528  23.396  0.00  0.00    +0.150 HD
ATOM     41  H   UNL     1     -25.877 -39.718  27.181  0.00  0.00    +0.150 HD
ENDROOT
BRANCH   1  42
ATOM     42  C   UNL     1     -22.720 -43.754  27.385  0.00  0.00    +0.152 C 
ATOM     43  O   UNL     1     -23.786 -44.195  26.619  0.00  0.00    -0.346 OA
ATOM     44  C   UNL     1     -24.178 -45.336  27.286  0.00  0.00    +0.143 C 
ATOM     45  C   UNL     1     -24.009 -45.103  28.763  0.00  0.00    +0.035 C 
ATOM     46  C   UNL     1     -23.263 -43.762  28.761  0.00  0.00    +0.043 C 
ENDBRANCH   1  42
TORSDOF 1
ENDMDL
