REMARK  Name = =
REMARK  1 active torsions:
REMARK  status: ('A' for Active; 'I' for Inactive)
REMARK    1  A    between atoms: S_1  and  C_36
REMARK                            x       y       z     vdW  Elec       q    Type
REMARK                         _______ _______ _______ _____ _____    ______ ____
ROOT
ATOM      1  S   UNL     1      -7.732 -43.051  33.143  0.00  0.00    -0.160 S 
ATOM      2  S   UNL     1      -9.276 -42.623  32.882  0.00  0.00    -0.096 S 
ATOM      3  C   UNL     1     -10.527 -42.481  34.232  0.00  0.00    +0.100 C 
ATOM      4  C   UNL     1     -10.949 -40.996  34.039  0.00  0.00    +0.067 C 
ATOM      5  C   UNL     1     -12.339 -40.651  34.385  0.00  0.00    +0.203 C 
ATOM      6  O   UNL     1     -12.620 -39.961  35.394  0.00  0.00    -0.243 OA
ATOM      7  N   UNL     1     -13.410 -41.161  33.592  0.00  0.00    -0.266 NA
ATOM      8  C   UNL     1     -13.205 -41.522  32.194  0.00  0.00    +0.157 C 
ATOM      9  C   UNL     1     -14.476 -41.354  31.455  0.00  0.00    +0.239 C 
ATOM     10  O   UNL     1     -15.255 -40.448  31.938  0.00  0.00    -0.274 OA
ATOM     11  N   UNL     1     -14.872 -42.108  30.334  0.00  0.00    -0.296 N 
ATOM     12  C   UNL     1     -14.648 -43.523  30.166  0.00  0.00    +0.176 C 
ATOM     13  C   UNL     1     -14.657 -43.911  28.734  0.00  0.00    +0.243 C 
ATOM     14  O   UNL     1     -14.931 -43.025  27.851  0.00  0.00    -0.273 OA
ATOM     15  N   UNL     1     -14.350 -45.233  28.328  0.00  0.00    -0.295 N 
ATOM     16  C   UNL     1     -13.275 -46.044  28.844  0.00  0.00    +0.176 C 
ATOM     17  C   UNL     1     -12.295 -46.224  27.726  0.00  0.00    +0.243 C 
ATOM     18  O   UNL     1     -12.749 -46.269  26.572  0.00  0.00    -0.273 OA
ATOM     19  N   UNL     1     -10.909 -46.297  27.934  0.00  0.00    -0.295 N 
ATOM     20  C   UNL     1     -10.142 -45.563  28.915  0.00  0.00    +0.176 C 
ATOM     21  C   UNL     1      -9.087 -46.433  29.515  0.00  0.00    +0.243 C 
ATOM     22  O   UNL     1      -9.039 -47.611  29.135  0.00  0.00    -0.273 OA
ATOM     23  N   UNL     1      -8.184 -45.878  30.426  0.00  0.00    -0.302 N 
ATOM     24  C   UNL     1      -8.359 -44.615  31.120  0.00  0.00    +0.100 C 
ATOM     25  C   UNL     1      -7.507 -44.663  32.387  0.00  0.00    +0.069 C 
ATOM     26  C   UNL     1      -9.863 -42.476  35.553  0.00  0.00    +0.071 C 
ATOM     27  C   UNL     1     -10.550 -41.647  36.486  0.00  0.00    +0.033 C 
ATOM     28  C   UNL     1      -9.753 -41.181  37.578  0.00  0.00    +0.002 C 
ATOM     29  C   UNL     1      -8.451 -41.522  37.776  0.00  0.00    +0.020 C 
ATOM     30  C   UNL     1      -7.916 -42.462  36.801  0.00  0.00    +0.098 C 
ATOM     31  N   UNL     1      -8.705 -42.744  35.876  0.00  0.00    -0.247 NA
ATOM     32  C   UNL     1     -10.395 -40.263  38.365  0.00  0.00    +0.001 C 
ATOM     33  C   UNL     1     -11.645 -39.844  38.098  0.00  0.00    +0.158 C 
ATOM     34  N   UNL     1     -12.428 -40.327  37.112  0.00  0.00    -0.232 N 
ATOM     35  C   UNL     1     -11.820 -41.259  36.326  0.00  0.00    +0.101 C 
ATOM     36  H   UNL     1      -7.542 -43.105  34.489  0.00  0.00    +0.096 HD
ATOM     37  H   UNL     1     -14.143 -40.451  33.604  0.00  0.00    +0.126 HD
ATOM     38  H   UNL     1     -15.338 -41.633  29.609  0.00  0.00    +0.150 HD
ATOM     39  H   UNL     1     -14.921 -45.633  27.633  0.00  0.00    +0.150 HD
ATOM     40  H   UNL     1     -10.407 -46.912  27.351  0.00  0.00    +0.150 HD
ATOM     41  H   UNL     1      -7.361 -46.386  30.612  0.00  0.00    +0.150 HD
ENDROOT
BRANCH   1  42
ATOM     42  C   UNL     1      -6.412 -41.817  32.739  0.00  0.00    +0.152 C 
ATOM     43  O   UNL     1      -6.004 -42.086  31.443  0.00  0.00    -0.346 OA
ATOM     44  C   UNL     1      -4.833 -41.365  31.345  0.00  0.00    +0.143 C 
ATOM     45  C   UNL     1      -4.126 -41.425  32.672  0.00  0.00    +0.035 C 
ATOM     46  C   UNL     1      -5.200 -42.093  33.542  0.00  0.00    +0.043 C 
ENDBRANCH   1  42
TORSDOF 1
