MODEL 1
REMARK VINA RESULT:    -5.156      0.000      0.000
REMARK INTER + INTRA:         -12.432
REMARK INTER:                  -9.527
REMARK INTRA:                  -2.904
REMARK UNBOUND:                -2.904
REMARK  Name = =
REMARK  17 active torsions:
REMARK  status: ('A' for Active; 'I' for Inactive)
REMARK    1  A    between atoms: S_1  and  P_2
REMARK    2  A    between atoms: S_1  and  C_9
REMARK    3  A    between atoms: P_2  and  O_13
REMARK    4  A    between atoms: P_2  and  O_28
REMARK    5  A    between atoms: O_13  and  C_14
REMARK    6  A    between atoms: C_14  and  C_16
REMARK    7  A    between atoms: C_14  and  O_27
REMARK    8  A    between atoms: N_18  and  N_19
REMARK    9  A    between atoms: N_18  and  N_25
REMARK   10  A    between atoms: C_20  and  C_22
REMARK   11  A    between atoms: C_22  and  O_24
REMARK   12  A    between atoms: O_28  and  P_29
REMARK   13  A    between atoms: P_29  and  O_31
REMARK   14  A    between atoms: P_29  and  O_32
REMARK   15  A    between atoms: O_32  and  P_33
REMARK   16  A    between atoms: P_33  and  O_35
REMARK   17  A    between atoms: P_33  and  O_36
REMARK                            x       y       z     vdW  Elec       q    Type
REMARK                         _______ _______ _______ _____ _____    ______ ____
ROOT
ATOM      1  P   UNL     1      58.639 160.601  40.095  0.00  0.00    +0.395 P 
ATOM      2  O   UNL     1      57.658 159.460  40.404  0.00  0.00    -0.246 OA
ENDROOT
BRANCH   1   3
ATOM      3  S   UNL     1      59.380 160.031  38.410  0.00  0.00    -0.079 S 
ATOM      4  H   UNL     1      60.450 159.213  38.598  0.00  0.00    +0.108 HD
BRANCH   3  10
ATOM      5  C   UNL     1      61.340 163.437  37.422  0.00  0.00    +0.016 C 
ATOM      6  C   UNL     1      61.003 162.243  38.044  0.00  0.00    +0.140 C 
ATOM      7  O   UNL     1      61.937 161.956  39.006  0.00  0.00    -0.475 OA
ATOM      8  C   UNL     1      63.039 162.845  38.897  0.00  0.00    +0.210 C 
ATOM      9  C   UNL     1      62.586 163.988  38.024  0.00  0.00    +0.077 C 
ATOM     10  C   UNL     1      59.877 161.575  37.641  0.00  0.00    +0.056 C 
ATOM     11  C   UNL     1      59.108 162.098  36.629  0.00  0.00    +0.009 C 
ATOM     12  C   UNL     1      59.428 163.280  36.002  0.00  0.00    +0.000 C 
ATOM     13  C   UNL     1      60.566 163.974  36.399  0.00  0.00    -0.001 C 
ENDBRANCH   3  10
ENDBRANCH   1   3
BRANCH   1  14
ATOM     14  O   UNL     1      59.849 160.684  41.254  0.00  0.00    -0.200 OA
BRANCH  14  15
ATOM     15  P   UNL     1      60.058 159.204  42.035  0.00  0.00    +0.491 P 
ATOM     16  O   UNL     1      58.922 159.027  43.034  0.00  0.00    -0.226 OA
BRANCH  15  17
ATOM     17  O   UNL     1      60.010 157.907  40.981  0.00  0.00    -0.302 OA
ATOM     18  H   UNL     1      59.280 157.318  41.228  0.00  0.00    +0.222 HD
ENDBRANCH  15  17
BRANCH  15  19
ATOM     19  O   UNL     1      61.506 159.130  42.880  0.00  0.00    -0.186 OA
BRANCH  19  20
ATOM     20  P   UNL     1      62.700 159.918  42.001  0.00  0.00    +0.481 P 
ATOM     21  O   UNL     1      64.097 159.561  42.468  0.00  0.00    -0.227 OA
BRANCH  20  22
ATOM     22  O   UNL     1      62.581 159.500  40.365  0.00  0.00    -0.302 OA
ATOM     23  H   UNL     1      61.801 159.928  39.979  0.00  0.00    +0.222 HD
ENDBRANCH  20  22
BRANCH  20  24
ATOM     24  O   UNL     1      62.555 161.601  42.116  0.00  0.00    -0.302 OA
ATOM     25  H   UNL     1      62.179 161.835  42.979  0.00  0.00    +0.222 HD
ENDBRANCH  20  24
ENDBRANCH  19  20
ENDBRANCH  15  19
ENDBRANCH  14  15
ENDBRANCH   1  14
BRANCH   1  26
ATOM     26  O   UNL     1      57.824 162.062  39.960  0.00  0.00    -0.258 OA
BRANCH  26  27
ATOM     27  C   UNL     1      57.658 162.559  41.251  0.00  0.00    +0.265 C 
ATOM     28  C   UNL     1      58.942 163.236  41.735  0.00  0.00    +0.072 C 
BRANCH  27  29
ATOM     29  C   UNL     1      56.580 163.548  41.394  0.00  0.00    +0.315 C 
ATOM     30  O   UNL     1      56.802 164.806  41.276  0.00  0.00    -0.266 OA
ATOM     31  N   UNL     1      55.264 163.116  41.673  0.00  0.00    -0.062 N 
BRANCH  31  32
ATOM     32  N   UNL     1      54.197 164.035  41.874  0.00  0.00    -0.199 N 
ATOM     33  C   UNL     1      53.341 164.481  40.856  0.00  0.00    +0.339 C 
ATOM     34  O   UNL     1      53.535 164.036  39.679  0.00  0.00    -0.261 OA
ATOM     35  H   UNL     1      54.050 164.380  42.785  0.00  0.00    +0.176 HD
BRANCH  33  36
ATOM     36  C   UNL     1      52.246 165.418  41.070  0.00  0.00    +0.394 C 
ATOM     37  O   UNL     1      51.901 165.574  42.289  0.00  0.00    -0.240 OA
BRANCH  36  38
ATOM     38  O   UNL     1      51.589 166.121  40.100  0.00  0.00    -0.474 OA
ATOM     39  H   UNL     1      51.385 167.026  40.233  0.00  0.00    +0.296 HD
ENDBRANCH  36  38
ENDBRANCH  33  36
ENDBRANCH  31  32
BRANCH  31  40
ATOM     40  N   UNL     1      54.944 161.770  41.783  0.00  0.00    +0.071 NA
ATOM     41  O   UNL     1      54.666 161.024  40.832  0.00  0.00    -0.124 OA
ENDBRANCH  31  40
ENDBRANCH  27  29
BRANCH  27  42
ATOM     42  O   UNL     1      57.406 161.470  42.062  0.00  0.00    -0.357 OA
ATOM     43  H   UNL     1      57.696 160.660  41.613  0.00  0.00    +0.213 HD
ENDBRANCH  27  42
ENDBRANCH  26  27
ENDBRANCH   1  26
TORSDOF 17
ENDMDL
