REMARK  Name = =
REMARK  1 active torsions:
REMARK  status: ('A' for Active; 'I' for Inactive)
REMARK    1  A    between atoms: C_11  and  C_15
REMARK                            x       y       z     vdW  Elec       q    Type
REMARK                         _______ _______ _______ _____ _____    ______ ____
ROOT
ATOM      1  N   UNL     1     -14.604 -43.984  27.582  0.00  0.00    -0.245 NA
ATOM      2  C   UNL     1     -15.346 -43.288  28.458  0.00  0.00    +0.081 C 
ATOM      3  C   UNL     1     -14.895 -43.245  29.765  0.00  0.00    +0.018 C 
ATOM      4  C   UNL     1     -13.733 -43.892  30.129  0.00  0.00    +0.003 C 
ATOM      5  C   UNL     1     -12.992 -44.604  29.186  0.00  0.00    +0.018 C 
ATOM      6  C   UNL     1     -13.468 -44.626  27.898  0.00  0.00    +0.081 C 
ATOM      7  C   UNL     1     -12.719 -45.322  26.966  0.00  0.00    +0.019 C 
ATOM      8  C   UNL     1     -11.547 -45.956  27.346  0.00  0.00    +0.002 C 
ATOM      9  C   UNL     1     -11.088 -45.919  28.652  0.00  0.00    +0.000 C 
ATOM     10  C   UNL     1     -11.818 -45.231  29.600  0.00  0.00    +0.001 C 
ATOM     11  C   UNL     1     -15.633 -42.503  30.666  0.00  0.00    +0.004 C 
ATOM     12  C   UNL     1     -16.785 -41.832  30.252  0.00  0.00    +0.000 C 
ATOM     13  C   UNL     1     -17.233 -41.875  28.953  0.00  0.00    +0.002 C 
ATOM     14  C   UNL     1     -16.495 -42.618  28.046  0.00  0.00    +0.019 C 
ENDROOT
BRANCH  11  15
ATOM     15  C   UNL     1     -15.221 -42.478  32.060  0.00  0.00    +0.030 C 
ATOM     16  C   UNL     1     -15.388 -41.407  32.908  0.00  0.00    +0.167 C 
ATOM     17  C   UNL     1     -15.014 -41.447  34.233  0.00  0.00    +0.167 C 
ATOM     18  C   UNL     1     -14.447 -42.593  34.755  0.00  0.00    +0.032 C 
ATOM     19  C   UNL     1     -14.265 -43.685  33.941  0.00  0.00    +0.002 C 
ATOM     20  C   UNL     1     -14.654 -43.621  32.594  0.00  0.00    +0.002 C 
ATOM     21  F   UNL     1     -15.178 -40.391  35.052  0.00  0.00    -0.202 F 
ATOM     22  F   UNL     1     -15.939 -40.279  32.406  0.00  0.00    -0.202 F 
ENDBRANCH  11  15
TORSDOF 1
