REMARK  Name = =
REMARK  7 active torsions:
REMARK  status: ('A' for Active; 'I' for Inactive)
REMARK    1  A    between atoms: N_1  and  C_20
REMARK    2  A    between atoms: C_20  and  C_23
REMARK    3  A    between atoms: C_22  and  C_24
REMARK    4  A    between atoms: C_24  and  O_32
REMARK    5  A    between atoms: C_27  and  S_29
REMARK    6  A    between atoms: O_32  and  N_33
REMARK    7  A    between atoms: C_36  and  C_37
REMARK                            x       y       z     vdW  Elec       q    Type
REMARK                         _______ _______ _______ _____ _____    ______ ____
ROOT
ATOM      1  N   UNL     1      51.044 159.072  29.772  0.00  0.00    -0.297 N 
ATOM      2  C   UNL     1      50.271 158.329  30.540  0.00  0.00    +0.096 A 
ATOM      3  C   UNL     1      49.329 158.633  31.487  0.00  0.00    +0.148 C 
ATOM      4  N   UNL     1      48.668 157.638  32.145  0.00  0.00    -0.228 NA
ATOM      5  C   UNL     1      48.887 156.361  31.919  0.00  0.00    +0.100 C 
ATOM      6  C   UNL     1      49.831 156.009  30.974  0.00  0.00    +0.022 C 
ATOM      7  C   UNL     1      50.517 156.971  30.290  0.00  0.00    +0.022 A 
ATOM      8  C   UNL     1      51.487 156.929  29.329  0.00  0.00    +0.018 A 
ATOM      9  C   UNL     1      51.805 158.223  29.016  0.00  0.00    +0.065 A 
ATOM     10  C   UNL     1      52.761 158.456  28.069  0.00  0.00    +0.018 C 
ATOM     11  C   UNL     1      53.376 157.374  27.458  0.00  0.00    +0.001 C 
ATOM     12  C   UNL     1      53.049 156.076  27.779  0.00  0.00    +0.000 C 
ATOM     13  C   UNL     1      52.080 155.832  28.738  0.00  0.00    +0.001 C 
ATOM     14  N   UNL     1      49.003 159.940  31.911  0.00  0.00    -0.289 N 
ATOM     15  C   UNL     1      49.984 160.689  32.653  0.00  0.00    +0.111 C 
ATOM     16  C   UNL     1      49.740 162.177  32.679  0.00  0.00    +0.110 C 
ATOM     17  N   UNL     1      48.330 162.401  32.924  0.00  0.00    -0.214 NA
ATOM     18  C   UNL     1      47.611 161.946  31.750  0.00  0.00    +0.110 C 
ATOM     19  C   UNL     1      47.683 160.442  31.607  0.00  0.00    +0.111 C 
ENDROOT
BRANCH   1  20
ATOM     20  C   UNL     1      51.096 160.472  29.624  0.00  0.00    +0.107 C 
ATOM     21  C   UNL     1      50.165 161.174  29.011  0.00  0.00    +0.028 C 
BRANCH  20  23
ATOM     22  C   UNL     1      53.181 161.753  30.663  0.00  0.00    -0.029 C 
ATOM     23  C   UNL     1      52.246 161.168  30.201  0.00  0.00    -0.042 C 
BRANCH  22  24
ATOM     24  C   UNL     1      54.325 162.471  31.207  0.00  0.00    +0.267 C 
ATOM     25  O   UNL     1      55.443 162.376  30.408  0.00  0.00    -0.323 OA
ATOM     26  C   UNL     1      56.556 162.610  31.175  0.00  0.00    +0.157 C 
ATOM     27  C   UNL     1      56.146 162.529  32.629  0.00  0.00    +0.089 C 
ATOM     28  C   UNL     1      54.803 161.800  32.496  0.00  0.00    +0.085 C 
BRANCH  27  29
ATOM     29  S   UNL     1      57.278 161.665  33.635  0.00  0.00    -0.090 S 
ATOM     30  O   UNL     1      58.600 161.443  32.897  0.00  0.00    -0.174 OA
ATOM     31  C   UNL     1      57.764 162.628  34.808  0.00  0.00    +0.076 C 
ATOM     32  H   UNL     1      56.655 160.520  34.023  0.00  0.00    +0.113 HD
ENDBRANCH  27  29
BRANCH  24  33
ATOM     33  O   UNL     1      54.023 163.796  31.531  0.00  0.00    -0.205 OA
BRANCH  33  34
ATOM     34  N   UNL     1      53.178 164.611  30.852  0.00  0.00    +0.104 NA
ATOM     35  O   UNL     1      53.261 164.607  29.598  0.00  0.00    -0.069 OA
ENDBRANCH  33  34
ENDBRANCH  24  33
ENDBRANCH  22  24
ENDBRANCH  20  23
ENDBRANCH   1  20
TORSDOF 6
REMARK  Name = =
REMARK  7 active torsions:
REMARK  status: ('A' for Active; 'I' for Inactive)
REMARK    1  A    between atoms: N_1  and  C_20
REMARK    2  A    between atoms: C_20  and  C_23
REMARK    3  A    between atoms: C_22  and  C_24
REMARK    4  A    between atoms: C_24  and  O_32
REMARK    5  A    between atoms: C_27  and  S_29
REMARK    6  A    between atoms: O_32  and  N_33
REMARK    7  A    between atoms: C_36  and  C_37
REMARK                            x       y       z     vdW  Elec       q    Type
REMARK                         _______ _______ _______ _____ _____    ______ ____
ROOT
ATOM      1  C   UNL     1      54.471 152.747  24.639  0.00  0.00    +0.003 C 
ATOM      2  C   UNL     1      54.634 151.396  24.867  0.00  0.00    +0.021 C 
ATOM      3  C   UNL     1      54.076 150.485  24.008  0.00  0.00    +0.099 C 
ATOM      4  N   UNL     1      53.366 150.872  22.938  0.00  0.00    -0.242 NA
ATOM      5  C   UNL     1      53.196 152.181  22.697  0.00  0.00    +0.099 C 
ATOM      6  C   UNL     1      53.741 153.103  23.537  0.00  0.00    +0.021 C 
ENDROOT
BRANCH   2   7
ATOM      7  C   UNL     1      55.366 151.025  25.972  0.00  0.00    +0.021 C 
ATOM      8  C   UNL     1      55.910 151.965  26.808  0.00  0.00    +0.106 C 
ATOM      9  N   UNL     1      55.736 153.270  26.563  0.00  0.00    -0.127 NA
ENDBRANCH   2   7
TORSDOF 1
