REMARK  Name = =
REMARK  3 active torsions:
REMARK  status: ('A' for Active; 'I' for Inactive)
REMARK    1  A    between atoms: C_1  and  S_7
REMARK    2  A    between atoms: C_4  and  O_11
REMARK    3  A    between atoms: S_7  and  N_10
REMARK                            x       y       z     vdW  Elec       q    Type
REMARK                         _______ _______ _______ _____ _____    ______ ____
ROOT
ATOM      1  C   UNL     1     -12.002 -43.541  29.064  0.00  0.00    +0.122 C 
ATOM      2  C   UNL     1     -13.195 -44.217  29.162  0.00  0.00    +0.023 C 
ATOM      3  C   UNL     1     -14.227 -44.014  28.258  0.00  0.00    +0.038 C 
ATOM      4  C   UNL     1     -14.042 -43.102  27.230  0.00  0.00    +0.134 C 
ATOM      5  C   UNL     1     -12.845 -42.412  27.118  0.00  0.00    +0.038 C 
ATOM      6  C   UNL     1     -11.841 -42.637  28.030  0.00  0.00    +0.023 C 
ENDROOT
BRANCH   1   7
ATOM      7  S   UNL     1     -10.682 -43.787  30.201  0.00  0.00    +0.057 S 
ATOM      8  O   UNL     1      -9.816 -42.563  30.136  0.00  0.00    -0.153 OA
ATOM      9  O   UNL     1     -11.245 -43.979  31.599  0.00  0.00    -0.153 OA
BRANCH   7  10
ATOM     10  N   UNL     1      -9.774 -45.154  29.695  0.00  0.00    -0.203 NA
ATOM     11  H   UNL     1     -10.361 -45.987  29.738  0.00  0.00    +0.144 HD
ATOM     12  H   UNL     1      -8.968 -45.273  30.309  0.00  0.00    +0.144 HD
ENDBRANCH   7  10
ENDBRANCH   1   7
BRANCH   4  13
ATOM     13  O   UNL     1     -15.079 -42.897  26.323  0.00  0.00    -0.506 OA
ATOM     14  H   UNL     1     -15.882 -43.372  26.414  0.00  0.00    +0.292 HD
ENDBRANCH   4  13
TORSDOF 3
