REMARK  Name = =
REMARK  10 active torsions:
REMARK  status: ('A' for Active; 'I' for Inactive)
REMARK    1  A    between atoms: S_1  and  C_4
REMARK    2  A    between atoms: S_1  and  N_23
REMARK    3  A    between atoms: C_7  and  O_22
REMARK    4  A    between atoms: C_9  and  C_10
REMARK    5  A    between atoms: N_23  and  C_24
REMARK    6  A    between atoms: N_23  and  O_28
REMARK    7  A    between atoms: C_24  and  C_25
REMARK    8  A    between atoms: C_25  and  O_27
REMARK    9  A    between atoms: O_28  and  C_29
REMARK   10  A    between atoms: C_30  and  C_35
REMARK                            x       y       z     vdW  Elec       q    Type
REMARK                         _______ _______ _______ _____ _____    ______ ____
ROOT
ATOM      1  S   UNL     1     -11.929 -42.888  30.366  0.00  0.00    +0.093 S 
ATOM      2  O   UNL     1     -11.309 -41.598  29.937  0.00  0.00    -0.150 OA
ATOM      3  O   UNL     1     -13.326 -42.637  30.934  0.00  0.00    -0.150 OA
ENDROOT
BRANCH   1   4
ATOM      4  C   UNL     1     -12.018 -44.069  29.069  0.00  0.00    +0.122 C 
ATOM      5  C   UNL     1     -10.995 -44.987  28.956  0.00  0.00    +0.023 C 
ATOM      6  C   UNL     1     -11.031 -45.975  27.993  0.00  0.00    +0.038 C 
ATOM      7  C   UNL     1     -12.102 -46.054  27.126  0.00  0.00    +0.133 C 
ATOM      8  C   UNL     1     -13.116 -45.129  27.253  0.00  0.00    +0.034 C 
ATOM      9  C   UNL     1     -13.087 -44.144  28.206  0.00  0.00    +0.002 C 
BRANCH   9  10
ATOM     10  C   UNL     1     -14.149 -43.175  28.287  0.00  0.00    +0.053 C 
ATOM     11  C   UNL     1     -15.376 -43.611  29.097  0.00  0.00    +0.092 C 
ATOM     12  N   UNL     1     -16.382 -42.587  28.715  0.00  0.00    -0.335 N 
ATOM     13  C   UNL     1     -15.914 -41.977  27.528  0.00  0.00    +0.026 C 
ATOM     14  C   UNL     1     -14.872 -42.910  27.024  0.00  0.00    +0.065 C 
ATOM     15  C   UNL     1     -14.827 -43.252  25.769  0.00  0.00    +0.002 C 
ATOM     16  C   UNL     1     -15.782 -42.743  24.778  0.00  0.00    +0.078 C 
ATOM     17  N   UNL     1     -15.469 -43.266  23.636  0.00  0.00    -0.244 NA
ATOM     18  C   UNL     1     -14.342 -44.125  23.741  0.00  0.00    +0.099 C 
ATOM     19  C   UNL     1     -13.935 -44.141  24.993  0.00  0.00    +0.018 C 
ATOM     20  C   UNL     1     -16.815 -41.832  25.231  0.00  0.00    +0.020 C 
ATOM     21  C   UNL     1     -16.831 -41.508  26.529  0.00  0.00    +0.012 C 
ATOM     22  H   UNL     1     -17.214 -42.374  29.196  0.00  0.00    +0.147 HD
ENDBRANCH   9  10
BRANCH   7  23
ATOM     23  O   UNL     1     -12.093 -47.061  26.178  0.00  0.00    -0.506 OA
ATOM     24  H   UNL     1     -12.805 -47.142  25.574  0.00  0.00    +0.292 HD
ENDBRANCH   7  23
ENDBRANCH   1   4
BRANCH   1  25
ATOM     25  N   UNL     1     -10.999 -43.508  31.658  0.00  0.00    +0.015 NA
BRANCH  25  26
ATOM     26  C   UNL     1      -9.625 -43.646  31.319  0.00  0.00    +0.248 C 
BRANCH  26  27
ATOM     27  C   UNL     1      -9.133 -45.038  31.410  0.00  0.00    +0.336 C 
ATOM     28  O   UNL     1      -7.889 -45.213  31.120  0.00  0.00    -0.249 OA
BRANCH  27  29
ATOM     29  O   UNL     1      -9.920 -46.109  31.778  0.00  0.00    -0.479 OA
ATOM     30  H   UNL     1     -10.824 -45.976  31.988  0.00  0.00    +0.295 HD
ENDBRANCH  27  29
ENDBRANCH  26  27
ENDBRANCH  25  26
BRANCH  25  31
ATOM     31  O   UNL     1     -11.298 -42.922  32.815  0.00  0.00    -0.379 OA
BRANCH  31  32
ATOM     32  C   UNL     1     -10.548 -42.300  33.757  0.00  0.00    +0.185 C 
ATOM     33  C   UNL     1     -11.217 -41.436  34.619  0.00  0.00    +0.118 C 
ATOM     34  N   UNL     1     -10.552 -40.785  35.576  0.00  0.00    -0.241 NA
ATOM     35  C   UNL     1      -9.237 -40.923  35.757  0.00  0.00    +0.099 C 
ATOM     36  C   UNL     1      -8.533 -41.766  34.930  0.00  0.00    +0.024 C 
ATOM     37  C   UNL     1      -9.195 -42.450  33.934  0.00  0.00    +0.043 C 
BRANCH  33  38
ATOM     38  C   UNL     1     -12.650 -41.210  34.504  0.00  0.00    +0.024 C 
ATOM     39  C   UNL     1     -13.315 -40.523  35.491  0.00  0.00    +0.022 C 
ATOM     40  C   UNL     1     -14.684 -40.294  35.406  0.00  0.00    +0.099 C 
ATOM     41  N   UNL     1     -15.295 -40.780  34.315  0.00  0.00    -0.242 NA
ATOM     42  C   UNL     1     -14.683 -41.449  33.340  0.00  0.00    +0.099 C 
ATOM     43  C   UNL     1     -13.330 -41.686  33.406  0.00  0.00    +0.022 C 
ENDBRANCH  33  38
ENDBRANCH  31  32
ENDBRANCH  25  31
ENDBRANCH   1  25
TORSDOF 10
