MODEL 1
REMARK VINA RESULT:   -10.306      0.000      0.000
REMARK INTER + INTRA:         -13.111
REMARK INTER:                 -13.318
REMARK INTRA:                   0.207
REMARK UNBOUND:                 0.207
REMARK  Name = =
REMARK  6 active torsions:
REMARK  status: ('A' for Active; 'I' for Inactive)
REMARK    1  A    between atoms: C_1  and  C_15
REMARK    2  A    between atoms: C_14  and  O_25
REMARK    3  A    between atoms: C_15  and  C_16
REMARK    4  A    between atoms: O_25  and  P_26
REMARK    5  A    between atoms: P_26  and  O_28
REMARK    6  A    between atoms: P_26  and  O_29
REMARK                            x       y       z     vdW  Elec       q    Type
REMARK                         _______ _______ _______ _____ _____    ______ ____
ROOT
ATOM      1  C   UNL     1      51.688 156.696  29.270  0.00  0.00    -0.015 C 
ATOM      2  C   UNL     1      52.297 156.151  28.157  0.00  0.00    +0.014 C 
ATOM      3  C   UNL     1      52.204 154.770  27.958  0.00  0.00    +0.081 C 
ATOM      4  N   UNL     1      51.540 153.989  28.827  0.00  0.00    -0.244 NA
ATOM      5  C   UNL     1      50.940 154.540  29.923  0.00  0.00    +0.099 C 
ATOM      6  C   UNL     1      51.010 155.884  30.150  0.00  0.00    +0.017 C 
ATOM      7  C   UNL     1      52.819 154.237  26.819  0.00  0.00    +0.022 C 
ATOM      8  C   UNL     1      53.498 155.010  25.905  0.00  0.00    +0.036 C 
ATOM      9  C   UNL     1      53.565 156.366  26.138  0.00  0.00    +0.003 C 
ATOM     10  C   UNL     1      52.968 156.936  27.256  0.00  0.00    +0.001 C 
ATOM     11  C   UNL     1      54.247 157.187  25.228  0.00  0.00    +0.000 C 
ATOM     12  C   UNL     1      54.846 156.649  24.114  0.00  0.00    +0.003 C 
ATOM     13  C   UNL     1      54.775 155.314  23.893  0.00  0.00    +0.037 C 
ATOM     14  C   UNL     1      54.092 154.432  24.789  0.00  0.00    +0.149 C 
ENDROOT
BRANCH   1  15
ATOM     15  C   UNL     1      51.790 158.120  29.548  0.00  0.00    +0.054 C 
BRANCH  15  16
ATOM     16  C   UNL     1      50.536 158.645  30.148  0.00  0.00    +0.006 C 
ATOM     17  C   UNL     1      50.393 159.705  30.910  0.00  0.00    +0.052 C 
ATOM     18  C   UNL     1      48.980 159.845  31.273  0.00  0.00    +0.161 C 
ATOM     19  N   UNL     1      48.551 160.815  32.020  0.00  0.00    -0.226 NA
ATOM     20  C   UNL     1      49.428 161.829  32.548  0.00  0.00    +0.252 C 
ATOM     21  N   UNL     1      50.802 161.675  32.180  0.00  0.00    -0.243 NA
ATOM     22  C   UNL     1      51.281 160.736  31.445  0.00  0.00    +0.098 C 
ATOM     23  N   UNL     1      48.324 158.740  30.633  0.00  0.00    -0.226 NA
ATOM     24  C   UNL     1      49.205 158.057  29.993  0.00  0.00    +0.097 C 
ENDBRANCH  15  16
ENDBRANCH   1  15
BRANCH  14  25
ATOM     25  O   UNL     1      54.057 153.154  24.524  0.00  0.00    -0.403 OA
BRANCH  25  26
ATOM     26  P   UNL     1      54.318 151.611  24.859  0.00  0.00    +0.528 P 
ATOM     27  O   UNL     1      54.003 150.614  23.727  0.00  0.00    -0.216 OA
BRANCH  26  28
ATOM     28  O   UNL     1      53.314 151.045  26.159  0.00  0.00    -0.293 OA
ATOM     29  H   UNL     1      53.353 151.675  26.896  0.00  0.00    +0.223 HD
ENDBRANCH  26  28
BRANCH  26  30
ATOM     30  O   UNL     1      55.936 151.348  25.381  0.00  0.00    -0.293 OA
ATOM     31  H   UNL     1      55.960 151.296  26.349  0.00  0.00    +0.223 HD
ENDBRANCH  26  30
ENDBRANCH  25  26
ENDBRANCH  14  25
TORSDOF 6
ENDMDL
