MODEL 1
REMARK VINA RESULT:    -8.625      0.000      0.000
REMARK INTER + INTRA:         -12.354
REMARK INTER:                 -11.398
REMARK INTRA:                  -0.956
REMARK UNBOUND:                -0.956
REMARK  Name = =
REMARK  7 active torsions:
REMARK  status: ('A' for Active; 'I' for Inactive)
REMARK    1  A    between atoms: C_1  and  C_25
REMARK    2  A    between atoms: C_15  and  C_35
REMARK    3  A    between atoms: C_19  and  C_31
REMARK    4  A    between atoms: C_22  and  O_30
REMARK    5  A    between atoms: C_24  and  O_29
REMARK    6  A    between atoms: C_31  and  C_32
REMARK    7  A    between atoms: C_32  and  O_34
REMARK                            x       y       z     vdW  Elec       q    Type
REMARK                         _______ _______ _______ _____ _____    ______ ____
ROOT
ATOM      1  C   UNL     1      55.229 160.853  42.024  0.00  0.00    -0.018 C 
ATOM      2  C   UNL     1      56.351 160.490  42.736  0.00  0.00    -0.008 C 
ATOM      3  C   UNL     1      57.486 160.000  42.092  0.00  0.00    -0.022 C 
ATOM      4  C   UNL     1      57.519 159.864  40.724  0.00  0.00    -0.021 C 
ATOM      5  C   UNL     1      56.385 160.229  39.991  0.00  0.00    -0.005 C 
ATOM      6  C   UNL     1      55.271 160.712  40.656  0.00  0.00    -0.004 C 
ATOM      7  C   UNL     1      58.732 159.347  40.085  0.00  0.00    +0.052 C 
ATOM      8  C   UNL     1      59.952 159.843  40.800  0.00  0.00    -0.026 C 
ATOM      9  C   UNL     1      59.924 159.965  42.113  0.00  0.00    -0.022 C 
ATOM     10  C   UNL     1      61.116 160.445  42.794  0.00  0.00    -0.005 C 
ATOM     11  C   UNL     1      62.226 160.756  42.103  0.00  0.00    -0.005 C 
ATOM     12  C   UNL     1      62.279 160.626  40.683  0.00  0.00    -0.026 C 
ATOM     13  C   UNL     1      61.111 160.182  39.978  0.00  0.00    -0.030 C 
ATOM     14  C   UNL     1      60.784 161.129  38.839  0.00  0.00    +0.032 C 
ATOM     15  C   UNL     1      61.743 162.297  38.910  0.00  0.00    +0.047 C 
ATOM     16  C   UNL     1      63.164 161.794  38.682  0.00  0.00    +0.011 C 
ATOM     17  C   UNL     1      63.478 160.940  39.919  0.00  0.00    +0.026 C 
ATOM     18  C   UNL     1      58.678 159.612  42.874  0.00  0.00    +0.052 C 
ENDROOT
BRANCH   1  25
ATOM     19  C   UNL     1      50.477 160.277  41.818  0.00  0.00    +0.056 C 
ATOM     20  C   UNL     1      51.605 161.057  42.035  0.00  0.00    +0.137 C 
ATOM     21  C   UNL     1      52.801 160.532  42.439  0.00  0.00    +0.049 C 
ATOM     22  C   UNL     1      52.855 159.163  42.630  0.00  0.00    +0.136 C 
ATOM     23  C   UNL     1      51.730 158.356  42.418  0.00  0.00    +0.073 C 
ATOM     24  C   UNL     1      50.556 158.907  42.018  0.00  0.00    +0.136 C 
ATOM     25  C   UNL     1      53.979 161.379  42.668  0.00  0.00    +0.054 C 
ATOM     26  C   UNL     1      53.752 162.815  42.363  0.00  0.00    +0.056 C 
ATOM     27  C   UNL     1      52.629 163.147  41.453  0.00  0.00    +0.206 C 
ATOM     28  O   UNL     1      51.473 162.417  41.822  0.00  0.00    -0.476 OA
BRANCH  24  29
ATOM     29  O   UNL     1      49.392 158.171  41.785  0.00  0.00    -0.506 OA
ATOM     30  H   UNL     1      48.980 158.198  40.943  0.00  0.00    +0.292 HD
ENDBRANCH  24  29
BRANCH  22  31
ATOM     31  O   UNL     1      54.029 158.588  43.034  0.00  0.00    -0.506 OA
ATOM     32  H   UNL     1      54.121 158.279  43.915  0.00  0.00    +0.292 HD
ENDBRANCH  22  31
BRANCH  19  33
ATOM     33  C   UNL     1      49.206 160.921  41.380  0.00  0.00    +0.142 C 
BRANCH  33  34
ATOM     34  C   UNL     1      48.244 161.055  42.484  0.00  0.00    +0.318 C 
ATOM     35  O   UNL     1      48.099 162.178  43.034  0.00  0.00    -0.250 OA
BRANCH  34  36
ATOM     36  O   UNL     1      47.531 159.932  42.877  0.00  0.00    -0.480 OA
ATOM     37  H   UNL     1      47.319 159.268  42.250  0.00  0.00    +0.295 HD
ENDBRANCH  34  36
ENDBRANCH  33  34
ENDBRANCH  19  33
ENDBRANCH   1  25
BRANCH  15  38
ATOM     38  C   UNL     1      61.439 163.362  37.926  0.00  0.00    +0.081 C 
ATOM     39  N   UNL     1      62.085 164.543  37.941  0.00  0.00    -0.152 NA
ATOM     40  N   UNL     1      61.864 165.520  37.107  0.00  0.00    -0.147 NA
ATOM     41  C   UNL     1      60.953 165.417  36.148  0.00  0.00    +0.122 C 
ATOM     42  C   UNL     1      60.211 164.237  36.027  0.00  0.00    +0.024 C 
ATOM     43  C   UNL     1      60.472 163.222  36.927  0.00  0.00    +0.018 C 
ENDBRANCH  15  38
TORSDOF 7
ENDMDL
