REMARK  Name = =
REMARK  7 active torsions:
REMARK  status: ('A' for Active; 'I' for Inactive)
REMARK    1  A    between atoms: C_1  and  C_25
REMARK    2  A    between atoms: C_15  and  C_35
REMARK    3  A    between atoms: C_19  and  C_31
REMARK    4  A    between atoms: C_22  and  O_30
REMARK    5  A    between atoms: C_24  and  O_29
REMARK    6  A    between atoms: C_31  and  C_32
REMARK    7  A    between atoms: C_32  and  O_34
REMARK                            x       y       z     vdW  Elec       q    Type
REMARK                         _______ _______ _______ _____ _____    ______ ____
ROOT
ATOM      1  C   UNL     1      51.743 157.347  29.384  0.00  0.00    -0.018 C 
ATOM      2  C   UNL     1      50.995 156.224  29.106  0.00  0.00    -0.008 C 
ATOM      3  C   UNL     1      51.201 155.492  27.938  0.00  0.00    -0.022 C 
ATOM      4  C   UNL     1      52.159 155.871  27.026  0.00  0.00    -0.021 C 
ATOM      5  C   UNL     1      52.923 157.010  27.298  0.00  0.00    -0.005 C 
ATOM      6  C   UNL     1      52.698 157.719  28.465  0.00  0.00    -0.004 C 
ATOM      7  C   UNL     1      52.345 155.074  25.811  0.00  0.00    +0.052 C 
ATOM      8  C   UNL     1      52.151 153.617  26.106  0.00  0.00    -0.026 C 
ATOM      9  C   UNL     1      51.227 153.253  26.974  0.00  0.00    -0.022 C 
ATOM     10  C   UNL     1      51.048 151.836  27.248  0.00  0.00    -0.005 C 
ATOM     11  C   UNL     1      51.806 150.914  26.630  0.00  0.00    -0.005 C 
ATOM     12  C   UNL     1      52.808 151.286  25.685  0.00  0.00    -0.026 C 
ATOM     13  C   UNL     1      53.028 152.677  25.412  0.00  0.00    -0.030 C 
ATOM     14  C   UNL     1      54.500 153.019  25.544  0.00  0.00    +0.032 C 
ATOM     15  C   UNL     1      55.225 151.788  26.040  0.00  0.00    +0.047 C 
ATOM     16  C   UNL     1      55.113 150.684  24.995  0.00  0.00    +0.011 C 
ATOM     17  C   UNL     1      53.625 150.301  24.992  0.00  0.00    +0.026 C 
ATOM     18  C   UNL     1      50.385 154.293  27.656  0.00  0.00    +0.052 C 
ENDROOT
BRANCH   1  25
ATOM     19  C   UNL     1      48.665 160.503  31.260  0.00  0.00    +0.056 C 
ATOM     20  C   UNL     1      49.947 159.998  31.095  0.00  0.00    +0.137 C 
ATOM     21  C   UNL     1      50.192 158.688  30.786  0.00  0.00    +0.049 C 
ATOM     22  C   UNL     1      49.093 157.860  30.639  0.00  0.00    +0.136 C 
ATOM     23  C   UNL     1      47.790 158.348  30.801  0.00  0.00    +0.073 C 
ATOM     24  C   UNL     1      47.580 159.653  31.108  0.00  0.00    +0.136 C 
ATOM     25  C   UNL     1      51.558 158.175  30.623  0.00  0.00    +0.054 C 
ATOM     26  C   UNL     1      52.609 159.215  30.765  0.00  0.00    +0.056 C 
ATOM     27  C   UNL     1      52.200 160.626  30.563  0.00  0.00    +0.206 C 
ATOM     28  O   UNL     1      50.994 160.886  31.257  0.00  0.00    -0.476 OA
BRANCH  24  29
ATOM     29  O   UNL     1      46.313 160.215  31.285  0.00  0.00    -0.506 OA
ATOM     30  H   UNL     1      45.547 159.683  31.193  0.00  0.00    +0.292 HD
ENDBRANCH  24  29
BRANCH  22  31
ATOM     31  O   UNL     1      49.285 156.541  30.330  0.00  0.00    -0.506 OA
ATOM     32  H   UNL     1      50.154 156.207  30.220  0.00  0.00    +0.292 HD
ENDBRANCH  22  31
BRANCH  19  33
ATOM     33  C   UNL     1      48.476 161.943  31.598  0.00  0.00    +0.142 C 
BRANCH  33  34
ATOM     34  C   UNL     1      48.789 162.226  33.007  0.00  0.00    +0.318 C 
ATOM     35  O   UNL     1      49.034 161.265  33.782  0.00  0.00    -0.250 OA
BRANCH  34  36
ATOM     36  O   UNL     1      48.802 163.548  33.427  0.00  0.00    -0.480 OA
ATOM     37  H   UNL     1      48.614 164.235  32.818  0.00  0.00    +0.295 HD
ENDBRANCH  34  36
ENDBRANCH  33  34
ENDBRANCH  19  33
ENDBRANCH   1  25
BRANCH  15  38
ATOM     38  C   UNL     1      56.656 152.033  26.338  0.00  0.00    +0.081 C 
ATOM     39  N   UNL     1      57.204 151.675  27.514  0.00  0.00    -0.152 NA
ATOM     40  N   UNL     1      58.453 151.863  27.838  0.00  0.00    -0.147 NA
ATOM     41  C   UNL     1      59.304 152.443  27.002  0.00  0.00    +0.122 C 
ATOM     42  C   UNL     1      58.855 152.863  25.745  0.00  0.00    +0.024 C 
ATOM     43  C   UNL     1      57.527 152.647  25.434  0.00  0.00    +0.018 C 
ENDBRANCH  15  38
TORSDOF 7
