MODEL 1
REMARK VINA RESULT:    -9.450      0.000      0.000
REMARK INTER + INTRA:         -13.468
REMARK INTER:                 -12.765
REMARK INTRA:                  -0.703
REMARK UNBOUND:                -0.703
REMARK  Name = =
REMARK  6 active torsions:
REMARK  status: ('A' for Active; 'I' for Inactive)
REMARK    1  A    between atoms: N_1  and  C_2
REMARK    2  A    between atoms: N_1  and  C_14
REMARK    3  A    between atoms: N_1  and  C_32
REMARK    4  A    between atoms: C_12  and  C_18
REMARK    5  A    between atoms: C_18  and  N_23
REMARK    6  A    between atoms: C_35  and  C_38
REMARK                            x       y       z     vdW  Elec       q    Type
REMARK                         _______ _______ _______ _____ _____    ______ ____
ROOT
ATOM      1  N   UNL     1      54.489 162.635  42.049  0.00  0.00    -0.250 N 
ENDROOT
BRANCH   1   2
ATOM      2  C   UNL     1      53.702 161.483  42.272  0.00  0.00    +0.058 C 
ATOM      3  C   UNL     1      52.341 161.503  42.054  0.00  0.00    +0.034 C 
ATOM      4  C   UNL     1      51.538 160.392  42.279  0.00  0.00    +0.083 C 
ATOM      5  N   UNL     1      50.197 160.458  42.052  0.00  0.00    -0.244 NA
ATOM      6  C   UNL     1      49.383 159.394  42.263  0.00  0.00    +0.099 C 
ATOM      7  C   UNL     1      49.934 158.221  42.720  0.00  0.00    +0.021 C 
ATOM      8  C   UNL     1      51.283 158.103  42.965  0.00  0.00    +0.003 C 
ATOM      9  C   UNL     1      52.092 159.221  42.735  0.00  0.00    +0.018 C 
ATOM     10  C   UNL     1      53.447 159.177  42.961  0.00  0.00    +0.003 C 
ATOM     11  C   UNL     1      54.246 160.294  42.733  0.00  0.00    +0.015 C 
ENDBRANCH   1   2
BRANCH   1  14
ATOM     12  C   UNL     1      57.990 161.647  41.614  0.00  0.00    +0.096 C 
ATOM     13  N   UNL     1      56.653 161.658  41.509  0.00  0.00    -0.230 NA
ATOM     14  C   UNL     1      55.884 162.581  42.153  0.00  0.00    +0.158 C 
ATOM     15  C   UNL     1      56.519 163.536  42.939  0.00  0.00    +0.134 C 
ATOM     16  N   UNL     1      57.847 163.514  43.034  0.00  0.00    -0.238 NA
ATOM     17  C   UNL     1      58.611 162.583  42.384  0.00  0.00    +0.115 C 
BRANCH  12  18
ATOM     18  C   UNL     1      58.774 160.617  40.889  0.00  0.00    +0.100 C 
ATOM     19  C   UNL     1      60.090 160.415  41.542  0.00  0.00    +0.024 C 
ATOM     20  C   UNL     1      60.414 159.134  41.518  0.00  0.00    +0.002 C 
ATOM     21  C   UNL     1      59.318 158.359  40.837  0.00  0.00    +0.002 C 
ATOM     22  C   UNL     1      58.118 159.262  41.219  0.00  0.00    +0.024 C 
BRANCH  18  23
ATOM     23  N   UNL     1      58.783 160.740  39.475  0.00  0.00    -0.267 N 
ATOM     24  C   UNL     1      58.250 159.852  38.624  0.00  0.00    +0.168 C 
ATOM     25  N   UNL     1      58.405 160.224  37.344  0.00  0.00    -0.226 NA
ATOM     26  C   UNL     1      59.068 161.405  37.377  0.00  0.00    +0.096 C 
ATOM     27  C   UNL     1      59.309 161.735  38.721  0.00  0.00    +0.071 C 
ATOM     28  C   UNL     1      59.979 162.902  39.029  0.00  0.00    +0.016 C 
ATOM     29  C   UNL     1      60.397 163.718  38.003  0.00  0.00    +0.001 C 
ATOM     30  C   UNL     1      60.156 163.388  36.688  0.00  0.00    +0.002 C 
ATOM     31  C   UNL     1      59.494 162.238  36.362  0.00  0.00    +0.020 C 
ENDBRANCH  18  23
ENDBRANCH  12  18
ENDBRANCH   1  14
BRANCH   1  32
ATOM     32  C   UNL     1      53.807 163.831  41.725  0.00  0.00    +0.057 C 
ATOM     33  C   UNL     1      53.402 164.786  42.638  0.00  0.00    +0.015 C 
ATOM     34  C   UNL     1      52.747 165.937  42.268  0.00  0.00    +0.006 C 
ATOM     35  C   UNL     1      52.460 166.197  40.945  0.00  0.00    +0.053 C 
ATOM     36  C   UNL     1      52.848 165.267  40.011  0.00  0.00    +0.006 C 
ATOM     37  C   UNL     1      53.499 164.121  40.382  0.00  0.00    +0.015 C 
BRANCH  35  38
ATOM     38  C   UNL     1      51.770 167.392  40.495  0.00  0.00    +0.243 C 
ATOM     39  O   UNL     1      50.873 167.890  41.228  0.00  0.00    -0.270 OA
ATOM     40  N   UNL     1      52.118 167.963  39.252  0.00  0.00    -0.325 N 
ATOM     41  H   UNL     1      52.823 167.551  38.702  0.00  0.00    +0.145 HD
ATOM     42  H   UNL     1      51.657 168.773  38.936  0.00  0.00    +0.145 HD
ENDBRANCH  35  38
ENDBRANCH   1  32
TORSDOF 6
ENDMDL
