REMARK  Name = =
REMARK  8 active torsions:
REMARK  status: ('A' for Active; 'I' for Inactive)
REMARK    1  A    between atoms: C_1  and  O_8
REMARK    2  A    between atoms: C_2  and  O_19
REMARK    3  A    between atoms: C_5  and  O_7
REMARK    4  A    between atoms: O_8  and  C_15
REMARK    5  A    between atoms: O_19  and  S_20
REMARK    6  A    between atoms: S_20  and  C_22
REMARK    7  A    between atoms: S_20  and  C_27
REMARK    8  A    between atoms: C_28  and  C_29
REMARK                            x       y       z     vdW  Elec       q    Type
REMARK                         _______ _______ _______ _____ _____    ______ ____
ROOT
ATOM      1  C   UNL     1      42.940 159.264  24.778  0.00  0.00    +0.177 C 
ATOM      2  C   UNL     1      43.343 159.323  23.446  0.00  0.00    +0.189 C 
ATOM      3  C   UNL     1      44.660 159.141  23.126  0.00  0.00    +0.045 C 
ATOM      4  C   UNL     1      45.613 158.893  24.102  0.00  0.00    +0.040 C 
ATOM      5  C   UNL     1      45.212 158.834  25.412  0.00  0.00    +0.137 C 
ATOM      6  C   UNL     1      43.897 159.014  25.787  0.00  0.00    +0.077 C 
ENDROOT
BRANCH   5   7
ATOM      7  O   UNL     1      46.130 158.586  26.436  0.00  0.00    -0.505 OA
ATOM      8  H   UNL     1      47.035 158.457  26.232  0.00  0.00    +0.292 HD
ENDBRANCH   5   7
BRANCH   1   9
ATOM      9  O   UNL     1      41.687 159.442  25.059  0.00  0.00    -0.471 OA
BRANCH   9  16
ATOM     10  O   UNL     1      39.058 161.368  24.926  0.00  0.00    -0.331 OA
ATOM     11  C   UNL     1      39.340 160.001  24.976  0.00  0.00    +0.224 C 
ATOM     12  O   UNL     1      39.415 159.639  23.591  0.00  0.00    -0.331 OA
ATOM     13  C   UNL     1      38.187 160.179  23.159  0.00  0.00    +0.145 C 
ATOM     14  C   UNL     1      37.161 159.888  24.223  0.00  0.00    +0.037 C 
ATOM     15  C   UNL     1      38.062 159.291  25.342  0.00  0.00    +0.063 C 
ATOM     16  C   UNL     1      40.561 159.613  25.727  0.00  0.00    +0.217 C 
ATOM     17  C   UNL     1      40.772 160.552  26.943  0.00  0.00    +0.051 C 
ATOM     18  C   UNL     1      40.538 161.971  26.599  0.00  0.00    +0.036 C 
ATOM     19  C   UNL     1      39.060 162.036  26.138  0.00  0.00    +0.145 C 
ENDBRANCH   9  16
ENDBRANCH   1   9
BRANCH   2  20
ATOM     20  O   UNL     1      42.461 159.558  22.377  0.00  0.00    -0.420 OA
BRANCH  20  21
ATOM     21  S   UNL     1      41.949 158.737  21.340  0.00  0.00    +0.076 S 
BRANCH  21  22
ATOM     22  C   UNL     1      40.812 157.489  21.570  0.00  0.00    +0.237 A 
ATOM     23  N   UNL     1      40.830 156.163  21.290  0.00  0.00    -0.232 N 
ATOM     24  N   UNL     1      39.657 155.612  21.646  0.00  0.00    -0.046 NA
ATOM     25  N   UNL     1      38.888 156.544  22.147  0.00  0.00    -0.022 NA
ATOM     26  N   UNL     1      39.577 157.671  22.105  0.00  0.00    -0.099 NA
ATOM     27  H   UNL     1      41.586 155.678  20.888  0.00  0.00    +0.193 HD
ENDBRANCH  21  22
BRANCH  21  28
ATOM     28  C   UNL     1      42.463 158.717  19.725  0.00  0.00    +0.068 C 
ATOM     29  C   UNL     1      43.466 159.387  19.183  0.00  0.00    +0.009 C 
BRANCH  29  30
ATOM     30  C   UNL     1      43.801 159.275  17.773  0.00  0.00    +0.001 C 
ATOM     31  C   UNL     1      44.790 159.928  17.233  0.00  0.00    +0.000 C 
ENDBRANCH  29  30
ENDBRANCH  21  28
ENDBRANCH  20  21
ENDBRANCH   2  20
TORSDOF 8
REMARK  Name = =
REMARK  8 active torsions:
REMARK  status: ('A' for Active; 'I' for Inactive)
REMARK    1  A    between atoms: C_1  and  O_8
REMARK    2  A    between atoms: C_2  and  O_19
REMARK    3  A    between atoms: C_5  and  O_7
REMARK    4  A    between atoms: O_8  and  C_15
REMARK    5  A    between atoms: O_19  and  S_20
REMARK    6  A    between atoms: S_20  and  C_22
REMARK    7  A    between atoms: S_20  and  C_27
REMARK    8  A    between atoms: C_28  and  C_29
REMARK                            x       y       z     vdW  Elec       q    Type
REMARK                         _______ _______ _______ _____ _____    ______ ____
ROOT
ATOM      1  H   UNK     1      43.450 157.297  21.672  0.00  0.00    +0.000 HD
ENDROOT
TORSDOF 0
