REMARK  Name = =
REMARK  0 active torsions:
REMARK  status: ('A' for Active; 'I' for Inactive)
REMARK                            x       y       z     vdW  Elec       q    Type
REMARK                         _______ _______ _______ _____ _____    ______ ____
ROOT
ATOM      1  C   UNL     1      -3.743  -3.869  31.763  0.00  0.00    +0.000 C 
ATOM      2  C   UNL     1      -4.000  -4.215  33.235  0.00  0.00    +0.000 C 
ATOM      3  C   UNL     1      -3.169  -5.465  33.489  0.00  0.00    +0.000 C 
ATOM      4  C   UNL     1      -3.978  -6.579  32.825  0.00  0.00    +0.000 C 
ATOM      5  C   UNL     1      -3.855  -6.342  31.330  0.00  0.00    +0.000 C 
ATOM      6  C   UNL     1      -4.304  -4.980  30.920  0.00  0.00    +0.000 C 
ENDROOT
TORSDOF 0
