REMARK  Name = =
REMARK  1 active torsions:
REMARK  status: ('A' for Active; 'I' for Inactive)
REMARK    1  A    between atoms: C_5  and  O_8
REMARK                            x       y       z     vdW  Elec       q    Type
REMARK                         _______ _______ _______ _____ _____    ______ ____
ROOT
ATOM      1  F   UNL     1      -4.631  -2.962  32.501  0.00  0.00    -0.204 F 
ATOM      2  C   UNL     1      -5.743  -2.233  32.286  0.00  0.00    +0.140 C 
ATOM      3  C   UNL     1      -5.688  -0.850  32.157  0.00  0.00    +0.033 C 
ATOM      4  C   UNL     1      -6.835  -0.117  31.936  0.00  0.00    +0.039 C 
ATOM      5  C   UNL     1      -8.074  -0.718  31.835  0.00  0.00    +0.134 C 
ATOM      6  C   UNL     1      -8.121  -2.097  31.966  0.00  0.00    +0.039 C 
ATOM      7  C   UNL     1      -6.982  -2.831  32.185  0.00  0.00    +0.033 C 
ENDROOT
BRANCH   5   8
ATOM      8  O   UNL     1      -9.234   0.034  31.612  0.00  0.00    -0.506 OA
ATOM      9  H   UNL     1      -9.179   0.965  31.526  0.00  0.00    +0.292 HD
ENDBRANCH   5   8
TORSDOF 1
