REMARK  Name = =
REMARK  1 active torsions:
REMARK  status: ('A' for Active; 'I' for Inactive)
REMARK    1  A    between atoms: C_1  and  C_7
REMARK                            x       y       z     vdW  Elec       q    Type
REMARK                         _______ _______ _______ _____ _____    ______ ____
ROOT
ATOM      1  C   UNL     1     -16.090 -11.089  22.114  0.00  0.00    +0.191 C 
ATOM      2  O   UNL     1     -15.769 -11.966  21.092  0.00  0.00    -0.445 OA
ATOM      3  C   UNL     1     -16.436 -11.632  19.928  0.00  0.00    +0.341 C 
ATOM      4  O   UNL     1     -16.398 -12.195  18.790  0.00  0.00    -0.245 OA
ATOM      5  C   UNL     1     -17.228 -10.457  20.259  0.00  0.00    +0.081 C 
ATOM      6  C   UNL     1     -17.032 -10.138  21.522  0.00  0.00    +0.023 C 
ENDROOT
BRANCH   1   7
ATOM      7  C   UNL     1     -16.707 -11.762  23.316  0.00  0.00    +0.045 C 
ATOM      8  C   UNL     1     -15.706 -12.492  24.162  0.00  0.00    +0.004 C 
ATOM      9  C   UNL     1     -16.490 -13.540  24.964  0.00  0.00    +0.000 C 
ATOM     10  C   UNL     1     -17.885 -13.042  25.181  0.00  0.00    +0.000 C 
ATOM     11  C   UNL     1     -17.953 -11.542  25.394  0.00  0.00    +0.000 C 
ATOM     12  C   UNL     1     -17.440 -10.786  24.183  0.00  0.00    +0.004 C 
ENDBRANCH   1   7
TORSDOF 1
