REMARK  Name = =
REMARK  2 active torsions:
REMARK  status: ('A' for Active; 'I' for Inactive)
REMARK    1  A    between atoms: C_1  and  C_7
REMARK    2  A    between atoms: C_1  and  C_13
REMARK                            x       y       z     vdW  Elec       q    Type
REMARK                         _______ _______ _______ _____ _____    ______ ____
ROOT
ATOM      1  C   UNL     1     -16.059 -10.387  22.348  0.00  0.00    +0.155 C 
ATOM      2  O   UNL     1     -15.191 -11.134  21.489  0.00  0.00    -0.448 OA
ATOM      3  C   UNL     1     -15.819 -11.538  20.349  0.00  0.00    +0.341 C 
ATOM      4  O   UNL     1     -15.246 -12.214  19.434  0.00  0.00    -0.245 OA
ATOM      5  C   UNL     1     -17.180 -11.059  20.411  0.00  0.00    +0.081 C 
ATOM      6  C   UNL     1     -17.314 -10.410  21.541  0.00  0.00    +0.020 C 
ENDROOT
BRANCH   1   7
ATOM      7  C   UNL     1     -16.279 -11.162  23.566  0.00  0.00    +0.041 C 
ATOM      8  C   UNL     1     -15.633 -12.551  23.389  0.00  0.00    +0.004 C 
ATOM      9  C   UNL     1     -15.526 -13.242  24.743  0.00  0.00    +0.000 C 
ATOM     10  C   UNL     1     -16.911 -13.488  25.235  0.00  0.00    +0.000 C 
ATOM     11  C   UNL     1     -17.604 -12.149  25.358  0.00  0.00    +0.000 C 
ATOM     12  C   UNL     1     -17.675 -11.459  23.981  0.00  0.00    +0.004 C 
ENDBRANCH   1   7
BRANCH   1  13
ATOM     13  C   UNL     1     -15.574  -9.031  22.341  0.00  0.00    +0.041 C 
ATOM     14  C   UNL     1     -16.053  -7.991  23.266  0.00  0.00    +0.004 C 
ATOM     15  C   UNL     1     -15.408  -6.769  22.564  0.00  0.00    +0.000 C 
ATOM     16  C   UNL     1     -14.065  -7.306  22.072  0.00  0.00    +0.000 C 
ATOM     17  C   UNL     1     -14.076  -8.807  22.386  0.00  0.00    +0.004 C 
ENDBRANCH   1  13
TORSDOF 2
