REMARK  Name = =
REMARK  4 active torsions:
REMARK  status: ('A' for Active; 'I' for Inactive)
REMARK    1  A    between atoms: C_1  and  C_7
REMARK    2  A    between atoms: C_1  and  C_16
REMARK    3  A    between atoms: C_9  and  S_13
REMARK    4  A    between atoms: S_13  and  C_14
REMARK                            x       y       z     vdW  Elec       q    Type
REMARK                         _______ _______ _______ _____ _____    ______ ____
ROOT
ATOM      1  C   UNL     1     -15.551  -6.076  19.475  0.00  0.00    +0.155 C 
ATOM      2  O   UNL     1     -16.423  -4.973  19.818  0.00  0.00    -0.448 OA
ATOM      3  C   UNL     1     -17.525  -4.928  18.996  0.00  0.00    +0.341 C 
ATOM      4  O   UNL     1     -18.487  -4.127  18.976  0.00  0.00    -0.245 OA
ATOM      5  C   UNL     1     -17.401  -6.044  18.070  0.00  0.00    +0.081 C 
ATOM      6  C   UNL     1     -16.283  -6.689  18.352  0.00  0.00    +0.020 C 
ENDROOT
BRANCH   1   7
ATOM      7  C   UNL     1     -15.465  -7.005  20.637  0.00  0.00    +0.042 C 
ATOM      8  C   UNL     1     -15.653  -6.175  21.905  0.00  0.00    +0.015 C 
ATOM      9  C   UNL     1     -16.928  -6.589  22.619  0.00  0.00    +0.055 C 
ATOM     10  C   UNL     1     -16.671  -8.001  23.095  0.00  0.00    +0.011 C 
ATOM     11  C   UNL     1     -16.592  -8.889  21.911  0.00  0.00    +0.001 C 
ATOM     12  C   UNL     1     -16.363  -8.187  20.624  0.00  0.00    +0.004 C 
BRANCH   9  13
ATOM     13  S   UNL     1     -17.104  -5.519  24.072  0.00  0.00    -0.070 S 
BRANCH  13  14
ATOM     14  C   UNL     1     -16.141  -6.238  25.394  0.00  0.00    +0.266 C 
ATOM     15  O   UNL     1     -14.943  -6.017  25.421  0.00  0.00    -0.276 OA
ENDBRANCH  13  14
ENDBRANCH   9  13
ENDBRANCH   1   7
BRANCH   1  16
ATOM     16  C   UNL     1     -14.336  -5.482  18.920  0.00  0.00    +0.041 C 
ATOM     17  C   UNL     1     -13.991  -4.072  19.126  0.00  0.00    +0.004 C 
ATOM     18  C   UNL     1     -12.477  -4.042  18.861  0.00  0.00    +0.000 C 
ATOM     19  C   UNL     1     -12.158  -5.369  18.196  0.00  0.00    +0.000 C 
ATOM     20  C   UNL     1     -13.078  -6.294  19.037  0.00  0.00    +0.004 C 
ENDBRANCH   1  16
TORSDOF 4
