REMARK  Name = =
REMARK  10 active torsions:
REMARK  status: ('A' for Active; 'I' for Inactive)
REMARK    1  A    between atoms: S_1  and  C_4
REMARK    2  A    between atoms: S_1  and  C_18
REMARK    3  A    between atoms: S_1  and  S_28
REMARK    4  A    between atoms: C_6  and  O_17
REMARK    5  A    between atoms: C_8  and  C_9
REMARK    6  A    between atoms: C_12  and  O_16
REMARK    7  A    between atoms: C_18  and  N_20
REMARK    8  A    between atoms: N_20  and  C_21
REMARK    9  A    between atoms: S_28  and  C_29
REMARK   10  A    between atoms: C_29  and  N_31
REMARK                            x       y       z     vdW  Elec       q    Type
REMARK                         _______ _______ _______ _____ _____    ______ ____
ROOT
ATOM      1  S   UNL     1     -12.301  -0.656  27.714  0.00  0.00    -0.121 S 
ATOM      2  H   UNL     1     -12.444   0.581  27.167  0.00  0.00    +0.104 HD
ENDROOT
BRANCH   1   5
ATOM      3  F   UNL     1     -10.583   0.406  25.584  0.00  0.00    -0.204 F 
ATOM      4  C   UNL     1     -10.641  -0.961  25.629  0.00  0.00    +0.145 C 
ATOM      5  C   UNL     1     -11.400  -1.602  26.566  0.00  0.00    +0.050 C 
ATOM      6  C   UNL     1     -11.424  -2.977  26.569  0.00  0.00    +0.044 C 
ATOM      7  C   UNL     1     -10.687  -3.658  25.631  0.00  0.00    +0.134 C 
ATOM      8  C   UNL     1      -9.916  -3.013  24.681  0.00  0.00    +0.039 C 
ATOM      9  C   UNL     1      -9.899  -1.632  24.687  0.00  0.00    +0.031 C 
BRANCH   9  10
ATOM     10  C   UNL     1      -9.089  -0.935  23.687  0.00  0.00    +0.003 C 
ATOM     11  C   UNL     1      -9.621  -0.659  22.443  0.00  0.00    +0.010 C 
ATOM     12  C   UNL     1      -8.890   0.002  21.458  0.00  0.00    +0.068 C 
ATOM     13  C   UNL     1      -7.601   0.377  21.762  0.00  0.00    +0.140 C 
ATOM     14  C   UNL     1      -7.070   0.094  23.020  0.00  0.00    +0.037 C 
ATOM     15  C   UNL     1      -7.799  -0.560  23.990  0.00  0.00    +0.003 C 
ATOM     16 BR   UNL     1      -9.653   0.375  19.738  0.00  0.00    -0.046 Br
BRANCH  13  17
ATOM     17  O   UNL     1      -6.830   1.035  20.824  0.00  0.00    -0.505 OA
ATOM     18  H   UNL     1      -7.184   1.227  19.978  0.00  0.00    +0.292 HD
ENDBRANCH  13  17
ENDBRANCH   9  10
BRANCH   7  19
ATOM     19  O   UNL     1     -10.701  -5.066  25.622  0.00  0.00    -0.505 OA
ATOM     20  H   UNL     1     -11.213  -5.533  26.252  0.00  0.00    +0.292 HD
ENDBRANCH   7  19
ENDBRANCH   1   5
BRANCH   1  21
ATOM     21  C   UNL     1     -13.853  -1.356  27.948  0.00  0.00    +0.101 C 
ATOM     22  S   UNL     1     -14.930  -0.580  28.899  0.00  0.00    -0.029 S 
BRANCH  21  23
ATOM     23  N   UNL     1     -14.233  -2.597  27.341  0.00  0.00    -0.323 N 
ATOM     24  H   UNL     1     -13.629  -3.371  27.407  0.00  0.00    +0.148 HD
BRANCH  23  25
ATOM     25  C   UNL     1     -15.487  -2.735  26.633  0.00  0.00    +0.087 C 
ATOM     26  C   UNL     1     -15.874  -4.187  26.622  0.00  0.00    +0.108 C 
ATOM     27  N   UNL     1     -17.346  -4.261  26.669  0.00  0.00    -0.216 NA
ATOM     28  C   UNL     1     -17.862  -3.375  25.639  0.00  0.00    +0.089 C 
ATOM     29  C   UNL     1     -17.092  -3.730  24.379  0.00  0.00    +0.019 C 
ATOM     30  C   UNL     1     -15.887  -2.908  24.141  0.00  0.00    +0.003 C 
ATOM     31  C   UNL     1     -15.362  -2.123  25.296  0.00  0.00    +0.021 C 
ENDBRANCH  23  25
ENDBRANCH  21  23
ENDBRANCH   1  21
BRANCH   1  32
ATOM     32  S   UNL     1     -11.483  -0.323  29.201  0.00  0.00    -0.046 S 
BRANCH  32  33
ATOM     33  C   UNL     1     -10.983  -1.566  30.149  0.00  0.00    +0.114 C 
ATOM     34  S   UNL     1      -9.576  -1.521  31.025  0.00  0.00    -0.028 S 
BRANCH  33  35
ATOM     35  N   UNL     1     -11.704  -2.809  30.316  0.00  0.00    -0.346 N 
ATOM     36  H   UNL     1     -12.556  -2.951  29.844  0.00  0.00    +0.143 HD
ATOM     37  H   UNL     1     -11.343  -3.513  30.902  0.00  0.00    +0.143 HD
ENDBRANCH  33  35
ENDBRANCH  32  33
ENDBRANCH   1  32
TORSDOF 10
