REMARK  Name = =
REMARK  5 active torsions:
REMARK  status: ('A' for Active; 'I' for Inactive)
REMARK    1  A    between atoms: C_1  and  C_7
REMARK    2  A    between atoms: C_1  and  C_18
REMARK    3  A    between atoms: C_9  and  C_13
REMARK    4  A    between atoms: C_9  and  S_15
REMARK    5  A    between atoms: S_15  and  C_16
REMARK                            x       y       z     vdW  Elec       q    Type
REMARK                         _______ _______ _______ _____ _____    ______ ____
ROOT
ATOM      1  C   UNL     1     -15.307  -6.652  22.193  0.00  0.00    +0.155 C 
ATOM      2  O   UNL     1     -15.123  -7.973  22.660  0.00  0.00    -0.448 OA
ATOM      3  C   UNL     1     -16.214  -8.388  23.379  0.00  0.00    +0.341 C 
ATOM      4  O   UNL     1     -16.362  -9.519  23.931  0.00  0.00    -0.245 OA
ATOM      5  C   UNL     1     -17.141  -7.268  23.366  0.00  0.00    +0.081 C 
ATOM      6  C   UNL     1     -16.632  -6.269  22.690  0.00  0.00    +0.020 C 
ENDROOT
BRANCH   1   7
ATOM      7  C   UNL     1     -14.213  -5.790  22.801  0.00  0.00    +0.042 C 
ATOM      8  C   UNL     1     -13.127  -6.784  23.213  0.00  0.00    +0.018 C 
ATOM      9  C   UNL     1     -11.891  -6.096  23.744  0.00  0.00    +0.065 C 
ATOM     10  C   UNL     1     -12.255  -4.801  24.450  0.00  0.00    +0.015 C 
ATOM     11  C   UNL     1     -13.625  -4.993  25.105  0.00  0.00    +0.001 C 
ATOM     12  C   UNL     1     -14.650  -4.957  23.957  0.00  0.00    +0.004 C 
BRANCH   9  13
ATOM     13  C   UNL     1     -11.301  -6.994  24.762  0.00  0.00    -0.016 C 
ATOM     14  C   UNL     1     -10.221  -7.681  24.461  0.00  0.00    -0.004 C 
ENDBRANCH   9  13
BRANCH   9  15
ATOM     15  S   UNL     1     -10.763  -5.813  22.358  0.00  0.00    -0.067 S 
BRANCH  15  16
ATOM     16  C   UNL     1      -9.999  -4.219  22.569  0.00  0.00    +0.266 C 
ATOM     17  O   UNL     1      -8.778  -4.144  22.576  0.00  0.00    -0.276 OA
ENDBRANCH  15  16
ENDBRANCH   9  15
ENDBRANCH   1   7
BRANCH   1  18
ATOM     18  C   UNL     1     -15.350  -6.706  20.723  0.00  0.00    +0.041 C 
ATOM     19  C   UNL     1     -14.433  -5.753  19.989  0.00  0.00    +0.004 C 
ATOM     20  C   UNL     1     -14.761  -6.126  18.535  0.00  0.00    +0.000 C 
ATOM     21  C   UNL     1     -16.166  -6.737  18.567  0.00  0.00    +0.000 C 
ATOM     22  C   UNL     1     -16.644  -6.452  20.021  0.00  0.00    +0.004 C 
ENDBRANCH   1  18
TORSDOF 5
