REMARK  Name = =
REMARK  6 active torsions:
REMARK  status: ('A' for Active; 'I' for Inactive)
REMARK    1  A    between atoms: C_1  and  C_13
REMARK    2  A    between atoms: C_2  and  N_7
REMARK    3  A    between atoms: C_3  and  C_24
REMARK    4  A    between atoms: C_3  and  S_26
REMARK    5  A    between atoms: C_13  and  C_19
REMARK    6  A    between atoms: S_26  and  C_27
REMARK                            x       y       z     vdW  Elec       q    Type
REMARK                         _______ _______ _______ _____ _____    ______ ____
ROOT
ATOM      1  C   UNL     1     -12.426  -5.513  21.873  0.00  0.00    +0.057 C 
ATOM      2  C   UNL     1     -13.424  -4.734  22.657  0.00  0.00    +0.077 C 
ATOM      3  C   UNL     1     -14.117  -3.881  21.584  0.00  0.00    +0.078 C 
ATOM      4  C   UNL     1     -14.949  -4.880  20.758  0.00  0.00    +0.016 C 
ATOM      5  C   UNL     1     -14.065  -5.922  20.127  0.00  0.00    +0.001 C 
ATOM      6  C   UNL     1     -13.211  -6.632  21.174  0.00  0.00    +0.005 C 
ENDROOT
BRANCH   2   7
ATOM      7  N   UNL     1     -13.159  -4.111  23.832  0.00  0.00    -0.245 NA
ATOM      8  C   UNL     1     -12.604  -2.914  24.169  0.00  0.00    +0.148 C 
ATOM      9  N   UNL     1     -11.804  -3.124  25.407  0.00  0.00    -0.270 NA
ATOM     10  C   UNL     1     -12.696  -3.301  26.551  0.00  0.00    +0.144 C 
ATOM     11  N   UNL     1     -14.001  -3.690  26.039  0.00  0.00    -0.270 NA
ATOM     12  C   UNL     1     -13.726  -4.715  25.021  0.00  0.00    +0.148 C 
ATOM     13  H   UNL     1     -11.207  -2.312  25.566  0.00  0.00    +0.126 HD
ATOM     14  H   UNL     1     -14.475  -2.889  25.621  0.00  0.00    +0.126 HD
ENDBRANCH   2   7
BRANCH   1  15
ATOM     15  C   UNL     1     -11.149  -5.937  22.480  0.00  0.00    +0.156 C 
ATOM     16  O   UNL     1     -10.601  -4.775  23.099  0.00  0.00    -0.448 OA
ATOM     17  C   UNL     1      -9.466  -4.356  22.471  0.00  0.00    +0.341 C 
ATOM     18  O   UNL     1      -8.712  -3.371  22.728  0.00  0.00    -0.245 OA
ATOM     19  C   UNL     1      -9.232  -5.285  21.374  0.00  0.00    +0.081 C 
ATOM     20  C   UNL     1     -10.189  -6.181  21.384  0.00  0.00    +0.020 C 
BRANCH  15  21
ATOM     21  C   UNL     1     -11.143  -7.095  23.418  0.00  0.00    +0.041 C 
ATOM     22  C   UNL     1     -10.718  -6.519  24.783  0.00  0.00    +0.004 C 
ATOM     23  C   UNL     1      -9.765  -7.531  25.369  0.00  0.00    +0.000 C 
ATOM     24  C   UNL     1      -9.039  -8.071  24.177  0.00  0.00    +0.000 C 
ATOM     25  C   UNL     1     -10.167  -8.174  23.161  0.00  0.00    +0.004 C 
ENDBRANCH  15  21
ENDBRANCH   1  15
BRANCH   3  26
ATOM     26  C   UNL     1     -15.117  -2.946  22.141  0.00  0.00    -0.015 C 
ATOM     27  C   UNL     1     -15.909  -2.283  21.325  0.00  0.00    -0.004 C 
ENDBRANCH   3  26
BRANCH   3  28
ATOM     28  S   UNL     1     -13.025  -3.121  20.408  0.00  0.00    -0.065 S 
BRANCH  28  29
ATOM     29  C   UNL     1     -12.005  -1.814  20.939  0.00  0.00    +0.266 C 
ATOM     30  O   UNL     1     -12.443  -0.693  21.168  0.00  0.00    -0.276 OA
ENDBRANCH  28  29
ENDBRANCH   3  28
TORSDOF 6
