REMARK  Name = =
REMARK  7 active torsions:
REMARK  status: ('A' for Active; 'I' for Inactive)
REMARK    1  A    between atoms: C_1  and  C_23
REMARK    2  A    between atoms: C_2  and  N_17
REMARK    3  A    between atoms: C_3  and  C_34
REMARK    4  A    between atoms: C_3  and  S_36
REMARK    5  A    between atoms: C_5  and  C_7
REMARK    6  A    between atoms: C_23  and  C_29
REMARK    7  A    between atoms: S_36  and  C_37
REMARK                            x       y       z     vdW  Elec       q    Type
REMARK                         _______ _______ _______ _____ _____    ______ ____
ROOT
ATOM      1  C   UNL     1     -12.870  -4.751  23.547  0.00  0.00    +0.057 C 
ATOM      2  C   UNL     1     -11.451  -4.804  23.678  0.00  0.00    +0.077 C 
ATOM      3  C   UNL     1     -10.993  -3.565  24.508  0.00  0.00    +0.078 C 
ATOM      4  C   UNL     1     -11.978  -2.431  24.373  0.00  0.00    +0.018 C 
ATOM      5  C   UNL     1     -12.445  -2.334  22.936  0.00  0.00    +0.020 C 
ATOM      6  C   UNL     1     -13.268  -3.555  22.614  0.00  0.00    +0.007 C 
ENDROOT
BRANCH   5   7
ATOM      7  C   UNL     1     -13.225  -1.061  22.735  0.00  0.00    +0.076 C 
ATOM      8  N   UNL     1     -12.405   0.114  22.970  0.00  0.00    -0.295 NA
ATOM      9  C   UNL     1     -11.318   0.231  22.060  0.00  0.00    +0.073 C 
ATOM     10  C   UNL     1     -11.682   0.323  20.624  0.00  0.00    +0.043 C 
ATOM     11  C   UNL     1     -13.028  -0.248  20.401  0.00  0.00    -0.024 C 
ATOM     12  C   UNL     1     -13.776  -0.899  21.370  0.00  0.00    -0.012 C 
ATOM     13  C   UNL     1     -15.016  -1.365  21.010  0.00  0.00    -0.003 C 
ATOM     14  C   UNL     1     -15.513  -1.193  19.717  0.00  0.00    -0.000 C 
ATOM     15  C   UNL     1     -14.759  -0.542  18.761  0.00  0.00    -0.000 C 
ATOM     16  C   UNL     1     -13.527  -0.076  19.104  0.00  0.00    -0.004 C 
ATOM     17  H   UNL     1     -12.030   0.064  23.917  0.00  0.00    +0.124 HD
ENDBRANCH   5   7
BRANCH   2  18
ATOM     18  N   UNL     1     -10.601  -5.864  23.778  0.00  0.00    -0.245 NA
ATOM     19  C   UNL     1      -9.999  -6.446  22.605  0.00  0.00    +0.148 C 
ATOM     20  N   UNL     1      -8.579  -6.613  22.894  0.00  0.00    -0.270 NA
ATOM     21  C   UNL     1      -8.257  -6.661  24.275  0.00  0.00    +0.144 C 
ATOM     22  N   UNL     1      -9.230  -7.261  25.146  0.00  0.00    -0.270 NA
ATOM     23  C   UNL     1     -10.600  -6.851  24.783  0.00  0.00    +0.148 C 
ATOM     24  H   UNL     1      -8.076  -5.830  22.477  0.00  0.00    +0.126 HD
ATOM     25  H   UNL     1      -9.040  -6.972  26.106  0.00  0.00    +0.126 HD
ENDBRANCH   2  18
BRANCH   1  26
ATOM     26  C   UNL     1     -13.879  -5.802  23.366  0.00  0.00    +0.156 C 
ATOM     27  O   UNL     1     -15.018  -5.022  22.968  0.00  0.00    -0.448 OA
ATOM     28  C   UNL     1     -15.979  -5.058  23.910  0.00  0.00    +0.341 C 
ATOM     29  O   UNL     1     -17.135  -4.495  23.928  0.00  0.00    -0.245 OA
ATOM     30  C   UNL     1     -15.524  -5.880  25.002  0.00  0.00    +0.081 C 
ATOM     31  C   UNL     1     -14.350  -6.297  24.699  0.00  0.00    +0.020 C 
BRANCH  26  32
ATOM     32  C   UNL     1     -13.863  -6.884  22.421  0.00  0.00    +0.041 C 
ATOM     33  C   UNL     1     -13.632  -6.545  20.945  0.00  0.00    +0.004 C 
ATOM     34  C   UNL     1     -14.217  -7.825  20.324  0.00  0.00    +0.000 C 
ATOM     35  C   UNL     1     -14.028  -8.916  21.352  0.00  0.00    +0.000 C 
ATOM     36  C   UNL     1     -13.291  -8.213  22.545  0.00  0.00    +0.004 C 
ENDBRANCH  26  32
ENDBRANCH   1  26
BRANCH   3  37
ATOM     37  C   UNL     1     -10.822  -3.824  25.932  0.00  0.00    -0.015 C 
ATOM     38  C   UNL     1     -11.715  -3.663  26.896  0.00  0.00    -0.004 C 
ENDBRANCH   3  37
BRANCH   3  39
ATOM     39  S   UNL     1      -9.423  -2.919  23.777  0.00  0.00    -0.065 S 
BRANCH  39  40
ATOM     40  C   UNL     1      -9.032  -1.416  24.663  0.00  0.00    +0.266 C 
ATOM     41  O   UNL     1      -8.409  -0.497  24.148  0.00  0.00    -0.276 OA
ENDBRANCH  39  40
ENDBRANCH   3  39
TORSDOF 7
