REMARK  Name = =
REMARK  8 active torsions:
REMARK  status: ('A' for Active; 'I' for Inactive)
REMARK    1  A    between atoms: C_1  and  C_23
REMARK    2  A    between atoms: C_2  and  N_17
REMARK    3  A    between atoms: C_3  and  C_34
REMARK    4  A    between atoms: C_3  and  S_36
REMARK    5  A    between atoms: C_5  and  C_7
REMARK    6  A    between atoms: C_23  and  C_29
REMARK    7  A    between atoms: S_36  and  C_37
REMARK    8  A    between atoms: N_38  and  N_42
REMARK                            x       y       z     vdW  Elec       q    Type
REMARK                         _______ _______ _______ _____ _____    ______ ____
ROOT
ATOM      1  C   UNL     1     -12.866  -2.861  22.398  0.00  0.00    +0.057 C 
ATOM      2  C   UNL     1     -11.934  -2.619  21.254  0.00  0.00    +0.077 C 
ATOM      3  C   UNL     1     -10.788  -3.579  21.164  0.00  0.00    +0.079 C 
ATOM      4  C   UNL     1     -10.610  -4.606  22.221  0.00  0.00    +0.018 C 
ATOM      5  C   UNL     1     -11.765  -5.016  23.008  0.00  0.00    +0.020 C 
ATOM      6  C   UNL     1     -13.040  -4.263  22.812  0.00  0.00    +0.007 C 
ENDROOT
BRANCH   5   7
ATOM      7  C   UNL     1     -12.016  -6.502  22.844  0.00  0.00    +0.076 C 
ATOM      8  N   UNL     1     -12.692  -6.827  21.633  0.00  0.00    -0.295 NA
ATOM      9  C   UNL     1     -12.435  -8.162  21.155  0.00  0.00    +0.073 C 
ATOM     10  C   UNL     1     -10.956  -8.415  20.938  0.00  0.00    +0.043 C 
ATOM     11  C   UNL     1     -10.303  -8.251  22.251  0.00  0.00    -0.024 C 
ATOM     12  C   UNL     1     -10.833  -7.341  23.128  0.00  0.00    -0.012 C 
ATOM     13  C   UNL     1     -10.188  -7.236  24.351  0.00  0.00    -0.003 C 
ATOM     14  C   UNL     1      -9.077  -7.995  24.676  0.00  0.00    -0.000 C 
ATOM     15  C   UNL     1      -8.576  -8.898  23.765  0.00  0.00    -0.000 C 
ATOM     16  C   UNL     1      -9.208  -9.011  22.550  0.00  0.00    -0.004 C 
ATOM     17  H   UNL     1     -12.396  -6.167  20.914  0.00  0.00    +0.124 HD
ENDBRANCH   5   7
BRANCH   2  18
ATOM     18  N   UNL     1     -12.633  -2.628  19.970  0.00  0.00    -0.245 NA
ATOM     19  C   UNL     1     -14.086  -2.592  20.152  0.00  0.00    +0.148 C 
ATOM     20  N   UNL     1     -14.636  -2.191  18.861  0.00  0.00    -0.270 NA
ATOM     21  C   UNL     1     -13.723  -2.403  17.774  0.00  0.00    +0.144 C 
ATOM     22  N   UNL     1     -12.617  -1.443  17.932  0.00  0.00    -0.270 NA
ATOM     23  C   UNL     1     -12.409  -1.292  19.330  0.00  0.00    +0.148 C 
ATOM     24  H   UNL     1     -14.870  -1.199  18.901  0.00  0.00    +0.126 HD
ATOM     25  H   UNL     1     -12.866  -0.547  17.514  0.00  0.00    +0.126 HD
ENDBRANCH   2  18
BRANCH   1  26
ATOM     26  C   UNL     1     -12.564  -1.915  23.557  0.00  0.00    +0.156 C 
ATOM     27  O   UNL     1     -13.011  -0.631  23.084  0.00  0.00    -0.448 OA
ATOM     28  C   UNL     1     -11.952   0.256  23.084  0.00  0.00    +0.341 C 
ATOM     29  O   UNL     1     -12.037   1.455  22.716  0.00  0.00    -0.245 OA
ATOM     30  C   UNL     1     -10.817  -0.502  23.579  0.00  0.00    +0.081 C 
ATOM     31  C   UNL     1     -11.153  -1.744  23.856  0.00  0.00    +0.020 C 
BRANCH  26  32
ATOM     32  C   UNL     1     -13.341  -2.221  24.797  0.00  0.00    +0.041 C 
ATOM     33  C   UNL     1     -14.747  -1.745  24.781  0.00  0.00    +0.004 C 
ATOM     34  C   UNL     1     -15.084  -1.760  26.280  0.00  0.00    +0.000 C 
ATOM     35  C   UNL     1     -13.798  -1.316  26.954  0.00  0.00    +0.000 C 
ATOM     36  C   UNL     1     -12.721  -1.363  25.906  0.00  0.00    +0.004 C 
ENDBRANCH  26  32
ENDBRANCH   1  26
BRANCH   3  37
ATOM     37  C   UNL     1     -10.929  -4.375  19.896  0.00  0.00    -0.015 C 
ATOM     38  C   UNL     1      -9.942  -4.869  19.197  0.00  0.00    -0.004 C 
ENDBRANCH   3  37
BRANCH   3  39
ATOM     39  S   UNL     1      -9.203  -2.672  21.033  0.00  0.00    -0.052 S 
BRANCH  39  40
ATOM     40  C   UNL     1      -7.846  -3.587  21.639  0.00  0.00    +0.299 C 
ATOM     41  N   UNL     1      -6.525  -3.087  21.505  0.00  0.00    -0.138 N 
ATOM     42  C   UNL     1      -5.399  -3.791  21.979  0.00  0.00    +0.327 C 
ATOM     43  O   UNL     1      -4.230  -3.330  21.858  0.00  0.00    -0.263 OA
ATOM     44  O   UNL     1      -7.988  -4.689  22.205  0.00  0.00    -0.261 OA
BRANCH  41  45
ATOM     45  N   UNL     1      -6.336  -1.845  20.879  0.00  0.00    -0.216 N 
ATOM     46  C   UNL     1      -6.285  -0.647  21.664  0.00  0.00    +0.317 C 
ATOM     47  O   UNL     1      -6.418  -0.788  22.927  0.00  0.00    -0.264 OA
ATOM     48  H   UNL     1      -6.238  -1.797  19.901  0.00  0.00    +0.174 HD
ENDBRANCH  41  45
ENDBRANCH  39  40
ENDBRANCH   3  39
TORSDOF 8
