REMARK  Name = =
REMARK  4 active torsions:
REMARK  status: ('A' for Active; 'I' for Inactive)
REMARK    1  A    between atoms: C_1  and  N_19
REMARK    2  A    between atoms: N_19  and  P_20
REMARK    3  A    between atoms: P_20  and  N_22
REMARK    4  A    between atoms: P_20  and  O_23
REMARK                            x       y       z     vdW  Elec       q    Type
REMARK                         _______ _______ _______ _____ _____    ______ ____
ROOT
ATOM      1  C   UNL     1     -13.170 -44.428  30.340  0.00  0.00    +0.063 C 
ATOM      2  C   UNL     1     -12.152 -43.952  31.384  0.00  0.00    +0.016 C 
ATOM      3  C   UNL     1     -12.836 -42.750  32.053  0.00  0.00    +0.001 C 
ATOM      4  C   UNL     1     -12.632 -42.724  33.529  0.00  0.00    +0.000 C 
ATOM      5  C   UNL     1     -13.865 -42.009  34.075  0.00  0.00    +0.000 C 
ATOM      6  C   UNL     1     -14.775 -41.766  32.892  0.00  0.00    +0.000 C 
ATOM      7  C   UNL     1     -14.359 -42.885  31.959  0.00  0.00    +0.000 C 
ATOM      8  C   UNL     1     -14.698 -42.531  30.503  0.00  0.00    +0.002 C 
ATOM      9  C   UNL     1     -16.116 -42.868  30.180  0.00  0.00    +0.004 C 
ATOM     10  C   UNL     1     -16.307 -43.687  28.945  0.00  0.00    +0.022 C 
ATOM     11  C   UNL     1     -15.334 -43.179  27.926  0.00  0.00    -0.042 C 
ATOM     12  C   UNL     1     -15.776 -42.684  26.773  0.00  0.00    +0.029 C 
ATOM     13  C   UNL     1     -14.814 -42.206  25.821  0.00  0.00    +0.173 C 
ATOM     14  O   UNL     1     -15.120 -42.175  24.605  0.00  0.00    -0.291 OA
ATOM     15  C   UNL     1     -13.486 -41.751  26.228  0.00  0.00    +0.069 C 
ATOM     16  C   UNL     1     -13.173 -41.986  27.670  0.00  0.00    +0.012 C 
ATOM     17  C   UNL     1     -13.875 -43.235  28.221  0.00  0.00    +0.020 C 
ATOM     18  C   UNL     1     -13.669 -43.206  29.670  0.00  0.00    +0.019 C 
ENDROOT
BRANCH   1  19
ATOM     19  N   UNL     1     -12.762 -45.495  29.538  0.00  0.00    -0.224 NA
ATOM     20  H   UNL     1     -13.404 -45.526  28.746  0.00  0.00    +0.133 HD
BRANCH  19  21
ATOM     21  P   UNL     1     -11.200 -45.545  28.894  0.00  0.00    +0.339 P 
ATOM     22  O   UNL     1     -10.175 -46.318  29.649  0.00  0.00    -0.255 OA
BRANCH  21  23
ATOM     23  N   UNL     1     -10.528 -43.930  28.616  0.00  0.00    -0.247 NA
ATOM     24  H   UNL     1     -10.451 -43.436  29.505  0.00  0.00    +0.129 HD
ATOM     25  H   UNL     1     -11.142 -43.409  27.990  0.00  0.00    +0.129 HD
ENDBRANCH  21  23
BRANCH  21  26
ATOM     26  O   UNL     1     -11.276 -46.262  27.337  0.00  0.00    -0.322 OA
ATOM     27  H   UNL     1     -11.639 -47.159  27.411  0.00  0.00    +0.220 HD
ENDBRANCH  21  26
ENDBRANCH  19  21
ENDBRANCH   1  19
TORSDOF 4
