REMARK  Name = =
REMARK  9 active torsions:
REMARK  status: ('A' for Active; 'I' for Inactive)
REMARK    1  A    between atoms: S_1  and  S_2
REMARK    2  A    between atoms: S_1  and  C_20
REMARK    3  A    between atoms: S_2  and  N_3
REMARK    4  A    between atoms: S_2  and  S_15
REMARK    5  A    between atoms: S_15  and  S_16
REMARK    6  A    between atoms: S_16  and  C_17
REMARK    7  A    between atoms: C_17  and  O_19
REMARK    8  A    between atoms: C_20  and  O_22
REMARK    9  A    between atoms: O_22  and  C_23
REMARK                            x       y       z     vdW  Elec       q    Type
REMARK                         _______ _______ _______ _____ _____    ______ ____
ROOT
ATOM      1  S   UNL     1     -17.947 -42.501  24.040  0.00  0.00    -0.010 S 
ENDROOT
BRANCH   1   2
ATOM      2  S   UNL     1     -17.226 -43.076  25.455  0.00  0.00    -0.078 S 
ATOM      3  H   UNL     1     -17.073 -44.419  25.308  0.00  0.00    +0.120 HD
BRANCH   2   4
ATOM      4  N   UNL     1     -15.810 -42.679  25.986  0.00  0.00    -0.227 NA
ATOM      5  C   UNL     1     -14.690 -43.602  25.725  0.00  0.00    +0.105 C 
ATOM      6  C   UNL     1     -13.427 -42.776  25.785  0.00  0.00    +0.112 C 
ATOM      7  N   UNL     1     -13.305 -42.250  27.130  0.00  0.00    -0.275 N 
ATOM      8  C   UNL     1     -14.454 -41.683  27.798  0.00  0.00    +0.112 C 
ATOM      9  C   UNL     1     -15.736 -42.389  27.404  0.00  0.00    +0.105 C 
ATOM     10  C   UNL     1     -12.067 -42.276  27.823  0.00  0.00    +0.220 C 
ATOM     11  N   UNL     1     -10.960 -42.795  27.243  0.00  0.00    -0.212 NA
ATOM     12  C   UNL     1      -9.767 -42.846  27.849  0.00  0.00    +0.103 C 
ATOM     13  C   UNL     1      -9.655 -42.342  29.136  0.00  0.00    +0.041 C 
ATOM     14  C   UNL     1     -10.779 -41.801  29.756  0.00  0.00    +0.103 C 
ATOM     15  N   UNL     1     -11.920 -41.798  29.068  0.00  0.00    -0.212 NA
ENDBRANCH   2   4
BRANCH   2  16
ATOM     16  S   UNL     1     -18.269 -42.206  26.524  0.00  0.00    -0.014 S 
BRANCH  16  17
ATOM     17  S   UNL     1     -20.225 -42.536  26.592  0.00  0.00    -0.000 S 
BRANCH  17  18
ATOM     18  C   UNL     1     -20.890 -43.473  27.924  0.00  0.00    +0.209 C 
ATOM     19  S   UNL     1     -22.454 -43.989  27.781  0.00  0.00    -0.003 S 
BRANCH  18  20
ATOM     20  O   UNL     1     -20.209 -43.812  29.082  0.00  0.00    -0.495 OA
ATOM     21  H   UNL     1     -19.321 -43.538  29.200  0.00  0.00    +0.293 HD
ENDBRANCH  18  20
ENDBRANCH  17  18
ENDBRANCH  16  17
ENDBRANCH   2  16
ENDBRANCH   1   2
BRANCH   1  22
ATOM     22  C   UNL     1     -17.296 -41.231  23.162  0.00  0.00    +0.212 C 
ATOM     23  S   UNL     1     -15.784 -40.614  23.386  0.00  0.00    -0.003 S 
BRANCH  22  24
ATOM     24  O   UNL     1     -18.026 -40.586  22.140  0.00  0.00    -0.462 OA
BRANCH  24  25
ATOM     25  C   UNL     1     -19.373 -40.163  22.394  0.00  0.00    +0.200 C 
ATOM     26  C   UNL     1     -19.974 -39.544  21.206  0.00  0.00    +0.017 C 
ATOM     27  C   UNL     1     -20.615 -40.371  20.306  0.00  0.00    -0.019 C 
ATOM     28  C   UNL     1     -20.663 -41.809  20.580  0.00  0.00    +0.031 C 
ATOM     29  C   UNL     1     -20.823 -42.180  22.011  0.00  0.00    +0.063 C 
ATOM     30  C   UNL     1     -20.161 -41.276  22.987  0.00  0.00    +0.147 C 
ATOM     31  C   UNL     1     -21.197 -40.873  23.935  0.00  0.00    +0.321 C 
ATOM     32  O   UNL     1     -21.137 -39.901  24.721  0.00  0.00    -0.250 OA
ATOM     33  O   UNL     1     -22.254 -41.756  23.811  0.00  0.00    -0.448 OA
ATOM     34  C   UNL     1     -22.245 -42.266  22.483  0.00  0.00    +0.209 C 
ATOM     35  C   UNL     1     -21.189 -39.801  19.177  0.00  0.00    +0.036 C 
ATOM     36  C   UNL     1     -21.149 -38.450  18.912  0.00  0.00    +0.176 C 
ATOM     37  C   UNL     1     -20.506 -37.633  19.817  0.00  0.00    +0.176 C 
ATOM     38  C   UNL     1     -19.935 -38.192  20.941  0.00  0.00    +0.039 C 
ATOM     39  O   UNL     1     -20.610 -36.331  19.316  0.00  0.00    -0.435 OA
ATOM     40  C   UNL     1     -21.549 -36.296  18.262  0.00  0.00    +0.429 C 
ATOM     41  O   UNL     1     -21.640 -37.655  17.870  0.00  0.00    -0.435 OA
ENDBRANCH  24  25
ENDBRANCH  22  24
ENDBRANCH   1  22
TORSDOF 9
