REMARK  Name = =
REMARK  1 active torsions:
REMARK  status: ('A' for Active; 'I' for Inactive)
REMARK    1  A    between atoms: N_3  and  N_4
REMARK                            x       y       z     vdW  Elec       q    Type
REMARK                         _______ _______ _______ _____ _____    ______ ____
ROOT
ATOM      1  C   UNL     1      50.844 155.513  28.352  0.00  0.00    +0.316 C 
ATOM      2  O   UNL     1      51.868 155.695  27.653  0.00  0.00    -0.264 OA
ATOM      3  N   UNL     1      50.739 156.280  29.545  0.00  0.00    -0.226 N 
ATOM      4  H   UNL     1      49.953 156.173  30.128  0.00  0.00    +0.173 HD
ENDROOT
BRANCH   3   5
ATOM      5  N   UNL     1      51.750 157.190  29.898  0.00  0.00    -0.226 N 
ATOM      6  C   UNL     1      51.533 158.598  29.878  0.00  0.00    +0.316 C 
ATOM      7  O   UNL     1      50.371 158.976  29.522  0.00  0.00    -0.264 OA
ATOM      8  H   UNL     1      52.632 156.845  30.166  0.00  0.00    +0.173 HD
ENDBRANCH   3   5
TORSDOF 1
