REMARK  Name = =
REMARK  2 active torsions:
REMARK  status: ('A' for Active; 'I' for Inactive)
REMARK    1  A    between atoms: C_1  and  C_8
REMARK    2  A    between atoms: N_3  and  N_9
REMARK                            x       y       z     vdW  Elec       q    Type
REMARK                         _______ _______ _______ _____ _____    ______ ____
ROOT
ATOM      1  C   UNL     1      51.533 155.613  28.260  0.00  0.00    +0.237 C 
ATOM      2  O   UNL     1      52.393 156.487  28.001  0.00  0.00    -0.274 OA
ATOM      3  N   UNL     1      50.638 155.851  29.338  0.00  0.00    -0.234 N 
ATOM      4  H   UNL     1      49.950 155.184  29.566  0.00  0.00    +0.173 HD
ENDROOT
BRANCH   1   9
ATOM      5  C   UNL     1      51.927 153.232  28.344  0.00  0.00    +0.009 C 
ATOM      6  C   UNL     1      53.329 152.920  27.844  0.00  0.00    +0.001 C 
ATOM      7  C   UNL     1      53.111 153.098  26.342  0.00  0.00    +0.001 C 
ATOM      8  C   UNL     1      52.488 154.478  26.334  0.00  0.00    +0.009 C 
ATOM      9  C   UNL     1      51.482 154.388  27.448  0.00  0.00    +0.078 C 
ENDBRANCH   1   9
BRANCH   3  10
ATOM     10  N   UNL     1      50.738 157.033  30.071  0.00  0.00    -0.227 N 
ATOM     11  C   UNL     1      49.644 157.925  30.257  0.00  0.00    +0.316 C 
ATOM     12  O   UNL     1      48.549 157.600  29.721  0.00  0.00    -0.264 OA
ATOM     13  H   UNL     1      51.605 157.261  30.479  0.00  0.00    +0.173 HD
ENDBRANCH   3  10
TORSDOF 2
