REMARK  Name = =
REMARK  6 active torsions:
REMARK  status: ('A' for Active; 'I' for Inactive)
REMARK    1  A    between atoms: C_1  and  O_12
REMARK    2  A    between atoms: C_5  and  C_6
REMARK    3  A    between atoms: N_8  and  N_9
REMARK    4  A    between atoms: O_12  and  P_13
REMARK    5  A    between atoms: P_13  and  S_15
REMARK    6  A    between atoms: P_13  and  O_16
REMARK                            x       y       z     vdW  Elec       q    Type
REMARK                         _______ _______ _______ _____ _____    ______ ____
ROOT
ATOM      1  C   UNL     1      52.788 154.715  27.999  0.00  0.00    +0.131 C 
ATOM      2  C   UNL     1      53.317 153.334  27.739  0.00  0.00    +0.031 C 
ATOM      3  C   UNL     1      52.294 152.355  28.301  0.00  0.00    +0.003 C 
ATOM      4  C   UNL     1      51.481 153.245  29.227  0.00  0.00    +0.012 C 
ATOM      5  C   UNL     1      51.330 154.468  28.305  0.00  0.00    +0.105 C 
ENDROOT
BRANCH   5   6
ATOM      6  C   UNL     1      50.701 155.593  29.003  0.00  0.00    +0.240 C 
ATOM      7  O   UNL     1      49.452 155.745  28.891  0.00  0.00    -0.274 OA
ATOM      8  N   UNL     1      51.381 156.552  29.810  0.00  0.00    -0.233 N 
ATOM      9  H   UNL     1      52.354 156.471  29.933  0.00  0.00    +0.173 HD
BRANCH   8  10
ATOM     10  N   UNL     1      50.694 157.615  30.438  0.00  0.00    -0.227 N 
ATOM     11  C   UNL     1      51.011 158.962  30.111  0.00  0.00    +0.316 C 
ATOM     12  O   UNL     1      51.915 159.179  29.255  0.00  0.00    -0.264 OA
ATOM     13  H   UNL     1      49.994 157.423  31.103  0.00  0.00    +0.173 HD
ENDBRANCH   8  10
ENDBRANCH   5   6
BRANCH   1  14
ATOM     14  O   UNL     1      53.050 155.645  27.079  0.00  0.00    -0.312 OA
BRANCH  14  15
ATOM     15  P   UNL     1      53.272 155.331  25.507  0.00  0.00    +0.224 P 
ATOM     16  S   UNL     1      52.147 154.254  24.781  0.00  0.00    +0.003 S 
BRANCH  15  17
ATOM     17  S   UNL     1      55.222 154.632  24.996  0.00  0.00    -0.091 S 
ATOM     18  H   UNL     1      55.461 153.453  25.630  0.00  0.00    +0.111 HD
ENDBRANCH  15  17
BRANCH  15  19
ATOM     19  O   UNL     1      53.107 156.808  24.647  0.00  0.00    -0.340 OA
ATOM     20  H   UNL     1      52.235 157.193  24.829  0.00  0.00    +0.218 HD
ENDBRANCH  15  19
ENDBRANCH  14  15
ENDBRANCH   1  14
TORSDOF 6
