REMARK  Name = =
REMARK  6 active torsions:
REMARK  status: ('A' for Active; 'I' for Inactive)
REMARK    1  A    between atoms: O_1  and  P_2
REMARK    2  A    between atoms: O_1  and  P_6
REMARK    3  A    between atoms: P_2  and  O_4
REMARK    4  A    between atoms: P_2  and  O_5
REMARK    5  A    between atoms: P_6  and  O_8
REMARK    6  A    between atoms: P_6  and  O_9
REMARK                            x       y       z     vdW  Elec       q    Type
REMARK                         _______ _______ _______ _____ _____    ______ ____
ROOT
ATOM      1  O   UNL     1      51.603 156.323  29.576  0.00  0.00    -0.186 OA
ENDROOT
BRANCH   1   2
ATOM      2  P   UNL     1      52.348 157.587  28.769  0.00  0.00    +0.481 P 
ATOM      3  O   UNL     1      51.410 158.789  28.797  0.00  0.00    -0.227 OA
BRANCH   2   4
ATOM      4  O   UNL     1      52.554 157.154  27.160  0.00  0.00    -0.302 OA
ATOM      5  H   UNL     1      52.985 157.880  26.682  0.00  0.00    +0.222 HD
ENDBRANCH   2   4
BRANCH   2   6
ATOM      6  O   UNL     1      53.790 158.051  29.507  0.00  0.00    -0.302 OA
ATOM      7  H   UNL     1      53.618 158.290  30.431  0.00  0.00    +0.222 HD
ENDBRANCH   2   6
ENDBRANCH   1   2
BRANCH   1   8
ATOM      8  P   UNL     1      51.810 154.839  28.825  0.00  0.00    +0.481 P 
ATOM      9  O   UNL     1      50.730 154.589  27.794  0.00  0.00    -0.227 OA
BRANCH   8  10
ATOM     10  O   UNL     1      53.325 154.712  28.064  0.00  0.00    -0.302 OA
ATOM     11  H   UNL     1      54.028 154.870  28.714  0.00  0.00    +0.222 HD
ENDBRANCH   8  10
BRANCH   8  12
ATOM     12  O   UNL     1      51.753 153.582  29.977  0.00  0.00    -0.302 OA
ATOM     13  H   UNL     1      50.903 153.609  30.443  0.00  0.00    +0.222 HD
ENDBRANCH   8  12
ENDBRANCH   1   8
TORSDOF 6
