REMARK  Name = =
REMARK  9 active torsions:
REMARK  status: ('A' for Active; 'I' for Inactive)
REMARK    1  A    between atoms: P_1  and  N_3
REMARK    2  A    between atoms: P_1  and  O_7
REMARK    3  A    between atoms: P_1  and  O_8
REMARK    4  A    between atoms: P_1  and  O_9
REMARK    5  A    between atoms: O_2  and  O_9
REMARK    6  A    between atoms: N_3  and  C_4
REMARK    7  A    between atoms: C_4  and  S_6
REMARK    8  A    between atoms: P_10  and  O_12
REMARK    9  A    between atoms: P_10  and  O_13
REMARK                            x       y       z     vdW  Elec       q    Type
REMARK                         _______ _______ _______ _____ _____    ______ ____
ROOT
ATOM      1  P   UNL     1      51.750 158.274  29.362  0.00  0.00    +0.356 P 
ENDROOT
BRANCH   1   2
ATOM      2  N   UNL     1      51.347 156.612  29.542  0.00  0.00    -0.251 N 
ATOM      3  H   UNL     1      50.725 156.341  30.255  0.00  0.00    +0.158 HD
BRANCH   2   4
ATOM      4  C   UNL     1      51.885 155.639  28.697  0.00  0.00    +0.111 C 
ATOM      5  S   UNL     1      52.658 156.091  27.339  0.00  0.00    -0.028 S 
BRANCH   4   6
ATOM      6  S   UNL     1      51.729 153.884  29.101  0.00  0.00    -0.120 S 
ATOM      7  H   UNL     1      51.051 153.747  30.272  0.00  0.00    +0.109 HD
ENDBRANCH   4   6
ENDBRANCH   2   4
ENDBRANCH   1   2
BRANCH   1   8
ATOM      8  O   UNL     1      50.928 158.891  28.027  0.00  0.00    -0.319 OA
ATOM      9  H   UNL     1      49.973 158.776  28.154  0.00  0.00    +0.220 HD
ENDBRANCH   1   8
BRANCH   1  10
ATOM     10  O   UNL     1      53.412 158.449  29.191  0.00  0.00    -0.319 OA
ATOM     11  H   UNL     1      53.857 158.086  29.972  0.00  0.00    +0.220 HD
ENDBRANCH   1  10
BRANCH   1  12
ATOM     12  O   UNL     1      51.097 159.090  30.638  0.00  0.00    -0.148 OA
BRANCH  12  13
ATOM     13  O   UNL     1      52.061 158.298  30.814  0.00  0.00    -0.242 OA
ATOM     14  H   UNL     1      52.299 158.282  31.754  0.00  0.00    +0.254 HD
ENDBRANCH  12  13
ENDBRANCH   1  12
TORSDOF 7
REMARK  Name = =
REMARK  9 active torsions:
REMARK  status: ('A' for Active; 'I' for Inactive)
REMARK    1  A    between atoms: P_1  and  N_3
REMARK    2  A    between atoms: P_1  and  O_7
REMARK    3  A    between atoms: P_1  and  O_8
REMARK    4  A    between atoms: P_1  and  O_9
REMARK    5  A    between atoms: O_2  and  O_9
REMARK    6  A    between atoms: N_3  and  C_4
REMARK    7  A    between atoms: C_4  and  S_6
REMARK    8  A    between atoms: P_10  and  O_12
REMARK    9  A    between atoms: P_10  and  O_13
REMARK                            x       y       z     vdW  Elec       q    Type
REMARK                         _______ _______ _______ _____ _____    ______ ____
ROOT
ATOM      1  P   UNL     1      49.406 159.261  30.557  0.00  0.00    +0.359 P 
ATOM      2  O   UNL     1      48.849 157.994  29.961  0.00  0.00    -0.145 OA
ENDROOT
BRANCH   1   3
ATOM      3  O   UNL     1      48.698 159.544  32.039  0.00  0.00    -0.326 OA
ATOM      4  H   UNL     1      48.877 158.797  32.631  0.00  0.00    +0.219 HD
ENDBRANCH   1   3
BRANCH   1   5
ATOM      5  O   UNL     1      49.096 160.567  29.516  0.00  0.00    -0.326 OA
ATOM      6  H   UNL     1      49.456 161.381  29.902  0.00  0.00    +0.219 HD
ENDBRANCH   1   5
TORSDOF 2
