REMARK  Name = =
REMARK  4 active torsions:
REMARK  status: ('A' for Active; 'I' for Inactive)
REMARK    1  A    between atoms: N_3  and  C_4
REMARK    2  A    between atoms: C_4  and  S_6
REMARK    3  A    between atoms: P_9  and  O_11
REMARK    4  A    between atoms: P_9  and  O_12
REMARK                            x       y       z     vdW  Elec       q    Type
REMARK                         _______ _______ _______ _____ _____    ______ ____
ROOT
ATOM      1  C   UNL     1      51.731 155.717  29.133  0.00  0.00    +0.107 C 
ATOM      2  S   UNL     1      52.750 155.945  27.882  0.00  0.00    -0.028 S 
ENDROOT
BRANCH   1   4
ATOM      3  P   UNL     1      51.335 158.298  29.285  0.00  0.00    +0.082 P 
ATOM      4  N   UNL     1      51.131 156.735  29.880  0.00  0.00    -0.302 N 
ATOM      5  H   UNL     1      50.621 156.550  30.702  0.00  0.00    +0.152 HD
ENDBRANCH   1   4
BRANCH   1   6
ATOM      6  S   UNL     1      51.365 154.011  29.572  0.00  0.00    -0.120 S 
ATOM      7  H   UNL     1      50.507 153.988  30.627  0.00  0.00    +0.109 HD
ENDBRANCH   1   6
TORSDOF 2
REMARK  Name = =
REMARK  4 active torsions:
REMARK  status: ('A' for Active; 'I' for Inactive)
REMARK    1  A    between atoms: N_3  and  C_4
REMARK    2  A    between atoms: C_4  and  S_6
REMARK    3  A    between atoms: P_9  and  O_11
REMARK    4  A    between atoms: P_9  and  O_12
REMARK                            x       y       z     vdW  Elec       q    Type
REMARK                         _______ _______ _______ _____ _____    ______ ____
ROOT
ATOM      1  O   HOH     1      52.703 158.471  29.957  0.00  0.00    -0.253 OA
ATOM      2  H   HOH     0      53.673 158.471  29.957  0.00  0.00    +0.253 HD
ENDROOT
TORSDOF 0
REMARK  Name = =
REMARK  4 active torsions:
REMARK  status: ('A' for Active; 'I' for Inactive)
REMARK    1  A    between atoms: N_3  and  C_4
REMARK    2  A    between atoms: C_4  and  S_6
REMARK    3  A    between atoms: P_9  and  O_11
REMARK    4  A    between atoms: P_9  and  O_12
REMARK                            x       y       z     vdW  Elec       q    Type
REMARK                         _______ _______ _______ _____ _____    ______ ____
ROOT
ATOM      1  O   HOH     1      50.513 158.573  27.861  0.00  0.00    -0.253 OA
ATOM      2  H   HOH     0      51.483 158.573  27.861  0.00  0.00    +0.253 HD
ENDROOT
TORSDOF 0
REMARK  Name = =
REMARK  4 active torsions:
REMARK  status: ('A' for Active; 'I' for Inactive)
REMARK    1  A    between atoms: N_3  and  C_4
REMARK    2  A    between atoms: C_4  and  S_6
REMARK    3  A    between atoms: P_9  and  O_11
REMARK    4  A    between atoms: P_9  and  O_12
REMARK                            x       y       z     vdW  Elec       q    Type
REMARK                         _______ _______ _______ _____ _____    ______ ____
ROOT
ATOM      1  O   UNL     1      49.742 158.933  29.265  0.00  0.00    -0.192 OA
ATOM      2  O   UNL     1      50.661 159.763  29.186  0.00  0.00    -0.192 OA
ATOM      3  C   UNL     1      50.024 160.102  30.354  0.00  0.00    +0.254 C 
ATOM      4  C   UNL     1      50.951 160.823  31.247  0.00  0.00    +0.079 C 
ATOM      5  C   UNL     1      51.954 161.728  30.633  0.00  0.00    +0.014 C 
ATOM      6  C   UNL     1      53.034 162.032  31.646  0.00  0.00    +0.027 C 
ATOM      7  C   UNL     1      52.508 162.248  33.015  0.00  0.00    -0.026 C 
ATOM      8  C   UNL     1      51.261 162.026  33.394  0.00  0.00    -0.009 C 
ATOM      9  C   UNL     1      50.337 161.531  32.378  0.00  0.00    -0.022 C 
ATOM     10  C   UNL     1      49.043 161.695  32.425  0.00  0.00    -0.030 C 
ATOM     11  C   UNL     1      48.057 161.228  31.421  0.00  0.00    +0.031 C 
ATOM     12  C   UNL     1      48.711 160.816  30.126  0.00  0.00    +0.067 C 
ENDROOT
TORSDOF 0
REMARK  Name = =
REMARK  4 active torsions:
REMARK  status: ('A' for Active; 'I' for Inactive)
REMARK    1  A    between atoms: N_3  and  C_4
REMARK    2  A    between atoms: C_4  and  S_6
REMARK    3  A    between atoms: P_9  and  O_11
REMARK    4  A    between atoms: P_9  and  O_12
REMARK                            x       y       z     vdW  Elec       q    Type
REMARK                         _______ _______ _______ _____ _____    ______ ____
ROOT
ATOM      1  P   UNL     1      48.840 157.815  30.143  0.00  0.00    +0.359 P 
ATOM      2  O   UNL     1      49.406 157.560  31.515  0.00  0.00    -0.145 OA
ENDROOT
BRANCH   1   3
ATOM      3  O   UNL     1      47.306 158.526  30.401  0.00  0.00    -0.326 OA
ATOM      4  H   UNL     1      47.410 159.342  30.915  0.00  0.00    +0.219 HD
ENDBRANCH   1   3
BRANCH   1   5
ATOM      5  O   UNL     1      48.593 156.420  29.257  0.00  0.00    -0.326 OA
ATOM      6  H   UNL     1      48.229 156.649  28.388  0.00  0.00    +0.219 HD
ENDBRANCH   1   5
TORSDOF 2
