REMARK  Name = =
REMARK  7 active torsions:
REMARK  status: ('A' for Active; 'I' for Inactive)
REMARK    1  A    between atoms: P_1  and  N_8
REMARK    2  A    between atoms: P_1  and  O_12
REMARK    3  A    between atoms: N_8  and  C_9
REMARK    4  A    between atoms: C_9  and  S_11
REMARK    5  A    between atoms: P_14  and  O_16
REMARK    6  A    between atoms: P_14  and  O_17
REMARK    7  A    between atoms: O_18  and  C_19
REMARK                            x       y       z     vdW  Elec       q    Type
REMARK                         _______ _______ _______ _____ _____    ______ ____
ROOT
ATOM      1  C   UNL     1      53.438 155.751  26.497  0.00  0.00    +0.144 C 
ATOM      2  N   UNL     1      52.647 155.526  27.555  0.00  0.00    -0.192 NA
ATOM      3  C   UNL     1      52.268 156.717  28.095  0.00  0.00    +0.305 C 
ATOM      4  O   UNL     1      52.829 157.624  27.363  0.00  0.00    -0.420 OA
ATOM      5  C   UNL     1      53.543 157.122  26.389  0.00  0.00    +0.203 C 
ATOM      6  N   UNL     1      51.439 156.931  29.219  0.00  0.00    -0.156 N 
ENDROOT
BRANCH   6   7
ATOM      7  P   UNL     1      50.945 158.557  29.618  0.00  0.00    +0.397 P 
ATOM      8  O   UNL     1      50.302 159.027  28.301  0.00  0.00    -0.134 OA
ATOM      9  O   UNL     1      49.438 159.201  29.299  0.00  0.00    -0.134 OA
BRANCH   7  10
ATOM     10  O   UNL     1      51.886 159.619  28.745  0.00  0.00    -0.317 OA
ATOM     11  H   UNL     1      52.820 159.371  28.832  0.00  0.00    +0.220 HD
ENDBRANCH   7  10
ENDBRANCH   6   7
BRANCH   6  12
ATOM     12  C   UNL     1      51.026 155.788  29.940  0.00  0.00    +0.123 C 
ATOM     13  S   UNL     1      51.724 154.327  29.596  0.00  0.00    -0.027 S 
BRANCH  12  14
ATOM     14  S   UNL     1      49.796 155.780  31.213  0.00  0.00    -0.119 S 
ATOM     15  H   UNL     1      49.314 157.040  31.386  0.00  0.00    +0.109 HD
ENDBRANCH  12  14
ENDBRANCH   6  12
TORSDOF 4
REMARK  Name = =
REMARK  7 active torsions:
REMARK  status: ('A' for Active; 'I' for Inactive)
REMARK    1  A    between atoms: P_1  and  N_8
REMARK    2  A    between atoms: P_1  and  O_12
REMARK    3  A    between atoms: N_8  and  C_9
REMARK    4  A    between atoms: C_9  and  S_11
REMARK    5  A    between atoms: P_14  and  O_16
REMARK    6  A    between atoms: P_14  and  O_17
REMARK    7  A    between atoms: O_18  and  C_19
REMARK                            x       y       z     vdW  Elec       q    Type
REMARK                         _______ _______ _______ _____ _____    ______ ____
ROOT
ATOM      1  P   UNL     1      48.464 159.459  30.637  0.00  0.00    +0.359 P 
ATOM      2  O   UNL     1      48.224 160.947  30.833  0.00  0.00    -0.145 OA
ENDROOT
BRANCH   1   3
ATOM      3  O   UNL     1      46.910 158.826  30.248  0.00  0.00    -0.326 OA
ATOM      4  H   UNL     1      46.598 159.222  29.419  0.00  0.00    +0.219 HD
ENDBRANCH   1   3
BRANCH   1   5
ATOM      5  O   UNL     1      49.061 158.817  32.057  0.00  0.00    -0.326 OA
ATOM      6  H   UNL     1      49.934 159.197  32.241  0.00  0.00    +0.219 HD
ENDBRANCH   1   5
TORSDOF 2
REMARK  Name = =
REMARK  7 active torsions:
REMARK  status: ('A' for Active; 'I' for Inactive)
REMARK    1  A    between atoms: P_1  and  N_8
REMARK    2  A    between atoms: P_1  and  O_12
REMARK    3  A    between atoms: N_8  and  C_9
REMARK    4  A    between atoms: C_9  and  S_11
REMARK    5  A    between atoms: P_14  and  O_16
REMARK    6  A    between atoms: P_14  and  O_17
REMARK    7  A    between atoms: O_18  and  C_19
REMARK                            x       y       z     vdW  Elec       q    Type
REMARK                         _______ _______ _______ _____ _____    ______ ____
ROOT
ATOM      1  C   UNL     1      51.674 160.547  30.974  0.00  0.00    +0.115 C 
ATOM      2  C   UNL     1      52.855 161.400  30.679  0.00  0.00    +0.049 C 
ATOM      3  C   UNL     1      54.203 160.750  30.913  0.00  0.00    +0.011 C 
ATOM      4  C   UNL     1      55.226 161.668  30.293  0.00  0.00    +0.026 C 
ATOM      5  C   UNL     1      55.083 163.082  30.612  0.00  0.00    -0.026 C 
ATOM      6  C   UNL     1      53.967 163.569  31.117  0.00  0.00    -0.009 C 
ATOM      7  C   UNL     1      52.785 162.696  31.390  0.00  0.00    -0.025 C 
ATOM      8  C   UNL     1      51.842 163.101  32.204  0.00  0.00    -0.030 C 
ATOM      9  C   UNL     1      50.694 162.202  32.481  0.00  0.00    +0.028 C 
ATOM     10  C   UNL     1      51.270 160.787  32.412  0.00  0.00    +0.034 C 
ENDROOT
BRANCH   1  11
ATOM     11  O   UNL     1      51.910 159.206  30.825  0.00  0.00    -0.384 OA
ATOM     12  H   UNL     1      51.102 158.711  31.032  0.00  0.00    +0.210 HD
ENDBRANCH   1  11
TORSDOF 1
