REMARK  Name = =
REMARK  3 active torsions:
REMARK  status: ('A' for Active; 'I' for Inactive)
REMARK    1  A    between atoms: C_1  and  N_10
REMARK    2  A    between atoms: C_4  and  C_7
REMARK    3  A    between atoms: N_10  and  C_11
REMARK                            x       y       z     vdW  Elec       q    Type
REMARK                         _______ _______ _______ _____ _____    ______ ____
ROOT
ATOM      1  C   UNL     1      52.075 157.073  28.690  0.00  0.00    +0.045 C 
ATOM      2  C   UNL     1      50.799 156.665  29.028  0.00  0.00    +0.014 C 
ATOM      3  C   UNL     1      50.000 157.430  29.825  0.00  0.00    +0.006 C 
ATOM      4  C   UNL     1      50.493 158.630  30.294  0.00  0.00    +0.053 C 
ATOM      5  C   UNL     1      51.779 159.051  29.959  0.00  0.00    +0.006 C 
ATOM      6  C   UNL     1      52.578 158.274  29.154  0.00  0.00    +0.014 C 
ENDROOT
BRANCH   4   7
ATOM      7  C   UNL     1      49.678 159.479  31.147  0.00  0.00    +0.243 C 
ATOM      8  O   UNL     1      48.517 159.077  31.486  0.00  0.00    -0.270 OA
ATOM      9  N   UNL     1      50.154 160.728  31.598  0.00  0.00    -0.325 N 
ATOM     10  H   UNL     1      51.051 161.037  31.335  0.00  0.00    +0.145 HD
ATOM     11  H   UNL     1      49.589 161.291  32.176  0.00  0.00    +0.145 HD
ENDBRANCH   4   7
BRANCH   1  12
ATOM     12  N   UNL     1      52.846 156.225  27.856  0.00  0.00    -0.329 N 
ATOM     13  H   UNL     1      53.817 156.367  27.772  0.00  0.00    +0.147 HD
BRANCH  12  14
ATOM     14  C   UNL     1      52.212 155.162  27.135  0.00  0.00    +0.141 C 
ATOM     15  C   UNL     1      52.751 154.912  25.744  0.00  0.00    +0.148 C 
ATOM     16  S   UNL     1      53.600 156.306  24.959  0.00  0.00    -0.120 S 
ATOM     17  C   UNL     1      55.185 155.437  24.822  0.00  0.00    +0.076 C 
ATOM     18  C   UNL     1      55.101 154.393  25.842  0.00  0.00    +0.087 C 
ATOM     19  N   UNL     1      53.846 154.249  26.427  0.00  0.00    -0.237 NA
ATOM     20  C   UNL     1      52.876 153.826  27.356  0.00  0.00    +0.216 C 
ATOM     21  O   UNL     1      52.591 152.851  28.079  0.00  0.00    -0.205 OA
ENDBRANCH  12  14
ENDBRANCH   1  12
TORSDOF 3
