REMARK  Name = =
REMARK  5 active torsions:
REMARK  status: ('A' for Active; 'I' for Inactive)
REMARK    1  A    between atoms: C_1  and  C_10
REMARK    2  A    between atoms: C_1  and  N_16
REMARK    3  A    between atoms: C_9  and  O_15
REMARK    4  A    between atoms: N_16  and  C_17
REMARK    5  A    between atoms: C_20  and  C_23
REMARK                            x       y       z     vdW  Elec       q    Type
REMARK                         _______ _______ _______ _____ _____    ______ ____
ROOT
ATOM      1  C   UNL     1      49.712 159.632  30.826  0.00  0.00    +0.174 C 
ATOM      2  C   UNL     1      48.410 160.442  30.798  0.00  0.00    +0.153 C 
ATOM      3  S   UNL     1      48.656 162.199  31.197  0.00  0.00    -0.117 S 
ATOM      4  C   UNL     1      47.998 162.149  32.915  0.00  0.00    +0.081 C 
ATOM      5  C   UNL     1      47.319 160.773  32.855  0.00  0.00    +0.106 C 
ATOM      6  N   UNL     1      48.216 159.918  32.128  0.00  0.00    -0.267 N 
ATOM      7  C   UNL     1      49.075 158.808  31.909  0.00  0.00    +0.249 C 
ATOM      8  O   UNL     1      49.222 157.656  32.409  0.00  0.00    -0.273 OA
ENDROOT
BRANCH   1  10
ATOM      9  C   UNL     1      51.711 160.943  30.252  0.00  0.00    +0.135 C 
ATOM     10  C   UNL     1      50.877 160.410  31.212  0.00  0.00    +0.057 C 
ATOM     11  C   UNL     1      51.159 160.670  32.520  0.00  0.00    +0.100 C 
ATOM     12  N   UNL     1      52.223 161.428  32.872  0.00  0.00    -0.242 NA
ATOM     13  C   UNL     1      53.054 161.959  31.933  0.00  0.00    +0.102 C 
ATOM     14  C   UNL     1      52.809 161.724  30.606  0.00  0.00    +0.057 C 
BRANCH   9  15
ATOM     15  O   UNL     1      51.424 160.678  28.920  0.00  0.00    -0.506 OA
ATOM     16  H   UNL     1      51.972 161.026  28.244  0.00  0.00    +0.292 HD
ENDBRANCH   9  15
ENDBRANCH   1  10
BRANCH   1  17
ATOM     17  N   UNL     1      49.811 158.912  29.582  0.00  0.00    -0.323 N 
ATOM     18  H   UNL     1      49.474 159.364  28.775  0.00  0.00    +0.147 HD
BRANCH  17  19
ATOM     19  C   UNL     1      50.344 157.626  29.419  0.00  0.00    +0.045 C 
ATOM     20  C   UNL     1      51.711 157.495  29.143  0.00  0.00    +0.014 C 
ATOM     21  C   UNL     1      52.272 156.252  28.969  0.00  0.00    +0.006 C 
ATOM     22  C   UNL     1      51.551 155.085  29.053  0.00  0.00    +0.053 C 
ATOM     23  C   UNL     1      50.209 155.213  29.325  0.00  0.00    +0.006 C 
ATOM     24  C   UNL     1      49.612 156.472  29.506  0.00  0.00    +0.014 C 
BRANCH  22  25
ATOM     25  C   UNL     1      52.150 153.769  28.869  0.00  0.00    +0.243 C 
ATOM     26  O   UNL     1      51.437 152.746  29.000  0.00  0.00    -0.270 OA
ATOM     27  N   UNL     1      53.529 153.681  28.544  0.00  0.00    -0.325 N 
ATOM     28  H   UNL     1      53.949 152.800  28.416  0.00  0.00    +0.145 HD
ATOM     29  H   UNL     1      54.065 154.501  28.446  0.00  0.00    +0.145 HD
ENDBRANCH  22  25
ENDBRANCH  17  19
ENDBRANCH   1  17
TORSDOF 5
