MODEL 1
REMARK VINA RESULT:    -3.029      0.000      0.000
REMARK INTER + INTRA:          -4.864
REMARK INTER:                  -5.508
REMARK INTRA:                   0.645
REMARK UNBOUND:                 0.645
REMARK  Name = =
REMARK  16 active torsions:
REMARK  status: ('A' for Active; 'I' for Inactive)
REMARK    1  A    between atoms: C_1  and  C_7
REMARK    2  A    between atoms: C_2  and  N_22
REMARK    3  A    between atoms: C_7  and  O_9
REMARK    4  A    between atoms: O_9  and  O_10
REMARK    5  A    between atoms: O_10  and  P_11
REMARK    6  A    between atoms: P_11  and  O_13
REMARK    7  A    between atoms: P_11  and  C_14
REMARK    8  A    between atoms: C_14  and  P_18
REMARK    9  A    between atoms: C_15  and  C_16
REMARK   10  A    between atoms: P_18  and  O_20
REMARK   11  A    between atoms: P_18  and  O_21
REMARK   12  A    between atoms: N_22  and  C_23
REMARK   13  A    between atoms: N_22  and  N_39
REMARK   14  A    between atoms: C_23  and  C_29
REMARK   15  A    between atoms: C_31  and  C_35
REMARK   16  A    between atoms: C_32  and  O_38
REMARK                            x       y       z     vdW  Elec       q    Type
REMARK                         _______ _______ _______ _____ _____    ______ ____
ROOT
ATOM      1  C   UNL     1      51.798 156.649  28.848  0.00  0.00    +0.094 C 
ATOM      2  C   UNL     1      51.854 155.330  28.513  0.00  0.00    +0.076 C 
ATOM      3  C   UNL     1      50.729 154.532  28.725  0.00  0.00    +0.017 C 
ATOM      4  C   UNL     1      49.571 155.039  29.250  0.00  0.00    +0.001 C 
ATOM      5  C   UNL     1      49.478 156.361  29.592  0.00  0.00    +0.000 C 
ATOM      6  C   UNL     1      50.571 157.118  29.387  0.00  0.00    +0.008 C 
ENDROOT
BRANCH   1   7
ATOM      7  C   UNL     1      52.896 157.597  28.830  0.00  0.00    +0.377 C 
ATOM      8  O   UNL     1      53.930 157.590  28.224  0.00  0.00    -0.242 OA
BRANCH   7   9
ATOM      9  O   UNL     1      52.742 158.746  29.665  0.00  0.00    -0.283 OA
BRANCH   9  10
ATOM     10  O   UNL     1      51.734 159.614  29.347  0.00  0.00    -0.091 OA
BRANCH  10  11
ATOM     11  P   UNL     1      51.626 160.746  30.631  0.00  0.00    +0.406 P 
ATOM     12  O   UNL     1      52.346 160.245  31.855  0.00  0.00    -0.250 OA
BRANCH  11  13
ATOM     13  C   UNL     1      49.872 160.879  31.087  0.00  0.00    +0.166 C 
ATOM     14  C   UNL     1      48.988 160.247  30.363  0.00  0.00    +0.060 C 
BRANCH  13  15
ATOM     15  P   UNL     1      49.409 161.877  32.472  0.00  0.00    +0.367 P 
ATOM     16  O   UNL     1      48.231 162.802  32.096  0.00  0.00    -0.253 OA
BRANCH  15  17
ATOM     17  O   UNL     1      50.699 162.806  32.995  0.00  0.00    -0.321 OA
ATOM     18  H   UNL     1      51.414 162.764  32.341  0.00  0.00    +0.220 HD
ENDBRANCH  15  17
BRANCH  15  19
ATOM     19  O   UNL     1      48.802 160.877  33.711  0.00  0.00    -0.321 OA
ATOM     20  H   UNL     1      49.013 161.267  34.574  0.00  0.00    +0.220 HD
ENDBRANCH  15  19
ENDBRANCH  13  15
BRANCH  14  21
ATOM     21  C   UNL     1      47.568 160.285  30.598  0.00  0.00    +0.235 C 
ATOM     22  O   UNL     1      47.098 159.544  31.528  0.00  0.00    -0.283 OA
ENDBRANCH  14  21
ENDBRANCH  11  13
BRANCH  11  23
ATOM     23  O   UNL     1      52.261 162.216  30.174  0.00  0.00    -0.318 OA
ATOM     24  H   UNL     1      52.923 162.498  30.824  0.00  0.00    +0.220 HD
ENDBRANCH  11  23
ENDBRANCH  10  11
ENDBRANCH   9  10
ENDBRANCH   7   9
ENDBRANCH   1   7
BRANCH   2  25
ATOM     25  N   UNL     1      52.990 154.737  27.865  0.00  0.00    -0.211 N 
BRANCH  25  26
ATOM     26  C   UNL     1      53.127 154.877  26.400  0.00  0.00    +0.098 C 
ATOM     27  C   UNL     1      54.467 155.635  26.122  0.00  0.00    +0.024 C 
ATOM     28  C   UNL     1      54.562 155.594  24.576  0.00  0.00    +0.002 C 
ATOM     29  C   UNL     1      53.613 156.623  24.033  0.00  0.00    +0.000 C 
ATOM     30  C   UNL     1      52.586 156.969  25.072  0.00  0.00    +0.002 C 
ATOM     31  C   UNL     1      52.107 155.669  25.737  0.00  0.00    +0.024 C 
BRANCH  26  32
ATOM     32  C   UNL     1      53.444 153.536  25.853  0.00  0.00    -0.004 C 
ATOM     33  C   UNL     1      52.691 152.444  26.303  0.00  0.00    +0.005 C 
ATOM     34  C   UNL     1      52.931 151.152  25.915  0.00  0.00    +0.086 C 
ATOM     35  C   UNL     1      53.966 150.921  25.035  0.00  0.00    +0.138 C 
ATOM     36  C   UNL     1      54.725 151.955  24.570  0.00  0.00    +0.036 C 
ATOM     37  C   UNL     1      54.458 153.249  24.982  0.00  0.00    +0.000 C 
BRANCH  34  38
ATOM     38  C   UNL     1      52.112 150.122  26.489  0.00  0.00    +0.246 C 
ATOM     39  O   UNL     1      51.923 149.029  25.836  0.00  0.00    -0.270 OA
ATOM     40  N   UNL     1      51.490 150.227  27.725  0.00  0.00    -0.325 N 
ATOM     41  H   UNL     1      51.602 151.043  28.264  0.00  0.00    +0.145 HD
ATOM     42  H   UNL     1      50.937 149.486  28.062  0.00  0.00    +0.145 HD
ENDBRANCH  34  38
BRANCH  35  43
ATOM     43  O   UNL     1      54.237 149.634  24.622  0.00  0.00    -0.505 OA
ATOM     44  H   UNL     1      53.563 148.984  24.641  0.00  0.00    +0.292 HD
ENDBRANCH  35  43
ENDBRANCH  26  32
ENDBRANCH  25  26
BRANCH  25  45
ATOM     45  N   UNL     1      53.946 154.014  28.469  0.00  0.00    -0.175 NA
ATOM     46  C   UNL     1      54.048 152.974  29.161  0.00  0.00    +0.140 C 
ENDBRANCH  25  45
ENDBRANCH   2  25
TORSDOF 16
ENDMDL
