MODEL 1
REMARK VINA RESULT:    -8.398      0.000      0.000
REMARK INTER + INTRA:         -10.927
REMARK INTER:                 -10.362
REMARK INTRA:                  -0.565
REMARK UNBOUND:                -0.565
REMARK  Name = =
REMARK  4 active torsions:
REMARK  status: ('A' for Active; 'I' for Inactive)
REMARK    1  A    between atoms: N_1  and  C_11
REMARK    2  A    between atoms: C_2  and  O_17
REMARK    3  A    between atoms: N_6  and  N_7
REMARK    4  A    between atoms: O_17  and  C_18
REMARK                            x       y       z     vdW  Elec       q    Type
REMARK                         _______ _______ _______ _____ _____    ______ ____
ROOT
ATOM      1  N   UNL     1      50.843 158.212  29.969  0.00  0.00    -0.143 N 
ATOM      2  C   UNL     1      50.844 156.818  29.579  0.00  0.00    +0.419 C 
ATOM      3  O   UNL     1      49.752 156.213  29.586  0.00  0.00    -0.225 OA
ATOM      4  C   UNL     1      52.090 158.896  29.958  0.00  0.00    +0.331 C 
ATOM      5  O   UNL     1      53.156 158.302  29.615  0.00  0.00    -0.250 OA
ATOM      6  N   UNL     1      52.218 160.253  30.322  0.00  0.00    -0.216 N 
ATOM      7  H   UNL     1      51.419 160.758  30.596  0.00  0.00    +0.174 HD
ENDROOT
BRANCH   6   8
ATOM      8  N   UNL     1      53.484 160.903  30.300  0.00  0.00    -0.217 N 
ATOM      9  C   UNL     1      53.604 162.144  30.960  0.00  0.00    +0.313 C 
ATOM     10  O   UNL     1      52.559 162.599  31.534  0.00  0.00    -0.252 OA
ATOM     11  N   UNL     1      54.819 162.883  31.005  0.00  0.00    -0.312 N 
ATOM     12  H   UNL     1      54.253 160.499  29.837  0.00  0.00    +0.174 HD
ATOM     13  H   UNL     1      55.625 162.533  30.562  0.00  0.00    +0.147 HD
ATOM     14  H   UNL     1      54.853 163.745  31.479  0.00  0.00    +0.147 HD
ENDBRANCH   6   8
BRANCH   1  15
ATOM     15  C   UNL     1      49.588 158.793  30.337  0.00  0.00    +0.260 C 
ATOM     16  O   UNL     1      49.584 159.323  31.650  0.00  0.00    -0.432 OA
ATOM     17  C   UNL     1      48.599 160.298  31.656  0.00  0.00    +0.318 C 
ATOM     18  O   UNL     1      47.774 160.509  32.603  0.00  0.00    -0.250 OA
ATOM     19  C   UNL     1      48.732 160.999  30.358  0.00  0.00    +0.115 C 
ATOM     20  C   UNL     1      49.177 159.925  29.423  0.00  0.00    +0.078 C 
ENDBRANCH   1  15
BRANCH   2  21
ATOM     21  O   UNL     1      51.981 156.136  29.207  0.00  0.00    -0.410 OA
BRANCH  21  22
ATOM     22  C   UNL     1      52.236 155.731  27.909  0.00  0.00    +0.150 C 
ATOM     23  C   UNL     1      51.844 154.456  27.530  0.00  0.00    +0.038 C 
ATOM     24  C   UNL     1      52.084 154.011  26.229  0.00  0.00    +0.003 C 
ATOM     25  C   UNL     1      52.701 154.821  25.329  0.00  0.00    +0.000 C 
ATOM     26  C   UNL     1      53.111 156.111  25.674  0.00  0.00    +0.003 C 
ATOM     27  C   UNL     1      52.858 156.507  26.956  0.00  0.00    +0.038 C 
ENDBRANCH  21  22
ENDBRANCH   2  21
TORSDOF 4
ENDMDL
