MODEL 1
REMARK VINA RESULT:    -8.568      0.000      0.000
REMARK INTER + INTRA:         -12.924
REMARK INTER:                 -12.575
REMARK INTRA:                  -0.349
REMARK UNBOUND:                -0.349
REMARK  Name = =
REMARK  8 active torsions:
REMARK  status: ('A' for Active; 'I' for Inactive)
REMARK    1  A    between atoms: C_1  and  C_30
REMARK    2  A    between atoms: C_2  and  C_24
REMARK    3  A    between atoms: C_4  and  C_7
REMARK    4  A    between atoms: C_11  and  N_13
REMARK    5  A    between atoms: C_30  and  C_33
REMARK    6  A    between atoms: C_33  and  S_35
REMARK    7  A    between atoms: S_35  and  S_36
REMARK    8  A    between atoms: S_36  and  C_37
REMARK                            x       y       z     vdW  Elec       q    Type
REMARK                         _______ _______ _______ _____ _____    ______ ____
ROOT
ATOM      1  C   UNL     1      57.006 162.638  41.803  0.00  0.00    -0.019 C 
ATOM      2  C   UNL     1      56.512 161.429  41.434  0.00  0.00    -0.004 C 
ATOM      3  C   UNL     1      55.129 161.201  41.409  0.00  0.00    -0.000 C 
ATOM      4  C   UNL     1      54.214 162.148  41.751  0.00  0.00    +0.000 C 
ATOM      5  C   UNL     1      54.718 163.386  42.130  0.00  0.00    -0.000 C 
ATOM      6  C   UNL     1      56.076 163.649  42.163  0.00  0.00    -0.004 C 
ENDROOT
BRANCH   4   7
ATOM      7  C   UNL     1      52.801 161.871  41.880  0.00  0.00    +0.001 C 
ATOM      8  C   UNL     1      52.290 160.700  42.267  0.00  0.00    +0.000 C 
ATOM      9  C   UNL     1      50.934 160.384  42.419  0.00  0.00    +0.001 C 
ATOM     10  C   UNL     1      50.053 161.482  42.106  0.00  0.00    +0.015 C 
ATOM     11  C   UNL     1      50.530 162.621  41.723  0.00  0.00    +0.058 C 
ATOM     12  C   UNL     1      51.900 162.924  41.577  0.00  0.00    +0.015 C 
BRANCH  11  13
ATOM     13  N   UNL     1      49.660 163.714  41.300  0.00  0.00    -0.234 N 
ATOM     14  C   UNL     1      49.948 164.954  41.778  0.00  0.00    +0.058 C 
ATOM     15  C   UNL     1      49.113 166.037  41.518  0.00  0.00    +0.014 C 
ATOM     16  C   UNL     1      49.438 167.297  42.019  0.00  0.00    +0.001 C 
ATOM     17  C   UNL     1      50.561 167.512  42.762  0.00  0.00    +0.000 C 
ATOM     18  C   UNL     1      51.414 166.441  43.034  0.00  0.00    +0.001 C 
ATOM     19  C   UNL     1      51.072 165.202  42.532  0.00  0.00    +0.015 C 
ATOM     20  C   UNL     1      47.974 165.871  40.761  0.00  0.00    +0.006 C 
ATOM     21  C   UNL     1      47.703 164.612  40.282  0.00  0.00    +0.059 C 
ATOM     22  C   UNL     1      48.578 163.569  40.583  0.00  0.00    +0.257 C 
ATOM     23  O   UNL     1      48.274 162.422  40.103  0.00  0.00    -0.269 OA
ENDBRANCH  11  13
ENDBRANCH   4   7
BRANCH   2  24
ATOM     24  C   UNL     1      57.417 160.315  41.248  0.00  0.00    -0.000 C 
ATOM     25  C   UNL     1      57.939 160.177  39.967  0.00  0.00    -0.000 C 
ATOM     26  C   UNL     1      58.795 159.184  39.635  0.00  0.00    -0.000 C 
ATOM     27  C   UNL     1      59.176 158.251  40.613  0.00  0.00    -0.000 C 
ATOM     28  C   UNL     1      58.658 158.377  41.909  0.00  0.00    -0.000 C 
ATOM     29  C   UNL     1      57.793 159.409  42.183  0.00  0.00    -0.000 C 
ENDBRANCH   2  24
BRANCH   1  30
ATOM     30  C   UNL     1      58.377 163.109  41.703  0.00  0.00    +0.044 C 
ATOM     31  C   UNL     1      58.923 163.772  42.992  0.00  0.00    +0.009 C 
ATOM     32  C   UNL     1      59.501 162.479  42.436  0.00  0.00    +0.009 C 
BRANCH  30  33
ATOM     33  C   UNL     1      58.765 163.810  40.454  0.00  0.00    +0.016 C 
ATOM     34  C   UNL     1      58.269 164.876  39.885  0.00  0.00    +0.003 C 
BRANCH  33  35
ATOM     35  S   UNL     1      60.140 162.971  39.550  0.00  0.00    -0.058 S 
BRANCH  35  36
ATOM     36  S   UNL     1      59.714 162.540  37.575  0.00  0.00    -0.057 S 
BRANCH  36  37
ATOM     37  C   UNL     1      59.653 163.730  36.523  0.00  0.00    +0.177 C 
ATOM     38  N   UNL     1      59.582 164.712  35.655  0.00  0.00    -0.118 NA
ENDBRANCH  36  37
ENDBRANCH  35  36
ENDBRANCH  33  35
ENDBRANCH  30  33
ENDBRANCH   1  30
TORSDOF 8
ENDMDL
