REMARK  Name = =
REMARK  0 active torsions:
REMARK  status: ('A' for Active; 'I' for Inactive)
REMARK                            x       y       z     vdW  Elec       q    Type
REMARK                         _______ _______ _______ _____ _____    ______ ____
ROOT
ATOM      1  C   UNL     1      -4.796  -2.277  31.423  0.00  0.00    +0.253 C 
ATOM      2  O   UNL     1      -4.839  -0.873  31.398  0.00  0.00    -0.468 OA
ATOM      3  C   UNL     1      -6.024  -0.136  31.406  0.00  0.00    +0.172 C 
ATOM      4  C   UNL     1      -7.227  -0.808  31.418  0.00  0.00    +0.172 C 
ATOM      5  C   UNL     1      -8.394  -0.074  31.425  0.00  0.00    +0.040 C 
ATOM      6  C   UNL     1      -8.359   1.304  31.421  0.00  0.00    +0.003 C 
ATOM      7  C   UNL     1      -7.130   1.962  31.408  0.00  0.00    +0.003 C 
ATOM      8  C   UNL     1      -5.971   1.231  31.400  0.00  0.00    +0.040 C 
ATOM      9  O   UNL     1      -7.215  -2.185  31.424  0.00  0.00    -0.468 OA
ATOM     10  C   UNL     1      -6.083  -2.909  31.872  0.00  0.00    +0.253 C 
ENDROOT
TORSDOF 0
