REMARK  Name = =
REMARK  1 active torsions:
REMARK  status: ('A' for Active; 'I' for Inactive)
REMARK    1  A    between atoms: C_3  and  N_13
REMARK                            x       y       z     vdW  Elec       q    Type
REMARK                         _______ _______ _______ _____ _____    ______ ____
ROOT
ATOM      1  N   UNL     1       4.569  -7.746  21.486  0.00  0.00    -0.266 N 
ATOM      2  C   UNL     1       4.245  -7.404  20.117  0.00  0.00    +0.116 C 
ATOM      3  C   UNL     1       3.716  -6.010  19.977  0.00  0.00    +0.115 C 
ATOM      4  C   UNL     1       4.599  -5.061  20.701  0.00  0.00    -0.007 C 
ATOM      5  C   UNL     1       5.137  -5.443  21.905  0.00  0.00    -0.005 C 
ATOM      6  C   UNL     1       4.862  -6.774  22.503  0.00  0.00    +0.120 C 
ATOM      7  C   UNL     1       5.965  -4.589  22.614  0.00  0.00    -0.003 C 
ATOM      8  C   UNL     1       6.258  -3.339  22.110  0.00  0.00    -0.000 C 
ATOM      9  C   UNL     1       5.714  -2.964  20.900  0.00  0.00    -0.000 C 
ATOM     10  C   UNL     1       4.892  -3.801  20.189  0.00  0.00    -0.003 C 
ATOM     11  C   UNL     1       4.593  -9.115  21.820  0.00  0.00    +0.303 C 
ATOM     12  O   UNL     1       4.867  -9.465  22.988  0.00  0.00    -0.265 OA
ENDROOT
BRANCH   3  13
ATOM     13  N   UNL     1       3.681  -5.684  18.565  0.00  0.00    -0.212 NA
ATOM     14  C   UNL     1       4.268  -6.765  17.773  0.00  0.00    +0.108 C 
ENDBRANCH   3  13
TORSDOF 1
