REMARK  Name = =
REMARK  2 active torsions:
REMARK  status: ('A' for Active; 'I' for Inactive)
REMARK    1  A    between atoms: N_1  and  C_10
REMARK    2  A    between atoms: C_6  and  N_20
REMARK                            x       y       z     vdW  Elec       q    Type
REMARK                         _______ _______ _______ _____ _____    ______ ____
ROOT
ATOM      1  N   UNL     1      -4.366  -2.113  31.247  0.00  0.00    -0.217 N 
ATOM      2  C   UNL     1      -5.612  -2.030  31.713  0.00  0.00    +0.161 C 
ATOM      3  N   UNL     1      -6.505  -2.897  32.249  0.00  0.00    -0.207 NA
ATOM      4  C   UNL     1      -7.732  -2.530  32.645  0.00  0.00    +0.201 C 
ATOM      5  N   UNL     1      -8.113  -1.254  32.514  0.00  0.00    -0.208 NA
ATOM      6  C   UNL     1      -7.261  -0.360  31.988  0.00  0.00    +0.148 C 
ATOM      7  C   UNL     1      -5.992  -0.717  31.573  0.00  0.00    +0.146 C 
ATOM      8  N   UNL     1      -4.956  -0.053  31.026  0.00  0.00    -0.222 NA
ATOM      9  C   UNL     1      -3.959  -0.904  30.825  0.00  0.00    +0.172 C 
ENDROOT
BRANCH   1  10
ATOM     10  C   UNL     1      -3.620  -3.362  31.231  0.00  0.00    +0.295 C 
ATOM     11  O   UNL     1      -2.249  -3.068  31.050  0.00  0.00    -0.453 OA
ATOM     12  C   UNL     1      -1.828  -2.849  29.747  0.00  0.00    +0.174 C 
ATOM     13  C   UNL     1      -2.526  -3.319  28.656  0.00  0.00    +0.173 C 
ATOM     14  C   UNL     1      -2.107  -3.101  27.346  0.00  0.00    +0.040 C 
ATOM     15  C   UNL     1      -0.955  -2.393  27.099  0.00  0.00    +0.003 C 
ATOM     16  C   UNL     1      -0.243  -1.915  28.178  0.00  0.00    +0.003 C 
ATOM     17  C   UNL     1      -0.667  -2.136  29.479  0.00  0.00    +0.040 C 
ATOM     18  O   UNL     1      -3.689  -4.035  28.897  0.00  0.00    -0.466 OA
ATOM     19  C   UNL     1      -4.117  -4.330  30.201  0.00  0.00    +0.271 C 
ENDBRANCH   1  10
BRANCH   6  20
ATOM     20  N   UNL     1      -7.661   0.998  31.846  0.00  0.00    -0.341 N 
ATOM     21  H   UNL     1      -8.560   1.279  32.134  0.00  0.00    +0.144 HD
ATOM     22  H   UNL     1      -7.039   1.657  31.460  0.00  0.00    +0.144 HD
ENDBRANCH   6  20
TORSDOF 2
