REMARK  Name = =
REMARK  3 active torsions:
REMARK  status: ('A' for Active; 'I' for Inactive)
REMARK    1  A    between atoms: C_1  and  C_11
REMARK    2  A    between atoms: C_1  and  N_21
REMARK    3  A    between atoms: C_26  and  N_30
REMARK                            x       y       z     vdW  Elec       q    Type
REMARK                         _______ _______ _______ _____ _____    ______ ____
ROOT
ATOM      1  C   UNL     1      -3.758  -4.490  31.277  0.00  0.00    +0.244 C 
ATOM      2  O   UNL     1      -5.150  -4.184  31.148  0.00  0.00    -0.458 OA
ATOM      3  C   UNL     1      -5.786  -3.150  31.776  0.00  0.00    +0.174 C 
ATOM      4  C   UNL     1      -5.263  -2.684  32.959  0.00  0.00    +0.173 C 
ATOM      5  C   UNL     1      -5.867  -1.629  33.651  0.00  0.00    +0.040 C 
ATOM      6  C   UNL     1      -7.000  -1.052  33.137  0.00  0.00    +0.003 C 
ATOM      7  C   UNL     1      -7.524  -1.519  31.951  0.00  0.00    +0.003 C 
ATOM      8  C   UNL     1      -6.919  -2.575  31.260  0.00  0.00    +0.040 C 
ATOM      9  O   UNL     1      -4.118  -3.324  33.406  0.00  0.00    -0.467 OA
ATOM     10  C   UNL     1      -3.186  -3.781  32.476  0.00  0.00    +0.266 C 
ENDROOT
BRANCH   1  11
ATOM     11  C   UNL     1      -3.715  -6.006  31.398  0.00  0.00    +0.088 C 
ATOM     12  C   UNL     1      -4.240  -6.389  32.750  0.00  0.00    +0.057 C 
ATOM     13  C   UNL     1      -3.381  -7.325  33.543  0.00  0.00    +0.206 C 
ATOM     14  O   UNL     1      -2.017  -6.989  33.349  0.00  0.00    -0.476 OA
ATOM     15  C   UNL     1      -1.581  -7.074  32.005  0.00  0.00    +0.135 C 
ATOM     16  C   UNL     1      -2.434  -6.601  31.012  0.00  0.00    +0.017 C 
ATOM     17  C   UNL     1      -2.023  -6.686  29.708  0.00  0.00    -0.001 C 
ATOM     18  C   UNL     1      -0.804  -7.217  29.358  0.00  0.00    -0.000 C 
ATOM     19  C   UNL     1       0.051  -7.686  30.330  0.00  0.00    +0.003 C 
ATOM     20  C   UNL     1      -0.368  -7.600  31.648  0.00  0.00    +0.037 C 
ENDBRANCH   1  11
BRANCH   1  21
ATOM     21  N   UNL     1      -3.089  -4.012  30.082  0.00  0.00    -0.221 N 
ATOM     22  C   UNL     1      -1.762  -3.765  29.881  0.00  0.00    +0.161 C 
ATOM     23  N   UNL     1      -0.720  -3.904  30.714  0.00  0.00    -0.207 NA
ATOM     24  C   UNL     1       0.522  -3.603  30.305  0.00  0.00    +0.201 C 
ATOM     25  N   UNL     1       0.694  -3.161  29.052  0.00  0.00    -0.208 NA
ATOM     26  C   UNL     1      -0.291  -2.993  28.153  0.00  0.00    +0.148 C 
ATOM     27  C   UNL     1      -1.566  -3.310  28.595  0.00  0.00    +0.146 C 
ATOM     28  N   UNL     1      -2.763  -3.281  28.019  0.00  0.00    -0.222 NA
ATOM     29  C   UNL     1      -3.675  -3.698  28.906  0.00  0.00    +0.171 C 
BRANCH  26  30
ATOM     30  N   UNL     1      -0.041  -2.522  26.838  0.00  0.00    -0.341 N 
ATOM     31  H   UNL     1      -0.787  -2.411  26.205  0.00  0.00    +0.144 HD
ATOM     32  H   UNL     1       0.878  -2.307  26.559  0.00  0.00    +0.144 HD
ENDBRANCH  26  30
ENDBRANCH   1  21
TORSDOF 3
