REMARK  Name = =
REMARK  4 active torsions:
REMARK  status: ('A' for Active; 'I' for Inactive)
REMARK    1  A    between atoms: C_1  and  C_11
REMARK    2  A    between atoms: C_1  and  N_21
REMARK    3  A    between atoms: C_24  and  C_31
REMARK    4  A    between atoms: C_26  and  N_30
REMARK                            x       y       z     vdW  Elec       q    Type
REMARK                         _______ _______ _______ _____ _____    ______ ____
ROOT
ATOM      1  C   UNL     1      -3.510  -4.458  31.456  0.00  0.00    +0.248 C 
ATOM      2  O   UNL     1      -2.494  -5.278  32.068  0.00  0.00    -0.458 OA
ATOM      3  C   UNL     1      -2.263  -6.580  31.703  0.00  0.00    +0.174 C 
ATOM      4  C   UNL     1      -3.267  -7.255  31.042  0.00  0.00    +0.173 C 
ATOM      5  C   UNL     1      -3.028  -8.564  30.678  0.00  0.00    +0.040 C 
ATOM      6  C   UNL     1      -1.829  -9.188  30.959  0.00  0.00    +0.003 C 
ATOM      7  C   UNL     1      -0.814  -8.528  31.619  0.00  0.00    +0.003 C 
ATOM      8  C   UNL     1      -1.055  -7.221  31.982  0.00  0.00    +0.040 C 
ATOM      9  O   UNL     1      -4.439  -6.593  30.786  0.00  0.00    -0.467 OA
ATOM     10  C   UNL     1      -4.752  -5.278  31.218  0.00  0.00    +0.266 C 
ENDROOT
BRANCH   1  11
ATOM     11  C   UNL     1      -3.729  -3.319  32.424  0.00  0.00    +0.109 C 
ATOM     12  C   UNL     1      -4.452  -3.797  33.645  0.00  0.00    +0.024 C 
ATOM     13  C   UNL     1      -5.893  -3.446  33.752  0.00  0.00    +0.175 C 
ATOM     14  O   UNL     1      -6.384  -2.611  32.725  0.00  0.00    -0.451 OA
ATOM     15  C   UNL     1      -5.623  -1.759  31.990  0.00  0.00    +0.142 C 
ATOM     16  C   UNL     1      -4.278  -2.100  31.829  0.00  0.00    +0.021 C 
ATOM     17  C   UNL     1      -3.539  -1.210  31.078  0.00  0.00    -0.001 C 
ATOM     18  C   UNL     1      -4.059  -0.065  30.518  0.00  0.00    -0.000 C 
ATOM     19  C   UNL     1      -5.368   0.238  30.692  0.00  0.00    +0.003 C 
ATOM     20  C   UNL     1      -6.162  -0.624  31.441  0.00  0.00    +0.037 C 
ENDBRANCH   1  11
BRANCH   1  21
ATOM     21  N   UNL     1      -2.995  -4.052  30.174  0.00  0.00    -0.221 N 
ATOM     22  C   UNL     1      -1.702  -4.021  29.819  0.00  0.00    +0.161 A 
ATOM     23  N   UNL     1      -0.536  -4.317  30.440  0.00  0.00    -0.214 NA
ATOM     24  C   UNL     1       0.666  -4.203  29.864  0.00  0.00    +0.142 A 
ATOM     25  N   UNL     1       0.717  -3.769  28.593  0.00  0.00    -0.215 NA
ATOM     26  C   UNL     1      -0.393  -3.460  27.921  0.00  0.00    +0.147 A 
ATOM     27  C   UNL     1      -1.626  -3.583  28.532  0.00  0.00    +0.146 A 
ATOM     28  N   UNL     1      -2.874  -3.358  28.133  0.00  0.00    -0.222 NA
ATOM     29  C   UNL     1      -3.718  -3.643  29.136  0.00  0.00    +0.171 C 
BRANCH  26  30
ATOM     30  N   UNL     1      -0.393  -2.996  26.578  0.00  0.00    -0.341 N 
ATOM     31  H   UNL     1      -1.244  -2.783  26.131  0.00  0.00    +0.144 HD
ATOM     32  H   UNL     1       0.458  -2.888  26.095  0.00  0.00    +0.144 HD
ENDBRANCH  26  30
BRANCH  24  33
ATOM     33  C   UNL     1       1.932  -4.542  30.588  0.00  0.00    +0.066 C 
ATOM     34  C   UNL     1       3.038  -4.741  29.584  0.00  0.00    +0.008 C 
ENDBRANCH  24  33
ENDBRANCH   1  21
TORSDOF 4
