REMARK  Name = =
REMARK  5 active torsions:
REMARK  status: ('A' for Active; 'I' for Inactive)
REMARK    1  A    between atoms: C_1  and  C_11
REMARK    2  A    between atoms: C_1  and  N_23
REMARK    3  A    between atoms: C_18  and  N_21
REMARK    4  A    between atoms: C_26  and  C_33
REMARK    5  A    between atoms: C_28  and  N_32
REMARK                            x       y       z     vdW  Elec       q    Type
REMARK                         _______ _______ _______ _____ _____    ______ ____
ROOT
ATOM      1  C   UNL     1      -3.301  -4.610  30.930  0.00  0.00    +0.244 C 
ATOM      2  O   UNL     1      -4.730  -4.482  31.033  0.00  0.00    -0.458 OA
ATOM      3  C   UNL     1      -5.279  -3.270  31.499  0.00  0.00    +0.174 C 
ATOM      4  C   UNL     1      -4.451  -2.356  32.116  0.00  0.00    +0.173 C 
ATOM      5  C   UNL     1      -4.994  -1.171  32.570  0.00  0.00    +0.040 C 
ATOM      6  C   UNL     1      -6.341  -0.882  32.422  0.00  0.00    +0.003 C 
ATOM      7  C   UNL     1      -7.170  -1.793  31.807  0.00  0.00    +0.003 C 
ATOM      8  C   UNL     1      -6.622  -2.978  31.353  0.00  0.00    +0.040 C 
ATOM      9  O   UNL     1      -3.111  -2.689  32.241  0.00  0.00    -0.467 OA
ATOM     10  C   UNL     1      -2.750  -4.095  32.207  0.00  0.00    +0.266 C 
ENDROOT
BRANCH   1  11
ATOM     11  C   UNL     1      -3.039  -6.069  30.612  0.00  0.00    +0.088 C 
ATOM     12  C   UNL     1      -4.399  -6.713  30.599  0.00  0.00    +0.057 C 
ATOM     13  C   UNL     1      -4.440  -8.112  31.077  0.00  0.00    +0.206 C 
ATOM     14  O   UNL     1      -3.872  -8.130  32.404  0.00  0.00    -0.476 OA
ATOM     15  C   UNL     1      -2.520  -7.720  32.399  0.00  0.00    +0.135 C 
ATOM     16  C   UNL     1      -2.109  -6.738  31.517  0.00  0.00    +0.018 C 
ATOM     17  C   UNL     1      -0.783  -6.336  31.496  0.00  0.00    +0.018 C 
ATOM     18  C   UNL     1       0.112  -6.920  32.364  0.00  0.00    +0.081 C 
ATOM     19  C   UNL     1      -0.271  -7.899  33.256  0.00  0.00    +0.022 C 
ATOM     20  C   UNL     1      -1.617  -8.290  33.257  0.00  0.00    +0.038 C 
BRANCH  18  21
ATOM     21  N   UNL     1       1.499  -6.532  32.376  0.00  0.00    -0.242 NA
ATOM     22  C   UNL     1       1.960  -5.876  33.386  0.00  0.00    +0.119 C 
ENDBRANCH  18  21
ENDBRANCH   1  11
BRANCH   1  23
ATOM     23  N   UNL     1      -2.827  -3.861  29.774  0.00  0.00    -0.221 N 
ATOM     24  C   UNL     1      -1.582  -3.681  29.334  0.00  0.00    +0.161 A 
ATOM     25  N   UNL     1      -0.439  -4.157  29.859  0.00  0.00    -0.214 NA
ATOM     26  C   UNL     1       0.707  -3.839  29.232  0.00  0.00    +0.142 A 
ATOM     27  N   UNL     1       0.746  -3.072  28.116  0.00  0.00    -0.215 NA
ATOM     28  C   UNL     1      -0.383  -2.585  27.572  0.00  0.00    +0.147 A 
ATOM     29  C   UNL     1      -1.569  -2.900  28.200  0.00  0.00    +0.146 A 
ATOM     30  N   UNL     1      -2.862  -2.607  27.962  0.00  0.00    -0.222 NA
ATOM     31  C   UNL     1      -3.627  -3.197  28.928  0.00  0.00    +0.171 C 
BRANCH  28  32
ATOM     32  N   UNL     1      -0.367  -1.772  26.392  0.00  0.00    -0.341 N 
ATOM     33  H   UNL     1       0.488  -1.556  25.955  0.00  0.00    +0.144 HD
ATOM     34  H   UNL     1      -1.211  -1.430  26.019  0.00  0.00    +0.144 HD
ENDBRANCH  28  32
BRANCH  26  35
ATOM     35  C   UNL     1       1.977  -4.378  29.830  0.00  0.00    +0.066 C 
ATOM     36  C   UNL     1       3.122  -4.044  28.898  0.00  0.00    +0.008 C 
ENDBRANCH  26  35
ENDBRANCH   1  23
TORSDOF 5
