REMARK  Name = =
REMARK  5 active torsions:
REMARK  status: ('A' for Active; 'I' for Inactive)
REMARK    1  A    between atoms: O_1  and  C_2
REMARK    2  A    between atoms: O_1  and  C_5
REMARK    3  A    between atoms: C_2  and  N_3
REMARK    4  A    between atoms: N_3  and  O_4
REMARK    5  A    between atoms: C_5  and  O_7
REMARK                            x       y       z     vdW  Elec       q    Type
REMARK                         _______ _______ _______ _____ _____    ______ ____
ROOT
ATOM      1  O   UNL     1      52.968 155.129  27.073  0.00  0.00    -0.396 OA
ENDROOT
BRANCH   1   2
ATOM      2  C   UNL     1      53.009 155.437  25.713  0.00  0.00    +0.510 C 
ATOM      3  O   UNL     1      52.443 154.617  24.916  0.00  0.00    -0.203 OA
BRANCH   2   4
ATOM      4  O   UNL     1      53.605 156.545  25.160  0.00  0.00    -0.450 OA
ATOM      5  H   UNL     1      53.585 156.674  24.232  0.00  0.00    +0.299 HD
ENDBRANCH   2   4
ENDBRANCH   1   2
BRANCH   1   6
ATOM      6  C   UNL     1      52.195 154.027  27.500  0.00  0.00    +0.332 C 
BRANCH   6   7
ATOM      7  N   UNL     1      52.812 152.936  27.532  0.00  0.00    -0.038 NA
BRANCH   7   8
ATOM      8  O   UNL     1      54.108 152.799  27.192  0.00  0.00    -0.292 OA
ATOM      9  H   UNL     1      54.372 151.871  27.293  0.00  0.00    +0.238 HD
ENDBRANCH   7   8
ENDBRANCH   6   7
ENDBRANCH   1   6
TORSDOF 5
