REMARK  Name = =
REMARK  4 active torsions:
REMARK  status: ('A' for Active; 'I' for Inactive)
REMARK    1  A    between atoms: C_7  and  O_10
REMARK    2  A    between atoms: N_8  and  O_9
REMARK    3  A    between atoms: O_10  and  C_11
REMARK    4  A    between atoms: C_11  and  O_13
REMARK                            x       y       z     vdW  Elec       q    Type
REMARK                         _______ _______ _______ _____ _____    ______ ____
ROOT
ATOM      1  P   UNL     1      49.093 160.662  31.312  0.00  0.00    +0.000 P 
ENDROOT
TORSDOF 0
REMARK  Name = =
REMARK  4 active torsions:
REMARK  status: ('A' for Active; 'I' for Inactive)
REMARK    1  A    between atoms: C_7  and  O_10
REMARK    2  A    between atoms: N_8  and  O_9
REMARK    3  A    between atoms: O_10  and  C_11
REMARK    4  A    between atoms: C_11  and  O_13
REMARK                            x       y       z     vdW  Elec       q    Type
REMARK                         _______ _______ _______ _____ _____    ______ ____
ROOT
ATOM      1  O   HOH     1      48.572 160.286  30.011  0.00  0.00    -0.253 OA
ATOM      2  H   HOH     0      49.542 160.286  30.011  0.00  0.00    +0.253 HD
ENDROOT
TORSDOF 0
REMARK  Name = =
REMARK  4 active torsions:
REMARK  status: ('A' for Active; 'I' for Inactive)
REMARK    1  A    between atoms: C_7  and  O_10
REMARK    2  A    between atoms: N_8  and  O_9
REMARK    3  A    between atoms: O_10  and  C_11
REMARK    4  A    between atoms: C_11  and  O_13
REMARK                            x       y       z     vdW  Elec       q    Type
REMARK                         _______ _______ _______ _____ _____    ______ ____
ROOT
ATOM      1  C   UNL     1      47.931 159.441  31.698  0.00  0.00    +0.000 C 
ATOM      2  C   UNL     1      48.287 158.308  32.223  0.00  0.00    +0.000 C 
ENDROOT
TORSDOF 0
REMARK  Name = =
REMARK  4 active torsions:
REMARK  status: ('A' for Active; 'I' for Inactive)
REMARK    1  A    between atoms: C_7  and  O_10
REMARK    2  A    between atoms: N_8  and  O_9
REMARK    3  A    between atoms: O_10  and  C_11
REMARK    4  A    between atoms: C_11  and  O_13
REMARK                            x       y       z     vdW  Elec       q    Type
REMARK                         _______ _______ _______ _____ _____    ______ ____
ROOT
ATOM      1  O   HOH     1      49.739 160.761  32.919  0.00  0.00    -0.253 OA
ATOM      2  H   HOH     0      50.709 160.761  32.919  0.00  0.00    +0.253 HD
ENDROOT
TORSDOF 0
REMARK  Name = =
REMARK  4 active torsions:
REMARK  status: ('A' for Active; 'I' for Inactive)
REMARK    1  A    between atoms: C_7  and  O_10
REMARK    2  A    between atoms: N_8  and  O_9
REMARK    3  A    between atoms: O_10  and  C_11
REMARK    4  A    between atoms: C_11  and  O_13
REMARK                            x       y       z     vdW  Elec       q    Type
REMARK                         _______ _______ _______ _____ _____    ______ ____
ROOT
ATOM      1  O   HOH     1      48.626 162.226  31.232  0.00  0.00    -0.253 OA
ATOM      2  H   HOH     0      49.596 162.226  31.232  0.00  0.00    +0.253 HD
ENDROOT
TORSDOF 0
REMARK  Name = =
REMARK  4 active torsions:
REMARK  status: ('A' for Active; 'I' for Inactive)
REMARK    1  A    between atoms: C_7  and  O_10
REMARK    2  A    between atoms: N_8  and  O_9
REMARK    3  A    between atoms: O_10  and  C_11
REMARK    4  A    between atoms: C_11  and  O_13
REMARK                            x       y       z     vdW  Elec       q    Type
REMARK                         _______ _______ _______ _____ _____    ______ ____
ROOT
ATOM      1  O   UNL     1      50.434 158.935  29.698  0.00  0.00    -0.368 OA
ENDROOT
BRANCH   1   2
ATOM      2  C   UNL     1      50.436 160.150  30.328  0.00  0.00    +0.327 C 
ATOM      3  N   UNL     1      51.475 160.882  30.161  0.00  0.00    -0.042 NA
BRANCH   3   4
ATOM      4  O   UNL     1      51.668 162.111  30.704  0.00  0.00    -0.406 OA
ATOM      5  H   UNL     1      52.460 162.581  30.530  0.00  0.00    +0.328 HD
ENDBRANCH   3   4
ENDBRANCH   1   2
BRANCH   1   6
ATOM      6  C   UNL     1      51.608 158.281  29.249  0.00  0.00    +0.515 C 
ATOM      7  O   UNL     1      52.701 158.667  29.691  0.00  0.00    -0.203 OA
BRANCH   6   8
ATOM      8  O   UNL     1      51.536 157.241  28.346  0.00  0.00    -0.449 OA
ATOM      9  H   UNL     1      50.704 156.960  28.021  0.00  0.00    +0.299 HD
ENDBRANCH   6   8
ENDBRANCH   1   6
TORSDOF 4
