MODEL 1
REMARK VINA RESULT:    -3.517      0.000      0.000
REMARK INTER + INTRA:          -4.487
REMARK INTER:                  -4.442
REMARK INTRA:                  -0.045
REMARK UNBOUND:                -0.045
REMARK  Name = =
REMARK  6 active torsions:
REMARK  status: ('A' for Active; 'I' for Inactive)
REMARK    1  A    between atoms: C_2  and  C_16
REMARK    2  A    between atoms: C_4  and  S_24
REMARK    3  A    between atoms: C_10  and  N_11
REMARK    4  A    between atoms: C_18  and  O_23
REMARK    5  A    between atoms: C_19  and  O_22
REMARK    6  A    between atoms: S_24  and  N_27
REMARK                            x       y       z     vdW  Elec       q    Type
REMARK                         _______ _______ _______ _____ _____    ______ ____
ROOT
ATOM      1  O   UNL     1      57.634 160.834  39.882  0.00  0.00    -0.475 OA
ATOM      2  C   UNL     1      57.291 161.699  40.988  0.00  0.00    +0.190 C 
ATOM      3  C   UNL     1      58.271 161.571  42.095  0.00  0.00    +0.078 C 
ATOM      4  C   UNL     1      59.519 160.768  41.736  0.00  0.00    +0.175 C 
ATOM      5  C   UNL     1      59.942 160.960  40.338  0.00  0.00    +0.048 C 
ATOM      6  C   UNL     1      58.928 160.974  39.367  0.00  0.00    +0.138 C 
ATOM      7  C   UNL     1      59.236 161.117  38.047  0.00  0.00    +0.037 C 
ATOM      8  C   UNL     1      60.539 161.255  37.616  0.00  0.00    +0.004 C 
ATOM      9  C   UNL     1      61.505 161.240  38.592  0.00  0.00    +0.014 C 
ATOM     10  C   UNL     1      61.245 161.096  39.945  0.00  0.00    +0.049 C 
ENDROOT
BRANCH  10  11
ATOM     11  N   UNL     1      62.329 161.106  40.856  0.00  0.00    -0.293 N 
ATOM     12  C   UNL     1      63.150 159.972  41.188  0.00  0.00    +0.165 C 
ATOM     13  N   UNL     1      64.416 160.597  41.626  0.00  0.00    -0.279 NA
ATOM     14  C   UNL     1      63.844 161.613  42.525  0.00  0.00    +0.092 C 
ATOM     15  C   UNL     1      62.823 162.261  41.623  0.00  0.00    +0.109 C 
ATOM     16  H   UNL     1      64.930 161.015  40.850  0.00  0.00    +0.125 HD
ENDBRANCH  10  11
BRANCH   2  17
ATOM     17  C   UNL     1      55.932 161.289  41.465  0.00  0.00    +0.020 C 
ATOM     18  C   UNL     1      55.604 160.014  41.845  0.00  0.00    +0.039 C 
ATOM     19  C   UNL     1      54.303 159.707  42.261  0.00  0.00    +0.167 C 
ATOM     20  C   UNL     1      53.312 160.655  42.309  0.00  0.00    +0.167 C 
ATOM     21  C   UNL     1      53.652 161.935  41.925  0.00  0.00    +0.040 C 
ATOM     22  C   UNL     1      54.915 162.255  41.515  0.00  0.00    +0.002 C 
BRANCH  20  23
ATOM     23  O   UNL     1      52.011 160.345  42.726  0.00  0.00    -0.503 OA
ATOM     24  H   UNL     1      51.306 160.357  42.108  0.00  0.00    +0.292 HD
ENDBRANCH  20  23
BRANCH  19  25
ATOM     25  O   UNL     1      54.010 158.411  42.637  0.00  0.00    -0.503 OA
ATOM     26  H   UNL     1      54.328 158.077  43.452  0.00  0.00    +0.292 HD
ENDBRANCH  19  25
ENDBRANCH   2  17
BRANCH   4  27
ATOM     27  S   UNL     1      59.107 159.061  42.101  0.00  0.00    +0.040 S 
ATOM     28  O   UNL     1      58.815 158.267  40.880  0.00  0.00    -0.157 OA
ATOM     29  O   UNL     1      57.900 159.027  43.030  0.00  0.00    -0.157 OA
BRANCH  27  30
ATOM     30  N   UNL     1      60.416 158.413  43.035  0.00  0.00    -0.207 NA
ATOM     31  H   UNL     1      61.183 159.084  43.057  0.00  0.00    +0.144 HD
ATOM     32  H   UNL     1      60.738 157.542  42.610  0.00  0.00    +0.144 HD
ENDBRANCH  27  30
ENDBRANCH   4  27
TORSDOF 6
ENDMDL
