MODEL 1
REMARK VINA RESULT:    -6.092      0.000      0.000
REMARK INTER + INTRA:         -12.901
REMARK INTER:                 -10.366
REMARK INTRA:                  -2.535
REMARK UNBOUND:                -2.535
REMARK  Name = =
REMARK  14 active torsions:
REMARK  status: ('A' for Active; 'I' for Inactive)
REMARK    1  A    between atoms: C_1  and  C_4
REMARK    2  A    between atoms: N_3  and  O_21
REMARK    3  A    between atoms: C_4  and  C_7
REMARK    4  A    between atoms: C_6  and  C_13
REMARK    5  A    between atoms: C_8  and  C_19
REMARK    6  A    between atoms: O_21  and  P_22
REMARK    7  A    between atoms: P_22  and  O_24
REMARK    8  A    between atoms: P_22  and  O_25
REMARK    9  A    between atoms: O_25  and  P_26
REMARK   10  A    between atoms: P_26  and  O_28
REMARK   11  A    between atoms: P_26  and  O_29
REMARK   12  A    between atoms: O_29  and  P_30
REMARK   13  A    between atoms: P_30  and  O_32
REMARK   14  A    between atoms: P_30  and  O_33
REMARK                            x       y       z     vdW  Elec       q    Type
REMARK                         _______ _______ _______ _____ _____    ______ ____
ROOT
ATOM      1  C   UNL     1      51.044 158.395  29.989  0.00  0.00    +0.307 C 
ATOM      2  O   UNL     1      50.348 157.444  30.480  0.00  0.00    -0.265 OA
ATOM      3  N   UNL     1      52.351 158.112  29.507  0.00  0.00    -0.178 N 
ATOM      4  H   UNL     1      52.907 158.828  29.123  0.00  0.00    +0.183 HD
ENDROOT
BRANCH   1   5
ATOM      5  C   UNL     1      50.461 159.717  29.947  0.00  0.00    +0.251 C 
ATOM      6  O   UNL     1      50.202 160.306  28.872  0.00  0.00    -0.282 OA
BRANCH   5   8
ATOM      7  C   UNL     1      51.059 161.143  31.906  0.00  0.00    +0.022 C 
ATOM      8  C   UNL     1      50.153 160.419  31.176  0.00  0.00    +0.053 C 
ATOM      9  C   UNL     1      48.843 160.343  31.627  0.00  0.00    +0.071 C 
ATOM     10  C   UNL     1      48.483 160.994  32.795  0.00  0.00    +0.010 C 
ATOM     11  C   UNL     1      49.402 161.728  33.533  0.00  0.00    +0.000 C 
ATOM     12  C   UNL     1      50.701 161.799  33.081  0.00  0.00    -0.001 C 
BRANCH   7  14
ATOM     13  O   UNL     1      52.582 162.438  30.678  0.00  0.00    -0.444 OA
ATOM     14  C   UNL     1      52.447 161.236  31.451  0.00  0.00    +0.196 C 
ATOM     15  C   UNL     1      53.447 161.308  32.557  0.00  0.00    +0.075 C 
ATOM     16  C   UNL     1      54.789 161.582  32.008  0.00  0.00    -0.015 C 
ATOM     17  C   UNL     1      54.974 162.238  30.878  0.00  0.00    +0.077 C 
ATOM     18  C   UNL     1      53.819 162.729  30.111  0.00  0.00    +0.341 C 
ATOM     19  O   UNL     1      53.934 163.347  29.052  0.00  0.00    -0.245 OA
ENDBRANCH   7  14
BRANCH   9  20
ATOM     20  C   UNL     1      47.846 159.601  30.907  0.00  0.00    +0.101 C 
ATOM     21  N   UNL     1      47.018 159.007  30.310  0.00  0.00    -0.191 NA
ENDBRANCH   9  20
ENDBRANCH   5   8
ENDBRANCH   1   5
BRANCH   3  22
ATOM     22  O   UNL     1      52.813 156.872  29.580  0.00  0.00    -0.175 OA
BRANCH  22  23
ATOM     23  P   UNL     1      52.459 155.925  28.244  0.00  0.00    +0.503 P 
ATOM     24  O   UNL     1      52.553 156.707  26.935  0.00  0.00    -0.225 OA
BRANCH  23  25
ATOM     25  O   UNL     1      50.862 155.371  28.425  0.00  0.00    -0.301 OA
ATOM     26  H   UNL     1      50.367 155.540  27.608  0.00  0.00    +0.222 HD
ENDBRANCH  23  25
BRANCH  23  27
ATOM     27  O   UNL     1      53.448 154.581  28.099  0.00  0.00    -0.185 OA
BRANCH  27  28
ATOM     28  P   UNL     1      52.632 153.427  27.168  0.00  0.00    +0.492 P 
ATOM     29  O   UNL     1      51.701 152.589  28.040  0.00  0.00    -0.226 OA
BRANCH  28  30
ATOM     30  O   UNL     1      51.616 154.215  26.038  0.00  0.00    -0.302 OA
ATOM     31  H   UNL     1      52.110 154.928  25.603  0.00  0.00    +0.222 HD
ENDBRANCH  28  30
BRANCH  28  32
ATOM     32  O   UNL     1      53.686 152.374  26.406  0.00  0.00    -0.186 OA
BRANCH  32  33
ATOM     33  P   UNL     1      54.573 153.136  25.174  0.00  0.00    +0.481 P 
ATOM     34  O   UNL     1      54.172 152.628  23.804  0.00  0.00    -0.227 OA
BRANCH  33  35
ATOM     35  O   UNL     1      54.389 154.803  25.311  0.00  0.00    -0.302 OA
ATOM     36  H   UNL     1      53.460 155.011  25.501  0.00  0.00    +0.222 HD
ENDBRANCH  33  35
BRANCH  33  37
ATOM     37  O   UNL     1      56.188 152.710  25.400  0.00  0.00    -0.302 OA
ATOM     38  H   UNL     1      56.670 153.460  25.785  0.00  0.00    +0.222 HD
ENDBRANCH  33  37
ENDBRANCH  32  33
ENDBRANCH  28  32
ENDBRANCH  27  28
ENDBRANCH  23  27
ENDBRANCH  22  23
ENDBRANCH   3  22
TORSDOF 14
ENDMDL
