MODEL 1
REMARK VINA RESULT:    -7.319      0.000      0.000
REMARK INTER + INTRA:         -10.105
REMARK INTER:                  -9.244
REMARK INTRA:                  -0.861
REMARK UNBOUND:                -0.861
REMARK  Name = =
REMARK  5 active torsions:
REMARK  status: ('A' for Active; 'I' for Inactive)
REMARK    1  A    between atoms: C_1  and  C_26
REMARK    2  A    between atoms: C_6  and  C_10
REMARK    3  A    between atoms: C_23  and  C_24
REMARK    4  A    between atoms: C_24  and  O_25
REMARK    5  A    between atoms: C_26  and  N_37
REMARK                            x       y       z     vdW  Elec       q    Type
REMARK                         _______ _______ _______ _____ _____    ______ ____
ROOT
ATOM      1  C   UNL     1      61.673 163.078  37.918  0.00  0.00    +0.029 C 
ATOM      2  C   UNL     1      62.182 164.197  37.227  0.00  0.00    +0.040 C 
ATOM      3  C   UNL     1      61.474 164.776  36.190  0.00  0.00    +0.176 C 
ATOM      4  C   UNL     1      60.259 164.264  35.822  0.00  0.00    +0.176 C 
ATOM      5  C   UNL     1      59.772 163.184  36.494  0.00  0.00    +0.040 C 
ATOM      6  C   UNL     1      60.464 162.558  37.564  0.00  0.00    +0.003 C 
ATOM      7  O   UNL     1      59.757 165.002  34.778  0.00  0.00    -0.435 OA
ATOM      8  C   UNL     1      60.631 166.123  34.576  0.00  0.00    +0.429 C 
ATOM      9  O   UNL     1      61.775 165.882  35.366  0.00  0.00    -0.435 OA
ENDROOT
BRANCH   6  10
ATOM     10  C   UNL     1      59.824 161.454  38.237  0.00  0.00    -0.000 C 
ATOM     11  C   UNL     1      59.890 160.126  37.961  0.00  0.00    -0.000 C 
ATOM     12  C   UNL     1      59.142 159.188  38.652  0.00  0.00    -0.000 C 
ATOM     13  C   UNL     1      58.293 159.602  39.655  0.00  0.00    -0.000 C 
ATOM     14  C   UNL     1      58.175 160.945  39.989  0.00  0.00    -0.000 C 
ATOM     15  C   UNL     1      58.938 161.834  39.276  0.00  0.00    -0.000 C 
ATOM     16  C   UNL     1      58.820 163.184  39.621  0.00  0.00    -0.000 C 
ATOM     17  C   UNL     1      57.974 163.585  40.628  0.00  0.00    -0.000 C 
ATOM     18  C   UNL     1      57.226 162.662  41.317  0.00  0.00    -0.002 C 
ATOM     19  C   UNL     1      57.318 161.317  41.003  0.00  0.00    -0.000 C 
ATOM     20  C   UNL     1      56.563 160.396  41.701  0.00  0.00    -0.000 C 
ATOM     21  C   UNL     1      55.721 160.843  42.710  0.00  0.00    -0.000 C 
ATOM     22  C   UNL     1      55.621 162.183  43.032  0.00  0.00    -0.002 C 
ATOM     23  C   UNL     1      56.371 163.101  42.338  0.00  0.00    +0.007 C 
BRANCH  23  24
ATOM     24  C   UNL     1      56.295 164.551  42.653  0.00  0.00    +0.164 C 
BRANCH  24  25
ATOM     25  O   UNL     1      55.194 165.148  42.048  0.00  0.00    -0.377 OA
ATOM     26  H   UNL     1      54.713 164.485  41.527  0.00  0.00    +0.211 HD
ENDBRANCH  24  25
ENDBRANCH  23  24
ENDBRANCH   6  10
BRANCH   1  27
ATOM     27  C   UNL     1      62.515 162.422  38.948  0.00  0.00    +0.212 C 
ATOM     28  O   UNL     1      61.781 161.623  39.756  0.00  0.00    -0.313 OA
ATOM     29  C   UNL     1      62.513 160.875  40.639  0.00  0.00    +0.193 C 
ATOM     30  O   UNL     1      63.239 161.642  41.525  0.00  0.00    -0.334 OA
ATOM     31  C   UNL     1      64.096 160.916  42.304  0.00  0.00    +0.145 C 
ATOM     32  C   UNL     1      63.486 159.767  43.034  0.00  0.00    +0.032 C 
ATOM     33  C   UNL     1      62.341 159.113  42.335  0.00  0.00    +0.008 C 
ATOM     34  C   UNL     1      61.534 160.055  41.492  0.00  0.00    +0.057 C 
ATOM     35  C   UNL     1      63.325 159.872  39.875  0.00  0.00    +0.082 C 
ATOM     36  C   UNL     1      64.101 160.450  38.737  0.00  0.00    -0.021 C 
ATOM     37  C   UNL     1      63.619 161.714  38.165  0.00  0.00    +0.021 C 
BRANCH  27  38
ATOM     38  N   UNL     1      63.226 163.466  39.709  0.00  0.00    -0.181 N 
ATOM     39  N   UNL     1      64.563 163.655  39.622  0.00  0.00    -0.174 NA
ATOM     40  C   UNL     1      64.928 164.689  40.384  0.00  0.00    +0.119 C 
ATOM     41  C   UNL     1      63.766 165.153  40.961  0.00  0.00    +0.040 C 
ATOM     42  C   UNL     1      62.693 164.366  40.521  0.00  0.00    +0.089 C 
ENDBRANCH  27  38
ENDBRANCH   1  27
TORSDOF 5
ENDMDL
