REMARK  Name = =
REMARK  5 active torsions:
REMARK  status: ('A' for Active; 'I' for Inactive)
REMARK    1  A    between atoms: C_1  and  C_26
REMARK    2  A    between atoms: C_6  and  C_10
REMARK    3  A    between atoms: C_23  and  C_24
REMARK    4  A    between atoms: C_24  and  O_25
REMARK    5  A    between atoms: C_26  and  N_37
REMARK                            x       y       z     vdW  Elec       q    Type
REMARK                         _______ _______ _______ _____ _____    ______ ____
ROOT
ATOM      1  C   UNL     1      52.059 160.068  30.517  0.00  0.00    +0.029 C 
ATOM      2  C   UNL     1      52.844 161.219  30.732  0.00  0.00    +0.040 C 
ATOM      3  C   UNL     1      54.180 161.248  30.374  0.00  0.00    +0.176 C 
ATOM      4  C   UNL     1      54.757 160.147  29.801  0.00  0.00    +0.176 C 
ATOM      5  C   UNL     1      53.993 159.038  29.595  0.00  0.00    +0.040 C 
ATOM      6  C   UNL     1      52.620 158.965  29.946  0.00  0.00    +0.003 C 
ATOM      7  O   UNL     1      56.078 160.417  29.539  0.00  0.00    -0.435 OA
ATOM      8  C   UNL     1      56.306 161.805  29.827  0.00  0.00    +0.429 C 
ATOM      9  O   UNL     1      55.148 162.268  30.489  0.00  0.00    -0.435 OA
ENDROOT
BRANCH   6  10
ATOM     10  C   UNL     1      51.898 157.756  29.630  0.00  0.00    -0.000 C 
ATOM     11  C   UNL     1      50.890 157.155  30.313  0.00  0.00    -0.000 C 
ATOM     12  C   UNL     1      50.354 155.940  29.924  0.00  0.00    -0.000 C 
ATOM     13  C   UNL     1      50.853 155.303  28.808  0.00  0.00    -0.000 C 
ATOM     14  C   UNL     1      51.885 155.860  28.064  0.00  0.00    -0.000 C 
ATOM     15  C   UNL     1      52.381 157.066  28.490  0.00  0.00    -0.000 C 
ATOM     16  C   UNL     1      53.415 157.625  27.733  0.00  0.00    -0.000 C 
ATOM     17  C   UNL     1      53.901 156.984  26.618  0.00  0.00    -0.000 C 
ATOM     18  C   UNL     1      53.377 155.776  26.226  0.00  0.00    -0.002 C 
ATOM     19  C   UNL     1      52.352 155.194  26.951  0.00  0.00    -0.000 C 
ATOM     20  C   UNL     1      51.831 153.980  26.549  0.00  0.00    -0.000 C 
ATOM     21  C   UNL     1      52.351 153.366  25.418  0.00  0.00    -0.000 C 
ATOM     22  C   UNL     1      53.374 153.939  24.687  0.00  0.00    -0.002 C 
ATOM     23  C   UNL     1      53.894 155.146  25.085  0.00  0.00    +0.007 C 
BRANCH  23  24
ATOM     24  C   UNL     1      54.994 155.797  24.327  0.00  0.00    +0.164 C 
BRANCH  24  25
ATOM     25  O   UNL     1      55.441 154.993  23.284  0.00  0.00    -0.377 OA
ATOM     26  H   UNL     1      56.157 155.446  22.811  0.00  0.00    +0.211 HD
ENDBRANCH  24  25
ENDBRANCH  23  24
ENDBRANCH   6  10
BRANCH   1  27
ATOM     27  C   UNL     1      50.663 160.043  31.018  0.00  0.00    +0.212 C 
ATOM     28  O   UNL     1      49.772 160.229  30.017  0.00  0.00    -0.313 OA
ATOM     29  C   UNL     1      48.461 160.077  30.383  0.00  0.00    +0.193 C 
ATOM     30  O   UNL     1      48.058 160.983  31.340  0.00  0.00    -0.334 OA
ATOM     31  C   UNL     1      46.805 160.741  31.830  0.00  0.00    +0.145 C 
ATOM     32  C   UNL     1      45.730 160.596  30.807  0.00  0.00    +0.032 C 
ATOM     33  C   UNL     1      46.172 160.012  29.507  0.00  0.00    +0.008 C 
ATOM     34  C   UNL     1      47.589 160.348  29.148  0.00  0.00    +0.057 C 
ATOM     35  C   UNL     1      48.218 158.642  30.745  0.00  0.00    +0.082 C 
ATOM     36  C   UNL     1      49.214 158.073  31.701  0.00  0.00    -0.021 C 
ATOM     37  C   UNL     1      50.533 158.717  31.765  0.00  0.00    +0.021 C 
BRANCH  27  38
ATOM     38  N   UNL     1      50.524 161.065  32.072  0.00  0.00    -0.181 N 
ATOM     39  N   UNL     1      50.812 162.372  31.869  0.00  0.00    -0.174 NA
ATOM     40  C   UNL     1      50.557 163.072  32.978  0.00  0.00    +0.119 C 
ATOM     41  C   UNL     1      50.093 162.157  33.897  0.00  0.00    +0.040 C 
ATOM     42  C   UNL     1      50.077 160.886  33.306  0.00  0.00    +0.089 C 
ENDBRANCH  27  38
ENDBRANCH   1  27
TORSDOF 5
