REMARK  Name = =
REMARK  0 active torsions:
REMARK  status: ('A' for Active; 'I' for Inactive)
REMARK                            x       y       z     vdW  Elec       q    Type
REMARK                         _______ _______ _______ _____ _____    ______ ____
ROOT
ATOM      1  C   UNL     1      -4.423  -4.342  30.904  0.00  0.00    +0.003 C 
ATOM      2  C   UNL     1      -3.604  -5.470  31.037  0.00  0.00    +0.040 C 
ATOM      3  C   UNL     1      -2.295  -5.467  30.606  0.00  0.00    +0.176 C 
ATOM      4  C   UNL     1      -1.745  -4.349  30.027  0.00  0.00    +0.176 C 
ATOM      5  C   UNL     1      -2.569  -3.230  29.899  0.00  0.00    +0.040 C 
ATOM      6  C   UNL     1      -3.866  -3.226  30.324  0.00  0.00    +0.003 C 
ATOM      7  O   UNL     1      -0.425  -4.614  29.688  0.00  0.00    -0.435 OA
ATOM      8  C   UNL     1      -0.029  -5.697  30.516  0.00  0.00    +0.429 C 
ATOM      9  O   UNL     1      -1.262  -6.419  30.606  0.00  0.00    -0.435 OA
ENDROOT
TORSDOF 0
