REMARK  Name = =
REMARK  1 active torsions:
REMARK  status: ('A' for Active; 'I' for Inactive)
REMARK    1  A    between atoms: N_1  and  C_12
REMARK                            x       y       z     vdW  Elec       q    Type
REMARK                         _______ _______ _______ _____ _____    ______ ____
ROOT
ATOM      1  N   UNL     1      -3.600  -3.886  31.190  0.00  0.00    -0.234 N 
ATOM      2  C   UNL     1      -4.447  -3.164  31.934  0.00  0.00    +0.058 C 
ATOM      3  C   UNL     1      -4.874  -1.957  31.419  0.00  0.00    +0.014 C 
ATOM      4  C   UNL     1      -5.747  -1.227  32.201  0.00  0.00    +0.001 C 
ATOM      5  C   UNL     1      -6.184  -1.658  33.435  0.00  0.00    +0.000 C 
ATOM      6  C   UNL     1      -5.743  -2.867  33.928  0.00  0.00    +0.001 C 
ATOM      7  C   UNL     1      -4.870  -3.623  33.173  0.00  0.00    +0.015 C 
ATOM      8  C   UNL     1      -4.462  -1.487  30.189  0.00  0.00    +0.006 C 
ATOM      9  C   UNL     1      -3.588  -2.247  29.439  0.00  0.00    +0.059 C 
ATOM     10  C   UNL     1      -3.175  -3.449  29.975  0.00  0.00    +0.257 C 
ATOM     11  O   UNL     1      -2.380  -4.150  29.299  0.00  0.00    -0.269 OA
ENDROOT
BRANCH   1  12
ATOM     12  C   UNL     1      -3.154  -5.137  31.720  0.00  0.00    +0.062 C 
ATOM     13  C   UNL     1      -4.075  -5.978  32.308  0.00  0.00    +0.055 C 
ATOM     14  C   UNL     1      -3.698  -7.200  32.837  0.00  0.00    +0.178 C 
ATOM     15  C   UNL     1      -2.372  -7.549  32.756  0.00  0.00    +0.177 C 
ATOM     16  C   UNL     1      -1.443  -6.689  32.157  0.00  0.00    +0.041 C 
ATOM     17  C   UNL     1      -1.825  -5.474  31.632  0.00  0.00    +0.019 C 
ATOM     18  O   UNL     1      -2.238  -8.790  33.340  0.00  0.00    -0.435 OA
ATOM     19  C   UNL     1      -3.421  -9.050  34.069  0.00  0.00    +0.429 C 
ATOM     20  O   UNL     1      -4.416  -8.215  33.472  0.00  0.00    -0.435 OA
ENDBRANCH   1  12
TORSDOF 1
