REMARK  Name = =
REMARK  4 active torsions:
REMARK  status: ('A' for Active; 'I' for Inactive)
REMARK    1  A    between atoms: C_1  and  N_10
REMARK    2  A    between atoms: C_2  and  C_21
REMARK    3  A    between atoms: C_21  and  C_23
REMARK    4  A    between atoms: C_23  and  O_25
REMARK                            x       y       z     vdW  Elec       q    Type
REMARK                         _______ _______ _______ _____ _____    ______ ____
ROOT
ATOM      1  C   UNL     1      -4.182  -4.746  32.723  0.00  0.00    +0.065 C 
ATOM      2  C   UNL     1      -3.786  -3.824  31.771  0.00  0.00    +0.097 C 
ATOM      3  C   UNL     1      -4.527  -2.674  31.546  0.00  0.00    +0.181 C 
ATOM      4  C   UNL     1      -5.672  -2.450  32.279  0.00  0.00    +0.177 C 
ATOM      5  C   UNL     1      -6.040  -3.383  33.217  0.00  0.00    +0.041 C 
ATOM      6  C   UNL     1      -5.322  -4.534  33.462  0.00  0.00    +0.019 C 
ATOM      7  O   UNL     1      -6.189  -1.235  31.833  0.00  0.00    -0.435 OA
ATOM      8  C   UNL     1      -5.180  -0.513  31.139  0.00  0.00    +0.429 C 
ATOM      9  O   UNL     1      -4.370  -1.591  30.666  0.00  0.00    -0.434 OA
ENDROOT
BRANCH   1  10
ATOM     10  N   UNL     1      -3.415  -5.918  32.945  0.00  0.00    -0.234 N 
ATOM     11  C   UNL     1      -3.518  -6.953  32.091  0.00  0.00    +0.058 C 
ATOM     12  C   UNL     1      -2.797  -8.125  32.251  0.00  0.00    +0.014 C 
ATOM     13  C   UNL     1      -2.902  -9.189  31.374  0.00  0.00    +0.001 C 
ATOM     14  C   UNL     1      -3.753  -9.098  30.293  0.00  0.00    +0.000 C 
ATOM     15  C   UNL     1      -4.482  -7.956  30.104  0.00  0.00    +0.001 C 
ATOM     16  C   UNL     1      -4.370  -6.899  30.983  0.00  0.00    +0.015 C 
ATOM     17  C   UNL     1      -1.942  -8.203  33.345  0.00  0.00    +0.006 C 
ATOM     18  C   UNL     1      -1.847  -7.134  34.211  0.00  0.00    +0.059 C 
ATOM     19  C   UNL     1      -2.593  -5.984  34.003  0.00  0.00    +0.257 C 
ATOM     20  O   UNL     1      -2.458  -5.045  34.833  0.00  0.00    -0.269 OA
ENDBRANCH   1  10
BRANCH   2  21
ATOM     21  C   UNL     1      -2.597  -3.993  30.965  0.00  0.00    +0.275 C 
ATOM     22  O   UNL     1      -1.474  -3.857  31.482  0.00  0.00    -0.279 OA
BRANCH  21  23
ATOM     23  C   UNL     1      -2.738  -4.320  29.566  0.00  0.00    +0.378 C 
ATOM     24  O   UNL     1      -3.837  -4.200  28.967  0.00  0.00    -0.241 OA
BRANCH  23  25
ATOM     25  O   UNL     1      -1.670  -4.789  28.788  0.00  0.00    -0.475 OA
ATOM     26  H   UNL     1      -0.823  -4.901  29.173  0.00  0.00    +0.296 HD
ENDBRANCH  23  25
ENDBRANCH  21  23
ENDBRANCH   2  21
TORSDOF 4
