REMARK  Name = =
REMARK  6 active torsions:
REMARK  status: ('A' for Active; 'I' for Inactive)
REMARK    1  A    between atoms: C_1  and  N_10
REMARK    2  A    between atoms: C_2  and  C_21
REMARK    3  A    between atoms: C_8  and  O_26
REMARK    4  A    between atoms: C_21  and  C_23
REMARK    5  A    between atoms: C_23  and  O_25
REMARK    6  A    between atoms: O_26  and  C_27
REMARK                            x       y       z     vdW  Elec       q    Type
REMARK                         _______ _______ _______ _____ _____    ______ ____
ROOT
ATOM      1  C   UNL     1      -1.225  -6.570  29.388  0.00  0.00    +0.065 C 
ATOM      2  C   UNL     1       0.113  -6.245  29.344  0.00  0.00    +0.097 C 
ATOM      3  C   UNL     1       1.019  -7.061  28.704  0.00  0.00    +0.184 C 
ATOM      4  C   UNL     1       0.644  -8.230  28.080  0.00  0.00    +0.180 C 
ATOM      5  C   UNL     1      -0.707  -8.566  28.119  0.00  0.00    +0.042 C 
ATOM      6  C   UNL     1      -1.610  -7.747  28.762  0.00  0.00    +0.019 C 
ATOM      7  O   UNL     1       1.777  -8.795  27.547  0.00  0.00    -0.407 OA
ATOM      8  C   UNL     1       2.909  -8.194  28.112  0.00  0.00    +0.550 C 
ATOM      9  O   UNL     1       2.373  -6.933  28.540  0.00  0.00    -0.407 OA
ENDROOT
BRANCH   1  10
ATOM     10  N   UNL     1      -2.140  -5.724  30.049  0.00  0.00    -0.234 N 
ATOM     11  C   UNL     1      -2.523  -5.963  31.302  0.00  0.00    +0.058 C 
ATOM     12  C   UNL     1      -3.423  -5.142  31.973  0.00  0.00    +0.014 C 
ATOM     13  C   UNL     1      -3.812  -5.402  33.273  0.00  0.00    +0.001 C 
ATOM     14  C   UNL     1      -3.313  -6.492  33.941  0.00  0.00    +0.000 C 
ATOM     15  C   UNL     1      -2.426  -7.304  33.285  0.00  0.00    +0.001 C 
ATOM     16  C   UNL     1      -2.044  -7.044  32.000  0.00  0.00    +0.015 C 
ATOM     17  C   UNL     1      -3.933  -4.044  31.316  0.00  0.00    +0.006 C 
ATOM     18  C   UNL     1      -3.540  -3.793  30.024  0.00  0.00    +0.059 C 
ATOM     19  C   UNL     1      -2.640  -4.654  29.414  0.00  0.00    +0.257 C 
ATOM     20  O   UNL     1      -2.282  -4.426  28.241  0.00  0.00    -0.269 OA
ENDBRANCH   1  10
BRANCH   2  21
ATOM     21  C   UNL     1       0.600  -5.027  29.976  0.00  0.00    +0.275 C 
ATOM     22  O   UNL     1       0.790  -5.064  31.213  0.00  0.00    -0.279 OA
BRANCH  21  23
ATOM     23  C   UNL     1       0.855  -3.819  29.188  0.00  0.00    +0.378 C 
ATOM     24  O   UNL     1       0.821  -3.839  27.931  0.00  0.00    -0.241 OA
BRANCH  23  25
ATOM     25  O   UNL     1       1.134  -2.655  29.876  0.00  0.00    -0.475 OA
ATOM     26  H   UNL     1       1.155  -2.658  30.813  0.00  0.00    +0.296 HD
ENDBRANCH  23  25
ENDBRANCH  21  23
ENDBRANCH   2  21
BRANCH   8  27
ATOM     27  O   UNL     1       3.928  -7.922  27.216  0.00  0.00    -0.410 OA
BRANCH  27  28
ATOM     28  C   UNL     1       5.085  -8.607  27.010  0.00  0.00    +0.146 C 
ATOM     29  C   UNL     1       5.893  -8.239  25.960  0.00  0.00    +0.034 C 
ATOM     30  C   UNL     1       7.086  -8.878  25.678  0.00  0.00    +0.003 C 
ATOM     31  C   UNL     1       7.463  -9.918  26.488  0.00  0.00    +0.000 C 
ATOM     32  C   UNL     1       6.681 -10.318  27.551  0.00  0.00    +0.003 C 
ATOM     33  C   UNL     1       5.490  -9.653  27.805  0.00  0.00    +0.037 C 
ATOM     34  C   UNL     1       7.886  -8.494  24.616  0.00  0.00    +0.000 C 
ATOM     35  C   UNL     1       7.515  -7.448  23.796  0.00  0.00    +0.000 C 
ATOM     36  C   UNL     1       6.324  -6.791  24.058  0.00  0.00    +0.000 C 
ATOM     37  C   UNL     1       5.548  -7.188  25.113  0.00  0.00    +0.003 C 
ENDBRANCH  27  28
ENDBRANCH   8  27
TORSDOF 6
