REMARK  Name = =
REMARK  5 active torsions:
REMARK  status: ('A' for Active; 'I' for Inactive)
REMARK    1  A    between atoms: S_1  and  C_2
REMARK    2  A    between atoms: S_1  and  C_15
REMARK    3  A    between atoms: S_1  and  C_25
REMARK    4  A    between atoms: C_3  and  O_14
REMARK    5  A    between atoms: C_25  and  O_27
REMARK                            x       y       z     vdW  Elec       q    Type
REMARK                         _______ _______ _______ _____ _____    ______ ____
ROOT
ATOM      1  S   UNL     1      -2.348  -7.184  30.681  0.00  0.00    -0.045 S 
ATOM      2  H   UNL     1      -3.315  -7.891  31.325  0.00  0.00    +0.107 HD
ENDROOT
BRANCH   1   3
ATOM      3  C   UNL     1      -0.928  -6.881  31.676  0.00  0.00    +0.098 C 
ATOM      4  C   UNL     1      -0.774  -7.599  32.795  0.00  0.00    +0.181 C 
ATOM      5  C   UNL     1       0.376  -7.375  33.630  0.00  0.00    +0.230 C 
ATOM      6  O   UNL     1       0.521  -8.059  34.693  0.00  0.00    -0.283 OA
ATOM      7  C   UNL     1       1.413  -6.396  33.336  0.00  0.00    +0.045 C 
ATOM      8  C   UNL     1       1.256  -5.650  32.178  0.00  0.00    +0.043 C 
ATOM      9  C   UNL     1       2.213  -4.711  31.861  0.00  0.00    +0.003 C 
ATOM     10  C   UNL     1       3.316  -4.492  32.655  0.00  0.00    +0.000 C 
ATOM     11  C   UNL     1       3.456  -5.247  33.809  0.00  0.00    +0.000 C 
ATOM     12  C   UNL     1       2.510  -6.198  34.155  0.00  0.00    +0.003 C 
ATOM     13  C   UNL     1       0.083  -5.887  31.338  0.00  0.00    +0.204 C 
ATOM     14  O   UNL     1      -0.066  -5.207  30.277  0.00  0.00    -0.286 OA
BRANCH   4  15
ATOM     15  O   UNL     1      -1.750  -8.550  33.110  0.00  0.00    -0.502 OA
ATOM     16  H   UNL     1      -2.487  -8.670  32.544  0.00  0.00    +0.292 HD
ENDBRANCH   4  15
ENDBRANCH   1   3
BRANCH   1  17
ATOM     17  C   UNL     1      -2.919  -5.612  30.133  0.00  0.00    +0.269 C 
ATOM     18  N   UNL     1      -3.399  -4.702  31.074  0.00  0.00    -0.275 N 
ATOM     19  C   UNL     1      -3.491  -4.894  32.496  0.00  0.00    +0.076 C 
ATOM     20  C   UNL     1      -2.768  -3.621  32.968  0.00  0.00    +0.022 C 
ATOM     21  C   UNL     1      -3.394  -2.591  32.050  0.00  0.00    +0.022 C 
ATOM     22  C   UNL     1      -3.906  -3.375  30.827  0.00  0.00    +0.076 C 
ATOM     23  C   UNL     1      -5.424  -3.454  30.887  0.00  0.00    +0.020 C 
ATOM     24  C   UNL     1      -5.887  -4.442  31.906  0.00  0.00    +0.003 C 
ATOM     25  C   UNL     1      -4.916  -4.744  32.996  0.00  0.00    +0.020 C 
ATOM     26  O   UNL     1      -2.856  -5.401  28.895  0.00  0.00    -0.264 OA
ENDBRANCH   1  17
BRANCH   1  27
ATOM     27  C   UNL     1      -1.697  -7.983  29.219  0.00  0.00    +0.358 C 
ATOM     28  O   UNL     1      -1.544  -9.223  29.214  0.00  0.00    -0.239 OA
BRANCH  27  29
ATOM     29  O   UNL     1      -1.357  -7.261  28.094  0.00  0.00    -0.473 OA
ATOM     30  H   UNL     1      -1.466  -6.330  28.084  0.00  0.00    +0.296 HD
ENDBRANCH  27  29
ENDBRANCH   1  27
TORSDOF 5
