REMARK  Name = =
REMARK  7 active torsions:
REMARK  status: ('A' for Active; 'I' for Inactive)
REMARK    1  A    between atoms: C_1  and  S_26
REMARK    2  A    between atoms: C_5  and  N_11
REMARK    3  A    between atoms: C_9  and  N_20
REMARK    4  A    between atoms: S_26  and  C_27
REMARK    5  A    between atoms: S_26  and  C_40
REMARK    6  A    between atoms: C_28  and  O_39
REMARK    7  A    between atoms: C_40  and  O_42
REMARK                            x       y       z     vdW  Elec       q    Type
REMARK                         _______ _______ _______ _____ _____    ______ ____
ROOT
ATOM      1  C   UNL     1      -0.896  -6.840  28.827  0.00  0.00    +0.269 C 
ATOM      2  N   UNL     1      -0.280  -5.597  28.894  0.00  0.00    -0.272 N 
ATOM      3  C   UNL     1      -0.209  -4.590  29.899  0.00  0.00    +0.092 C 
ATOM      4  C   UNL     1      -0.390  -3.285  29.089  0.00  0.00    +0.039 C 
ATOM      5  C   UNL     1      -0.002  -3.628  27.698  0.00  0.00    +0.078 C 
ATOM      6  C   UNL     1       0.508  -5.041  27.787  0.00  0.00    +0.091 C 
ATOM      7  C   UNL     1       1.982  -5.078  28.115  0.00  0.00    +0.023 C 
ATOM      8  C   UNL     1       2.301  -4.557  29.465  0.00  0.00    +0.019 C 
ATOM      9  C   UNL     1       1.212  -4.484  30.472  0.00  0.00    +0.076 C 
ATOM     10  O   UNL     1      -0.654  -7.610  27.779  0.00  0.00    -0.264 OA
ENDROOT
BRANCH   5  11
ATOM     11  N   UNL     1       1.031  -2.837  27.109  0.00  0.00    -0.265 NA
ATOM     12  C   UNL     1       1.459  -3.523  25.875  0.00  0.00    +0.099 C 
ATOM     13  C   UNL     1       2.196  -2.430  25.175  0.00  0.00    -0.009 C 
ATOM     14  C   UNL     1       1.709  -1.227  25.629  0.00  0.00    -0.009 C 
ATOM     15  C   UNL     1       2.253  -0.091  25.093  0.00  0.00    -0.003 C 
ATOM     16  C   UNL     1       3.256  -0.155  24.131  0.00  0.00    -0.000 C 
ATOM     17  C   UNL     1       3.734  -1.369  23.685  0.00  0.00    -0.000 C 
ATOM     18  C   UNL     1       3.184  -2.511  24.226  0.00  0.00    -0.003 C 
ATOM     19  C   UNL     1       0.654  -1.539  26.661  0.00  0.00    +0.099 C 
ENDBRANCH   5  11
BRANCH   9  20
ATOM     20  N   UNL     1       1.386  -5.213  31.638  0.00  0.00    -0.268 NA
ATOM     21  C   UNL     1       0.310  -5.792  32.323  0.00  0.00    +0.077 C 
ATOM     22  C   UNL     1       0.579  -6.420  33.640  0.00  0.00    +0.043 C 
ATOM     23  C   UNL     1       1.833  -5.932  34.245  0.00  0.00    -0.028 C 
ATOM     24  C   UNL     1       2.860  -5.593  33.498  0.00  0.00    -0.013 C 
ATOM     25  C   UNL     1       2.646  -5.742  32.002  0.00  0.00    +0.099 C 
ENDBRANCH   9  20
BRANCH   1  26
ATOM     26  S   UNL     1      -1.983  -7.561  29.931  0.00  0.00    -0.045 S 
ATOM     27  H   UNL     1      -2.844  -8.288  29.170  0.00  0.00    +0.107 HD
BRANCH  26  28
ATOM     28  C   UNL     1      -2.793  -6.343  30.853  0.00  0.00    +0.098 C 
ATOM     29  C   UNL     1      -2.925  -6.553  32.159  0.00  0.00    +0.181 C 
ATOM     30  C   UNL     1      -3.588  -5.613  33.039  0.00  0.00    +0.230 C 
ATOM     31  O   UNL     1      -3.719  -5.803  34.287  0.00  0.00    -0.283 OA
ATOM     32  C   UNL     1      -4.146  -4.375  32.501  0.00  0.00    +0.045 C 
ATOM     33  C   UNL     1      -4.024  -4.128  31.162  0.00  0.00    +0.043 C 
ATOM     34  C   UNL     1      -4.548  -2.956  30.613  0.00  0.00    +0.003 C 
ATOM     35  C   UNL     1      -5.193  -2.043  31.431  0.00  0.00    +0.000 C 
ATOM     36  C   UNL     1      -5.304  -2.312  32.781  0.00  0.00    +0.000 C 
ATOM     37  C   UNL     1      -4.793  -3.464  33.333  0.00  0.00    +0.003 C 
ATOM     38  C   UNL     1      -3.339  -5.117  30.303  0.00  0.00    +0.204 C 
ATOM     39  O   UNL     1      -3.235  -4.882  29.083  0.00  0.00    -0.286 OA
BRANCH  29  40
ATOM     40  O   UNL     1      -2.411  -7.715  32.727  0.00  0.00    -0.502 OA
ATOM     41  H   UNL     1      -1.975  -8.346  32.189  0.00  0.00    +0.292 HD
ENDBRANCH  29  40
ENDBRANCH  26  28
BRANCH  26  42
ATOM     42  C   UNL     1      -1.224  -8.587  31.043  0.00  0.00    +0.358 C 
ATOM     43  O   UNL     1      -0.035  -8.404  31.413  0.00  0.00    -0.239 OA
BRANCH  42  44
ATOM     44  O   UNL     1      -1.891  -9.679  31.596  0.00  0.00    -0.473 OA
ATOM     45  H   UNL     1      -2.778  -9.858  31.353  0.00  0.00    +0.296 HD
ENDBRANCH  42  44
ENDBRANCH  26  42
ENDBRANCH   1  26
TORSDOF 7
