REMARK  Name = =
REMARK  2 active torsions:
REMARK  status: ('A' for Active; 'I' for Inactive)
REMARK    1  A    between atoms: C_3  and  C_13
REMARK    2  A    between atoms: C_3  and  N_15
REMARK                            x       y       z     vdW  Elec       q    Type
REMARK                         _______ _______ _______ _____ _____    ______ ____
ROOT
ATOM      1  N   UNL     1       4.758  -5.315  20.183  0.00  0.00    -0.266 N 
ATOM      2  C   UNL     1       4.718  -5.959  21.481  0.00  0.00    +0.119 C 
ATOM      3  C   UNL     1       4.020  -5.120  22.497  0.00  0.00    +0.121 C 
ATOM      4  C   UNL     1       4.220  -3.678  22.263  0.00  0.00    -0.005 C 
ATOM      5  C   UNL     1       4.765  -3.140  21.139  0.00  0.00    -0.005 C 
ATOM      6  C   UNL     1       5.229  -3.964  20.007  0.00  0.00    +0.120 C 
ATOM      7  C   UNL     1       4.927  -1.755  20.978  0.00  0.00    -0.003 C 
ATOM      8  C   UNL     1       4.519  -0.922  21.991  0.00  0.00    -0.000 C 
ATOM      9  C   UNL     1       3.966  -1.425  23.140  0.00  0.00    -0.000 C 
ATOM     10  C   UNL     1       3.820  -2.780  23.269  0.00  0.00    -0.003 C 
ATOM     11  C   UNL     1       4.326  -6.014  19.023  0.00  0.00    +0.303 C 
ATOM     12  O   UNL     1       4.340  -5.501  17.876  0.00  0.00    -0.265 OA
ENDROOT
BRANCH   3  13
ATOM     13  C   UNL     1       2.546  -5.403  22.402  0.00  0.00    +0.037 C 
ATOM     14  S   UNL     1       2.080  -6.662  22.860  0.00  0.00    -0.053 S 
ENDBRANCH   3  13
BRANCH   3  15
ATOM     15  N   UNL     1       4.456  -5.389  23.849  0.00  0.00    -0.209 NA
ATOM     16  C   UNL     1       5.848  -5.708  23.954  0.00  0.00    +0.108 C 
ENDBRANCH   3  15
TORSDOF 2
