REMARK  Name = =
REMARK  7 active torsions:
REMARK  status: ('A' for Active; 'I' for Inactive)
REMARK    1  A    between atoms: C_3  and  C_13
REMARK    2  A    between atoms: C_3  and  N_29
REMARK    3  A    between atoms: C_13  and  S_14
REMARK    4  A    between atoms: S_14  and  C_15
REMARK    5  A    between atoms: N_29  and  C_30
REMARK    6  A    between atoms: C_30  and  C_31
REMARK    7  A    between atoms: C_31  and  O_33
REMARK                            x       y       z     vdW  Elec       q    Type
REMARK                         _______ _______ _______ _____ _____    ______ ____
ROOT
ATOM      1  N   UNL     1       4.247 -12.684  20.217  0.00  0.00    -0.267 N 
ATOM      2  C   UNL     1       2.858 -12.307  20.199  0.00  0.00    +0.115 C 
ATOM      3  C   UNL     1       2.149 -12.487  21.512  0.00  0.00    +0.105 C 
ATOM      4  C   UNL     1       2.725 -13.687  22.223  0.00  0.00    -0.008 C 
ATOM      5  C   UNL     1       4.096 -13.900  22.219  0.00  0.00    -0.005 C 
ATOM      6  C   UNL     1       4.898 -12.888  21.485  0.00  0.00    +0.120 C 
ATOM      7  C   UNL     1       4.625 -14.995  22.867  0.00  0.00    -0.003 C 
ATOM      8  C   UNL     1       3.802 -15.899  23.534  0.00  0.00    -0.000 C 
ATOM      9  C   UNL     1       2.442 -15.703  23.547  0.00  0.00    -0.000 C 
ATOM     10  C   UNL     1       1.938 -14.601  22.891  0.00  0.00    -0.003 C 
ATOM     11  C   UNL     1       4.960 -12.851  19.008  0.00  0.00    +0.303 C 
ATOM     12  O   UNL     1       4.402 -12.678  17.888  0.00  0.00    -0.265 OA
ENDROOT
BRANCH   3  13
ATOM     13  C   UNL     1       2.235 -11.286  22.374  0.00  0.00    +0.070 C 
BRANCH  13  14
ATOM     14  S   UNL     1       1.089 -10.180  22.539  0.00  0.00    -0.180 S 
ATOM     15  H   UNL     1      -0.031 -10.794  23.004  0.00  0.00    +0.097 HD
BRANCH  14  16
ATOM     16  C   UNL     1       1.489  -8.897  23.619  0.00  0.00    +0.016 A 
ATOM     17  C   UNL     1       2.069  -7.688  23.218  0.00  0.00    +0.022 A 
ATOM     18  C   UNL     1       2.372  -6.688  24.119  0.00  0.00    +0.082 A 
ATOM     19  N   UNL     1       2.109  -6.865  25.427  0.00  0.00    -0.245 NA
ATOM     20  C   UNL     1       1.552  -8.009  25.875  0.00  0.00    +0.082 A 
ATOM     21  C   UNL     1       1.241  -9.027  24.973  0.00  0.00    +0.022 A 
ATOM     22  C   UNL     1       0.673 -10.160  25.521  0.00  0.00    +0.002 C 
ATOM     23  C   UNL     1       0.420 -10.302  26.870  0.00  0.00    +0.000 C 
ATOM     24  C   UNL     1       0.738  -9.287  27.723  0.00  0.00    +0.002 C 
ATOM     25  C   UNL     1       1.301  -8.146  27.226  0.00  0.00    +0.019 C 
ATOM     26  C   UNL     1       2.951  -5.510  23.633  0.00  0.00    +0.019 C 
ATOM     27  C   UNL     1       3.220  -5.323  22.302  0.00  0.00    +0.002 C 
ATOM     28  C   UNL     1       2.906  -6.346  21.403  0.00  0.00    +0.000 C 
ATOM     29  C   UNL     1       2.337  -7.509  21.877  0.00  0.00    +0.002 C 
ENDBRANCH  14  16
ENDBRANCH  13  14
ENDBRANCH   3  13
BRANCH   3  30
ATOM     30  N   UNL     1       0.750 -12.850  21.251  0.00  0.00    -0.212 NA
BRANCH  30  31
ATOM     31  C   UNL     1       0.468 -13.019  19.865  0.00  0.00    +0.118 C 
BRANCH  31  32
ATOM     32  C   UNL     1      -0.549 -14.149  19.658  0.00  0.00    +0.128 C 
ATOM     33  C   UNL     1      -1.568 -14.097  20.769  0.00  0.00    +0.033 C 
BRANCH  32  34
ATOM     34  O   UNL     1      -1.207 -13.842  18.462  0.00  0.00    -0.383 OA
ATOM     35  H   UNL     1      -0.573 -13.868  17.728  0.00  0.00    +0.210 HD
ENDBRANCH  32  34
ENDBRANCH  31  32
ENDBRANCH  30  31
ENDBRANCH   3  30
TORSDOF 7
