MODEL 1
REMARK VINA RESULT:   -11.559      0.000      0.000
REMARK INTER + INTRA:         -15.255
REMARK INTER:                 -14.600
REMARK INTRA:                  -0.655
REMARK UNBOUND:                -0.655
REMARK  Name = =
REMARK  5 active torsions:
REMARK  status: ('A' for Active; 'I' for Inactive)
REMARK    1  A    between atoms: N_1  and  C_33
REMARK    2  A    between atoms: C_35  and  O_51
REMARK    3  A    between atoms: C_36  and  C_38
REMARK    4  A    between atoms: C_41  and  C_43
REMARK    5  A    between atoms: C_43  and  C_45
REMARK                            x       y       z     vdW  Elec       q    Type
REMARK                         _______ _______ _______ _____ _____    ______ ____
ROOT
ATOM      1  N   UNL     1      -2.331  -6.184  29.939  0.00  0.00    -0.295 N 
ATOM      2  C   UNL     1      -1.084  -6.126  29.274  0.00  0.00    +0.172 A 
ATOM      3  N   UNL     1      -0.404  -5.012  29.095  0.00  0.00    -0.130 NA
ATOM      4  N   UNL     1       0.759  -4.918  28.486  0.00  0.00    -0.132 NA
ATOM      5  C   UNL     1       1.364  -6.031  27.974  0.00  0.00    +0.156 A 
ATOM      6  N   UNL     1       2.612  -5.884  27.272  0.00  0.00    -0.290 N 
ATOM      7  C   UNL     1       2.539  -5.958  25.829  0.00  0.00    +0.109 C 
ATOM      8  C   UNL     1       2.246  -4.598  25.220  0.00  0.00    +0.094 C 
ATOM      9  N   UNL     1       3.415  -4.026  24.586  0.00  0.00    -0.271 NA
ATOM     10  C   UNL     1       3.096  -3.467  23.296  0.00  0.00    +0.073 C 
ATOM     11  C   UNL     1       2.930  -1.985  23.484  0.00  0.00    +0.019 C 
ATOM     12  C   UNL     1       3.875  -1.683  24.616  0.00  0.00    +0.019 C 
ATOM     13  C   UNL     1       4.046  -2.995  25.346  0.00  0.00    +0.072 C 
ATOM     14  C   UNL     1       4.166  -3.783  22.256  0.00  0.00    +0.085 C 
ATOM     15  N   UNL     1       4.702  -5.098  22.423  0.00  0.00    -0.295 NA
ATOM     16  C   UNL     1       6.173  -5.109  22.408  0.00  0.00    +0.086 C 
ATOM     17  C   UNL     1       6.670  -6.537  22.324  0.00  0.00    +0.086 C 
ATOM     18  N   UNL     1       7.803  -6.790  23.180  0.00  0.00    -0.294 NA
ATOM     19  C   UNL     1       7.498  -7.681  24.283  0.00  0.00    +0.101 C 
ATOM     20  C   UNL     1       6.776  -6.923  25.382  0.00  0.00    +0.159 C 
ATOM     21  O   UNL     1       6.623  -7.639  26.539  0.00  0.00    -0.352 OA
ATOM     22  C   UNL     1       5.367  -7.463  27.153  0.00  0.00    +0.144 C 
ATOM     23  C   UNL     1       5.082  -6.009  27.357  0.00  0.00    +0.054 C 
ATOM     24  C   UNL     1       3.798  -5.691  28.034  0.00  0.00    +0.095 C 
ATOM     25  C   UNL     1       0.725  -7.224  28.119  0.00  0.00    +0.073 A 
ATOM     26  C   UNL     1      -0.496  -7.291  28.763  0.00  0.00    +0.121 A 
ATOM     27  N   UNL     1      -1.109  -8.456  28.906  0.00  0.00    -0.221 NA
ATOM     28  C   UNL     1      -0.521  -9.583  28.411  0.00  0.00    +0.199 C 
ATOM     29  N   UNL     1       0.669  -9.528  27.782  0.00  0.00    -0.222 NA
ATOM     30  C   UNL     1       1.326  -8.371  27.615  0.00  0.00    +0.105 C 
ATOM     31  H   UNL     1      -2.724  -7.083  30.023  0.00  0.00    +0.154 HD
ATOM     32  H   UNL     1       4.362  -5.689  21.665  0.00  0.00    +0.123 HD
ATOM     33  H   UNL     1       8.127  -5.902  23.562  0.00  0.00    +0.123 HD
ENDROOT
BRANCH   1  36
ATOM     34 CL   UNL     1      -4.214  -7.062  32.132  0.00  0.00    -0.081 Cl
ATOM     35  C   UNL     1      -3.989  -5.422  31.501  0.00  0.00    +0.071 C 
ATOM     36  C   UNL     1      -3.079  -5.150  30.493  0.00  0.00    +0.063 C 
ATOM     37  C   UNL     1      -2.985  -3.857  30.084  0.00  0.00    +0.052 C 
ATOM     38  C   UNL     1      -3.777  -2.839  30.654  0.00  0.00    +0.139 C 
ATOM     39  C   UNL     1      -4.672  -3.151  31.653  0.00  0.00    +0.088 C 
ATOM     40  C   UNL     1      -4.783  -4.442  32.082  0.00  0.00    +0.020 C 
BRANCH  39  41
ATOM     41  C   UNL     1      -5.495  -2.079  32.210  0.00  0.00    +0.255 C 
ATOM     42  O   UNL     1      -5.746  -2.028  33.446  0.00  0.00    -0.270 OA
ATOM     43  N   UNL     1      -6.066  -1.033  31.434  0.00  0.00    -0.246 N 
ATOM     44  C   UNL     1      -6.841   0.004  32.022  0.00  0.00    +0.288 C 
ATOM     45  O   UNL     1      -7.047   0.021  33.274  0.00  0.00    -0.267 OA
ATOM     46  H   UNL     1      -5.921  -1.026  30.461  0.00  0.00    +0.158 HD
BRANCH  44  47
ATOM     47  C   UNL     1      -7.384   1.034  31.149  0.00  0.00    +0.240 C 
ATOM     48  O   UNL     1      -6.661   1.628  30.312  0.00  0.00    -0.285 OA
BRANCH  47  49
ATOM     49  C   UNL     1      -8.836   1.359  31.289  0.00  0.00    +0.121 C 
ATOM     50  N   UNL     1      -9.655   0.183  31.121  0.00  0.00    -0.292 NA
ATOM     51  C   UNL     1      -9.712  -0.316  29.779  0.00  0.00    +0.069 C 
ATOM     52  C   UNL     1     -10.210   0.738  28.806  0.00  0.00    +0.017 C 
ATOM     53  C   UNL     1     -10.462   2.032  29.593  0.00  0.00    +0.003 C 
ATOM     54  C   UNL     1      -9.140   2.405  30.207  0.00  0.00    +0.024 C 
ATOM     55  H   UNL     1     -10.605   0.411  31.417  0.00  0.00    +0.124 HD
ENDBRANCH  47  49
ENDBRANCH  44  47
ENDBRANCH  39  41
BRANCH  38  56
ATOM     56  O   UNL     1      -3.681  -1.527  30.238  0.00  0.00    -0.505 OA
ATOM     57  H   UNL     1      -3.359  -1.329  29.380  0.00  0.00    +0.292 HD
ENDBRANCH  38  56
ENDBRANCH   1  36
TORSDOF 5
ENDMDL
