REMARK  Name = =
REMARK  5 active torsions:
REMARK  status: ('A' for Active; 'I' for Inactive)
REMARK    1  A    between atoms: N_1  and  C_33
REMARK    2  A    between atoms: C_35  and  O_51
REMARK    3  A    between atoms: C_36  and  C_38
REMARK    4  A    between atoms: C_41  and  C_43
REMARK    5  A    between atoms: C_43  and  C_45
REMARK                            x       y       z     vdW  Elec       q    Type
REMARK                         _______ _______ _______ _____ _____    ______ ____
ROOT
ATOM      1  N   UNL     1      -0.070  -4.489  28.843  0.00  0.00    -0.295 N 
ATOM      2  C   UNL     1       0.676  -4.276  27.661  0.00  0.00    +0.172 A 
ATOM      3  N   UNL     1       0.462  -3.272  26.834  0.00  0.00    -0.130 NA
ATOM      4  N   UNL     1       1.136  -3.038  25.729  0.00  0.00    -0.132 NA
ATOM      5  C   UNL     1       2.154  -3.867  25.350  0.00  0.00    +0.156 A 
ATOM      6  N   UNL     1       2.839  -3.608  24.110  0.00  0.00    -0.290 N 
ATOM      7  C   UNL     1       2.489  -4.470  23.002  0.00  0.00    +0.109 C 
ATOM      8  C   UNL     1       1.289  -3.932  22.242  0.00  0.00    +0.094 C 
ATOM      9  N   UNL     1       1.669  -3.361  20.967  0.00  0.00    -0.271 NA
ATOM     10  C   UNL     1       0.780  -3.784  19.913  0.00  0.00    +0.073 C 
ATOM     11  C   UNL     1      -0.210  -2.675  19.696  0.00  0.00    +0.019 C 
ATOM     12  C   UNL     1       0.583  -1.444  20.044  0.00  0.00    +0.019 C 
ATOM     13  C   UNL     1       1.690  -1.933  20.950  0.00  0.00    +0.072 C 
ATOM     14  C   UNL     1       1.535  -4.120  18.631  0.00  0.00    +0.085 C 
ATOM     15  N   UNL     1       2.786  -4.759  18.898  0.00  0.00    -0.295 NA
ATOM     16  C   UNL     1       3.897  -4.150  18.150  0.00  0.00    +0.086 C 
ATOM     17  C   UNL     1       5.128  -5.024  18.268  0.00  0.00    +0.086 C 
ATOM     18  N   UNL     1       6.339  -4.266  18.469  0.00  0.00    -0.294 NA
ATOM     19  C   UNL     1       6.916  -4.450  19.786  0.00  0.00    +0.101 C 
ATOM     20  C   UNL     1       6.167  -3.613  20.807  0.00  0.00    +0.159 C 
ATOM     21  O   UNL     1       6.764  -3.576  22.038  0.00  0.00    -0.352 OA
ATOM     22  C   UNL     1       5.855  -3.651  23.112  0.00  0.00    +0.144 C 
ATOM     23  C   UNL     1       4.796  -2.604  22.976  0.00  0.00    +0.054 C 
ATOM     24  C   UNL     1       3.793  -2.553  24.072  0.00  0.00    +0.095 C 
ATOM     25  C   UNL     1       2.440  -4.928  26.153  0.00  0.00    +0.073 A 
ATOM     26  C   UNL     1       1.714  -5.149  27.308  0.00  0.00    +0.121 A 
ATOM     27  N   UNL     1       2.001  -6.180  28.087  0.00  0.00    -0.221 NA
ATOM     28  C   UNL     1       3.019  -7.017  27.735  0.00  0.00    +0.199 C 
ATOM     29  N   UNL     1       3.733  -6.810  26.612  0.00  0.00    -0.222 NA
ATOM     30  C   UNL     1       3.478  -5.779  25.793  0.00  0.00    +0.105 C 
ATOM     31  H   UNL     1       0.205  -5.265  29.383  0.00  0.00    +0.154 HD
ATOM     32  H   UNL     1       2.714  -5.742  18.636  0.00  0.00    +0.123 HD
ATOM     33  H   UNL     1       6.127  -3.276  18.344  0.00  0.00    +0.123 HD
ENDROOT
BRANCH   1  36
ATOM     34 CL   UNL     1      -1.951  -6.093  30.579  0.00  0.00    -0.081 Cl
ATOM     35  C   UNL     1      -2.080  -4.378  30.153  0.00  0.00    +0.071 C 
ATOM     36  C   UNL     1      -1.138  -3.756  29.351  0.00  0.00    +0.063 C 
ATOM     37  C   UNL     1      -1.332  -2.437  29.087  0.00  0.00    +0.052 C 
ATOM     38  C   UNL     1      -2.440  -1.732  29.602  0.00  0.00    +0.139 C 
ATOM     39  C   UNL     1      -3.355  -2.388  30.395  0.00  0.00    +0.088 C 
ATOM     40  C   UNL     1      -3.181  -3.712  30.675  0.00  0.00    +0.020 C 
BRANCH  39  41
ATOM     41  C   UNL     1      -4.505  -1.638  30.897  0.00  0.00    +0.255 C 
ATOM     42  O   UNL     1      -4.493  -0.376  30.935  0.00  0.00    -0.270 OA
ATOM     43  N   UNL     1      -5.702  -2.244  31.371  0.00  0.00    -0.246 N 
ATOM     44  C   UNL     1      -6.806  -1.475  31.828  0.00  0.00    +0.288 C 
ATOM     45  O   UNL     1      -6.750  -0.207  31.826  0.00  0.00    -0.267 OA
ATOM     46  H   UNL     1      -5.767  -3.226  31.383  0.00  0.00    +0.158 HD
BRANCH  44  47
ATOM     47  C   UNL     1      -7.990  -2.182  32.293  0.00  0.00    +0.240 C 
ATOM     48  O   UNL     1      -7.944  -3.397  32.605  0.00  0.00    -0.285 OA
BRANCH  47  49
ATOM     49  C   UNL     1      -9.264  -1.405  32.384  0.00  0.00    +0.121 C 
ATOM     50  N   UNL     1     -10.353  -2.235  32.838  0.00  0.00    -0.292 NA
ATOM     51  C   UNL     1     -10.802  -3.203  31.881  0.00  0.00    +0.069 C 
ATOM     52  C   UNL     1     -11.228  -2.552  30.577  0.00  0.00    +0.017 C 
ATOM     53  C   UNL     1     -11.000  -1.039  30.704  0.00  0.00    +0.003 C 
ATOM     54  C   UNL     1      -9.529  -0.865  30.972  0.00  0.00    +0.024 C 
ATOM     55  H   UNL     1     -11.140  -1.629  33.071  0.00  0.00    +0.124 HD
ENDBRANCH  47  49
ENDBRANCH  44  47
ENDBRANCH  39  41
BRANCH  38  56
ATOM     56  O   UNL     1      -2.636  -0.393  29.334  0.00  0.00    -0.505 OA
ATOM     57  H   UNL     1      -2.025   0.072  28.797  0.00  0.00    +0.292 HD
ENDBRANCH  38  56
ENDBRANCH   1  36
TORSDOF 5
