MODEL 1
REMARK VINA RESULT:    -8.810      0.000      0.000
REMARK INTER + INTRA:         -17.105
REMARK INTER:                 -14.991
REMARK INTRA:                  -2.114
REMARK UNBOUND:                -2.114
REMARK  Name = =
REMARK  15 active torsions:
REMARK  status: ('A' for Active; 'I' for Inactive)
REMARK    1  A    between atoms: C_1  and  O_4
REMARK    2  A    between atoms: N_3  and  O_25
REMARK    3  A    between atoms: O_4  and  S_5
REMARK    4  A    between atoms: S_5  and  S_6
REMARK    5  A    between atoms: S_5  and  C_22
REMARK    6  A    between atoms: S_6  and  C_9
REMARK    7  A    between atoms: S_6  and  C_19
REMARK    8  A    between atoms: C_19  and  N_21
REMARK    9  A    between atoms: C_22  and  N_24
REMARK   10  A    between atoms: O_25  and  C_26
REMARK   11  A    between atoms: C_27  and  O_46
REMARK   12  A    between atoms: C_29  and  C_32
REMARK   13  A    between atoms: C_33  and  O_45
REMARK   14  A    between atoms: C_37  and  O_44
REMARK   15  A    between atoms: C_39  and  O_43
REMARK                            x       y       z     vdW  Elec       q    Type
REMARK                         _______ _______ _______ _____ _____    ______ ____
ROOT
ATOM      1  C   UNL     1       1.838  -0.052  25.277  0.00  0.00    +0.444 C 
ATOM      2  O   UNL     1       2.005   0.451  26.387  0.00  0.00    -0.222 OA
ATOM      3  N   UNL     1       0.879  -1.149  25.114  0.00  0.00    -0.112 N 
ATOM      4  H   UNL     1       0.771  -1.561  24.226  0.00  0.00    +0.199 HD
ENDROOT
BRANCH   1   5
ATOM      5  O   UNL     1       2.551   0.435  24.191  0.00  0.00    -0.386 OA
BRANCH   5   6
ATOM      6  S   UNL     1       3.923  -0.244  23.810  0.00  0.00    -0.012 S 
ATOM      7  H   UNL     1       5.000   0.442  24.279  0.00  0.00    +0.138 HD
BRANCH   6   8
ATOM      8  S   UNL     1       3.896  -2.012  24.359  0.00  0.00    -0.104 S 
ATOM      9  H   UNL     1       2.681  -2.593  24.164  0.00  0.00    +0.103 HD
BRANCH   8  12
ATOM     10  C   UNL     1       2.798  -4.015  26.963  0.00  0.00    +0.096 C 
ATOM     11  N   UNL     1       3.161  -2.768  26.705  0.00  0.00    -0.251 NA
ATOM     12  C   UNL     1       4.238  -2.185  25.910  0.00  0.00    +0.222 C 
ATOM     13  C   UNL     1       5.526  -2.828  26.257  0.00  0.00    +0.258 C 
ATOM     14  O   UNL     1       6.514  -2.165  26.652  0.00  0.00    -0.272 OA
ATOM     15  N   UNL     1       5.821  -4.257  26.183  0.00  0.00    -0.282 N 
ATOM     16  C   UNL     1       4.865  -5.287  26.032  0.00  0.00    +0.052 C 
ATOM     17  C   UNL     1       3.529  -5.182  26.403  0.00  0.00    +0.032 C 
ATOM     18  C   UNL     1       2.630  -6.252  26.204  0.00  0.00    +0.003 C 
ATOM     19  C   UNL     1       3.111  -7.392  25.632  0.00  0.00    +0.000 C 
ATOM     20  C   UNL     1       4.460  -7.511  25.258  0.00  0.00    +0.001 C 
ATOM     21  C   UNL     1       5.292  -6.481  25.462  0.00  0.00    +0.015 C 
ATOM     22  H   UNL     1       6.766  -4.525  26.245  0.00  0.00    +0.155 HD
ENDBRANCH   8  12
BRANCH   8  23
ATOM     23  C   UNL     1       5.172  -2.614  23.518  0.00  0.00    +0.097 C 
ATOM     24  S   UNL     1       4.951  -3.960  22.548  0.00  0.00    -0.029 S 
BRANCH  23  25
ATOM     25  N   UNL     1       6.491  -2.135  23.513  0.00  0.00    -0.348 N 
ATOM     26  H   UNL     1       6.805  -1.568  22.773  0.00  0.00    +0.143 HD
ATOM     27  H   UNL     1       7.102  -2.367  24.249  0.00  0.00    +0.143 HD
ENDBRANCH  23  25
ENDBRANCH   8  23
ENDBRANCH   6   8
BRANCH   6  28
ATOM     28  C   UNL     1       3.698  -0.452  22.160  0.00  0.00    +0.125 C 
ATOM     29  S   UNL     1       2.325  -1.110  21.553  0.00  0.00    -0.026 S 
BRANCH  28  30
ATOM     30  N   UNL     1       4.678  -0.100  21.210  0.00  0.00    -0.346 N 
ATOM     31  H   UNL     1       5.593  -0.452  21.293  0.00  0.00    +0.143 HD
ATOM     32  H   UNL     1       4.447   0.498  20.463  0.00  0.00    +0.143 HD
ENDBRANCH  28  30
ENDBRANCH   6  28
ENDBRANCH   5   6
ENDBRANCH   1   5
BRANCH   3  33
ATOM     33  O   UNL     1       0.191  -1.577  26.076  0.00  0.00    -0.378 OA
BRANCH  33  34
ATOM     34  C   UNL     1      -0.551  -2.059  27.092  0.00  0.00    +0.204 C 
ATOM     35  C   UNL     1      -0.044  -2.016  28.374  0.00  0.00    +0.171 C 
ATOM     36  C   UNL     1      -0.772  -2.497  29.479  0.00  0.00    +0.043 C 
ATOM     37  C   UNL     1      -2.021  -3.031  29.175  0.00  0.00    +0.041 C 
ATOM     38  C   UNL     1      -2.561  -3.083  27.978  0.00  0.00    +0.007 C 
ATOM     39  C   UNL     1      -1.824  -2.585  26.860  0.00  0.00    +0.043 C 
BRANCH  37  40
ATOM     40  C   UNL     1      -2.523  -3.973  30.277  0.00  0.00    +0.182 A 
ATOM     41  C   UNL     1      -3.387  -3.433  31.228  0.00  0.00    +0.208 A 
ATOM     42  C   UNL     1      -3.916  -4.220  32.223  0.00  0.00    +0.238 A 
ATOM     43  O   UNL     1      -4.715  -3.778  33.091  0.00  0.00    -0.283 OA
ATOM     44  C   UNL     1      -3.567  -5.589  32.268  0.00  0.00    +0.110 A 
ATOM     45  C   UNL     1      -4.108  -6.446  33.269  0.00  0.00    +0.143 C 
ATOM     46  C   UNL     1      -3.741  -7.767  33.216  0.00  0.00    +0.073 C 
ATOM     47  C   UNL     1      -2.873  -8.231  32.219  0.00  0.00    +0.140 C 
ATOM     48  C   UNL     1      -2.356  -7.343  31.252  0.00  0.00    +0.074 C 
ATOM     49  C   UNL     1      -2.710  -6.026  31.281  0.00  0.00    +0.155 A 
ATOM     50  O   UNL     1      -2.219  -5.202  30.323  0.00  0.00    -0.450 OA
BRANCH  47  51
ATOM     51  O   UNL     1      -2.536  -9.565  32.184  0.00  0.00    -0.505 OA
ATOM     52  H   UNL     1      -2.448 -10.004  31.361  0.00  0.00    +0.292 HD
ENDBRANCH  47  51
BRANCH  45  53
ATOM     53  O   UNL     1      -4.952  -5.948  34.226  0.00  0.00    -0.505 OA
ATOM     54  H   UNL     1      -5.617  -5.332  33.989  0.00  0.00    +0.292 HD
ENDBRANCH  45  53
BRANCH  41  55
ATOM     55  O   UNL     1      -3.729  -2.104  31.198  0.00  0.00    -0.501 OA
ATOM     56  H   UNL     1      -3.667  -1.586  31.977  0.00  0.00    +0.292 HD
ENDBRANCH  41  55
ENDBRANCH  37  40
BRANCH  35  57
ATOM     57  O   UNL     1       1.239  -1.448  28.526  0.00  0.00    -0.503 OA
ATOM     58  H   UNL     1       1.946  -1.739  27.985  0.00  0.00    +0.292 HD
ENDBRANCH  35  57
ENDBRANCH  33  34
ENDBRANCH   3  33
TORSDOF 15
ENDMDL
