MODEL 1
REMARK VINA RESULT:    -9.865      0.000      0.000
REMARK INTER + INTRA:         -14.933
REMARK INTER:                 -13.903
REMARK INTRA:                  -1.030
REMARK UNBOUND:                -1.030
REMARK  Name = =
REMARK  8 active torsions:
REMARK  status: ('A' for Active; 'I' for Inactive)
REMARK    1  A    between atoms: C_1  and  N_20
REMARK    2  A    between atoms: C_1  and  S_25
REMARK    3  A    between atoms: C_5  and  C_10
REMARK    4  A    between atoms: C_8  and  O_43
REMARK    5  A    between atoms: S_25  and  C_26
REMARK    6  A    between atoms: S_25  and  N_31
REMARK    7  A    between atoms: N_31  and  C_32
REMARK    8  A    between atoms: C_40  and  O_42
REMARK                            x       y       z     vdW  Elec       q    Type
REMARK                         _______ _______ _______ _____ _____    ______ ____
ROOT
ATOM      1  C   UNL     1     -21.121 -41.198  22.526  0.00  0.00    +0.184 C 
ATOM      2  C   UNL     1     -21.925 -42.431  22.204  0.00  0.00    +0.046 C 
ATOM      3  C   UNL     1     -21.475 -42.989  21.039  0.00  0.00    +0.138 C 
ATOM      4  O   UNL     1     -20.431 -42.230  20.536  0.00  0.00    -0.472 OA
ATOM      5  C   UNL     1     -20.322 -41.020  21.265  0.00  0.00    +0.220 C 
ATOM      6  C   UNL     1     -22.048 -44.133  20.533  0.00  0.00    +0.040 C 
ATOM      7  C   UNL     1     -23.105 -44.762  21.190  0.00  0.00    +0.040 C 
ATOM      8  C   UNL     1     -23.558 -44.201  22.364  0.00  0.00    +0.134 C 
ATOM      9  C   UNL     1     -22.960 -43.036  22.859  0.00  0.00    +0.038 C 
ENDROOT
BRANCH   5  10
ATOM     10  C   UNL     1     -20.607 -39.834  20.474  0.00  0.00    +0.022 C 
ATOM     11  C   UNL     1     -21.508 -39.892  19.434  0.00  0.00    +0.018 C 
ATOM     12  C   UNL     1     -21.802 -38.764  18.660  0.00  0.00    +0.081 C 
ATOM     13  N   UNL     1     -22.682 -38.826  17.647  0.00  0.00    -0.244 NA
ATOM     14  C   UNL     1     -22.957 -37.734  16.909  0.00  0.00    +0.099 C 
ATOM     15  C   UNL     1     -22.357 -36.515  17.158  0.00  0.00    +0.021 C 
ATOM     16  C   UNL     1     -21.464 -36.467  18.192  0.00  0.00    +0.003 C 
ATOM     17  C   UNL     1     -21.168 -37.590  18.965  0.00  0.00    +0.018 C 
ATOM     18  C   UNL     1     -20.269 -37.506  19.993  0.00  0.00    +0.001 C 
ATOM     19  C   UNL     1     -19.994 -38.640  20.747  0.00  0.00    -0.001 C 
ENDBRANCH   5  10
BRANCH   1  20
ATOM     20  N   UNL     1     -22.066 -40.119  22.643  0.00  0.00    -0.177 N 
ATOM     21  N   UNL     1     -21.952 -38.982  23.288  0.00  0.00    -0.153 NA
ATOM     22  C   UNL     1     -23.053 -38.235  23.152  0.00  0.00    +0.219 C 
ATOM     23  N   UNL     1     -23.909 -38.917  22.387  0.00  0.00    -0.203 NA
ATOM     24  C   UNL     1     -23.297 -40.096  22.066  0.00  0.00    +0.187 C 
ENDBRANCH   1  20
BRANCH   1  25
ATOM     25  S   UNL     1     -20.203 -41.416  23.844  0.00  0.00    -0.092 S 
ATOM     26  H   UNL     1     -19.612 -40.193  23.777  0.00  0.00    +0.111 HD
BRANCH  25  27
ATOM     27  C   UNL     1     -20.859 -41.238  25.344  0.00  0.00    +0.204 A 
ATOM     28  N   UNL     1     -21.064 -40.141  26.102  0.00  0.00    -0.234 N 
ATOM     29  N   UNL     1     -21.625 -40.434  27.254  0.00  0.00    -0.046 NA
ATOM     30  N   UNL     1     -21.800 -41.742  27.275  0.00  0.00    -0.022 NA
ATOM     31  N   UNL     1     -21.347 -42.235  26.141  0.00  0.00    -0.102 NA
ATOM     32  H   UNL     1     -20.821 -39.227  25.824  0.00  0.00    +0.193 HD
ENDBRANCH  25  27
BRANCH  25  33
ATOM     33  N   UNL     1     -18.930 -42.411  23.718  0.00  0.00    -0.297 N 
ATOM     34  H   UNL     1     -19.088 -43.379  23.635  0.00  0.00    +0.159 HD
BRANCH  33  35
ATOM     35  C   UNL     1     -17.595 -41.928  23.724  0.00  0.00    +0.074 C 
ATOM     36  C   UNL     1     -16.765 -41.975  24.820  0.00  0.00    +0.095 C 
ATOM     37  N   UNL     1     -17.209 -42.518  25.965  0.00  0.00    -0.243 NA
ATOM     38  C   UNL     1     -16.413 -42.580  27.051  0.00  0.00    +0.099 C 
ATOM     39  C   UNL     1     -15.112 -42.077  26.991  0.00  0.00    +0.021 C 
ATOM     40  C   UNL     1     -14.644 -41.520  25.833  0.00  0.00    +0.003 C 
ATOM     41  C   UNL     1     -15.468 -41.463  24.734  0.00  0.00    +0.022 C 
ATOM     42  C   UNL     1     -15.003 -40.907  23.564  0.00  0.00    +0.038 C 
ATOM     43  C   UNL     1     -15.826 -40.858  22.465  0.00  0.00    +0.135 C 
ATOM     44  C   UNL     1     -17.098 -41.361  22.550  0.00  0.00    +0.053 C 
BRANCH  43  45
ATOM     45  O   UNL     1     -15.341 -40.296  21.300  0.00  0.00    -0.505 OA
ATOM     46  H   UNL     1     -14.547 -39.798  21.314  0.00  0.00    +0.292 HD
ENDBRANCH  43  45
ENDBRANCH  33  35
ENDBRANCH  25  33
ENDBRANCH   1  25
BRANCH   8  47
ATOM     47  O   UNL     1     -24.612 -44.807  23.044  0.00  0.00    -0.506 OA
ATOM     48  H   UNL     1     -24.484 -45.130  23.914  0.00  0.00    +0.292 HD
ENDBRANCH   8  47
TORSDOF 8
ENDMDL
