REMARK  Name = =
REMARK  0 active torsions:
REMARK  status: ('A' for Active; 'I' for Inactive)
REMARK                            x       y       z     vdW  Elec       q    Type
REMARK                         _______ _______ _______ _____ _____    ______ ____
ROOT
ATOM      1  C   UNL     1      49.794 157.048  29.672  0.00  0.00    +0.145 C 
ATOM      2  O   UNL     1      50.560 158.036  29.110  0.00  0.00    -0.351 OA
ATOM      3  C   UNL     1      51.898 157.984  29.422  0.00  0.00    +0.174 C 
ATOM      4  C   UNL     1      52.534 156.675  28.939  0.00  0.00    +0.174 C 
ATOM      5  O   UNL     1      52.507 156.697  27.564  0.00  0.00    -0.326 OA
ATOM      6  C   UNL     1      52.739 155.440  27.068  0.00  0.00    +0.264 C 
ATOM      7  O   UNL     1      52.854 155.443  25.679  0.00  0.00    -0.321 OA
ATOM      8  C   UNL     1      53.521 154.272  25.257  0.00  0.00    +0.209 C 
ATOM      9  C   UNL     1      53.126 153.177  26.174  0.00  0.00    +0.183 C 
ATOM     10  O   UNL     1      53.884 152.262  26.401  0.00  0.00    -0.293 OA
ATOM     11  C   UNL     1      51.789 153.231  26.804  0.00  0.00    +0.102 C 
ATOM     12  C   UNL     1      51.583 154.547  27.528  0.00  0.00    +0.179 C 
ATOM     13  O   UNL     1      51.750 154.389  28.902  0.00  0.00    -0.350 OA
ATOM     14  C   UNL     1      51.806 155.560  29.577  0.00  0.00    +0.147 C 
ATOM     15  C   UNL     1      50.581 155.950  30.321  0.00  0.00    +0.064 C 
ENDROOT
TORSDOF 0
