REMARK  Name = =
REMARK  2 active torsions:
REMARK  status: ('A' for Active; 'I' for Inactive)
REMARK    1  A    between atoms: C_1  and  C_3
REMARK    2  A    between atoms: C_2  and  C_9
REMARK                            x       y       z     vdW  Elec       q    Type
REMARK                         _______ _______ _______ _____ _____    ______ ____
ROOT
ATOM      1  C   UNL     1      53.185 157.333  27.414  0.00  0.00    +0.003 C 
ATOM      2  C   UNL     1      53.915 156.788  26.519  0.00  0.00    -0.002 C 
ENDROOT
BRANCH   1   3
ATOM      3  C   UNL     1      51.978 156.953  28.127  0.00  0.00    +0.137 C 
ATOM      4  O   UNL     1      51.389 158.078  28.728  0.00  0.00    -0.352 OA
ATOM      5  C   UNL     1      50.853 157.888  29.961  0.00  0.00    +0.143 C 
ATOM      6  C   UNL     1      50.128 156.598  30.040  0.00  0.00    +0.032 C 
ATOM      7  C   UNL     1      50.816 155.536  29.634  0.00  0.00    +0.005 C 
ATOM      8  C   UNL     1      52.197 155.855  29.174  0.00  0.00    +0.034 C 
ENDBRANCH   1   3
BRANCH   2   9
ATOM      9  C   UNL     1      53.864 155.534  25.809  0.00  0.00    -0.000 C 
ATOM     10  C   UNL     1      53.014 154.491  26.078  0.00  0.00    -0.000 C 
ATOM     11  C   UNL     1      53.002 153.293  25.353  0.00  0.00    -0.000 C 
ATOM     12  C   UNL     1      53.875 153.125  24.316  0.00  0.00    -0.000 C 
ATOM     13  C   UNL     1      54.749 154.136  24.005  0.00  0.00    -0.000 C 
ATOM     14  C   UNL     1      54.740 155.302  24.731  0.00  0.00    -0.000 C 
ENDBRANCH   2   9
TORSDOF 2
