REMARK  Name = =
REMARK  3 active torsions:
REMARK  status: ('A' for Active; 'I' for Inactive)
REMARK    1  A    between atoms: C_1  and  N_16
REMARK    2  A    between atoms: N_16  and  C_20
REMARK    3  A    between atoms: C_17  and  O_19
REMARK                            x       y       z     vdW  Elec       q    Type
REMARK                         _______ _______ _______ _____ _____    ______ ____
ROOT
ATOM      1  C   UNL     1      51.299 157.408  29.017  0.00  0.00    +0.203 C 
ATOM      2  O   UNL     1      52.174 158.276  28.452  0.00  0.00    -0.334 OA
ATOM      3  C   UNL     1      52.920 157.661  27.475  0.00  0.00    +0.176 C 
ATOM      4  C   UNL     1      53.427 156.306  27.786  0.00  0.00    +0.174 C 
ATOM      5  O   UNL     1      53.243 155.446  26.732  0.00  0.00    -0.326 OA
ATOM      6  C   UNL     1      53.896 154.257  27.032  0.00  0.00    +0.264 C 
ATOM      7  O   UNL     1      53.955 153.386  25.961  0.00  0.00    -0.321 OA
ATOM      8  C   UNL     1      52.726 153.009  25.471  0.00  0.00    +0.209 C 
ATOM      9  C   UNL     1      51.673 152.858  26.487  0.00  0.00    +0.183 C 
ATOM     10  O   UNL     1      50.686 152.162  26.255  0.00  0.00    -0.293 OA
ATOM     11  C   UNL     1      51.728 153.513  27.818  0.00  0.00    +0.102 C 
ATOM     12  C   UNL     1      53.187 153.631  28.210  0.00  0.00    +0.179 C 
ATOM     13  O   UNL     1      53.259 154.427  29.318  0.00  0.00    -0.350 OA
ATOM     14  C   UNL     1      53.184 155.773  29.137  0.00  0.00    +0.149 C 
ATOM     15  C   UNL     1      51.959 156.293  29.815  0.00  0.00    +0.083 C 
ENDROOT
BRANCH   1  16
ATOM     16  N   UNL     1      50.354 158.040  29.911  0.00  0.00    -0.201 N 
ATOM     17  C   UNL     1      49.075 157.440  30.115  0.00  0.00    +0.407 C 
ATOM     18  O   UNL     1      48.816 156.378  29.508  0.00  0.00    -0.226 OA
BRANCH  17  19
ATOM     19  O   UNL     1      48.129 157.999  30.958  0.00  0.00    -0.466 OA
ATOM     20  H   UNL     1      48.320 158.795  31.414  0.00  0.00    +0.297 HD
ENDBRANCH  17  19
BRANCH  16  21
ATOM     21  C   UNL     1      50.655 159.253  30.584  0.00  0.00    +0.073 C 
ATOM     22  C   UNL     1      51.722 159.975  30.332  0.00  0.00    +0.018 C 
ENDBRANCH  16  21
ENDBRANCH   1  16
TORSDOF 3
