REMARK  Name = =
REMARK  3 active torsions:
REMARK  status: ('A' for Active; 'I' for Inactive)
REMARK    1  A    between atoms: C_1  and  S_3
REMARK    2  A    between atoms: C_1  and  C_11
REMARK    3  A    between atoms: C_2  and  C_17
REMARK                            x       y       z     vdW  Elec       q    Type
REMARK                         _______ _______ _______ _____ _____    ______ ____
ROOT
ATOM      1  C   UNL     1      52.905 154.023  26.361  0.00  0.00    +0.029 C 
ATOM      2  C   UNL     1      53.698 154.333  25.351  0.00  0.00    +0.004 C 
ENDROOT
BRANCH   1   3
ATOM      3  S   UNL     1      52.556 152.472  26.751  0.00  0.00    -0.074 S 
ATOM      4  C   UNL     1      51.665 151.213  25.992  0.00  0.00    +0.146 C 
ATOM      5  C   UNL     1      51.732 150.160  27.069  0.00  0.00    +0.240 C 
ATOM      6  O   UNL     1      52.030 148.964  26.848  0.00  0.00    -0.274 OA
ATOM      7  N   UNL     1      51.406 150.755  28.319  0.00  0.00    -0.246 N 
ATOM      8  C   UNL     1      52.001 152.002  28.515  0.00  0.00    +0.274 C 
ATOM      9  O   UNL     1      52.179 152.698  29.483  0.00  0.00    -0.263 OA
ATOM     10  H   UNL     1      50.817 150.328  28.982  0.00  0.00    +0.158 HD
ENDBRANCH   1   3
BRANCH   1  11
ATOM     11  C   UNL     1      52.300 155.159  27.124  0.00  0.00    +0.143 C 
ATOM     12  O   UNL     1      53.224 155.755  27.986  0.00  0.00    -0.351 OA
ATOM     13  C   UNL     1      52.706 156.259  29.145  0.00  0.00    +0.143 C 
ATOM     14  C   UNL     1      51.279 156.675  29.086  0.00  0.00    +0.032 C 
ATOM     15  C   UNL     1      50.446 155.860  28.449  0.00  0.00    +0.005 C 
ATOM     16  C   UNL     1      51.099 154.637  27.887  0.00  0.00    +0.035 C 
ENDBRANCH   1  11
BRANCH   2  17
ATOM     17  C   UNL     1      54.061 155.640  24.873  0.00  0.00    +0.000 C 
ATOM     18  C   UNL     1      55.224 155.757  24.098  0.00  0.00    +0.000 C 
ATOM     19  C   UNL     1      55.621 156.960  23.567  0.00  0.00    +0.000 C 
ATOM     20  C   UNL     1      54.895 158.113  23.770  0.00  0.00    +0.000 C 
ATOM     21  C   UNL     1      53.747 158.013  24.530  0.00  0.00    +0.000 C 
ATOM     22  C   UNL     1      53.348 156.802  25.064  0.00  0.00    +0.000 C 
ENDBRANCH   2  17
TORSDOF 3
REMARK  Name = =
REMARK  3 active torsions:
REMARK  status: ('A' for Active; 'I' for Inactive)
REMARK    1  A    between atoms: C_1  and  S_3
REMARK    2  A    between atoms: C_1  and  C_11
REMARK    3  A    between atoms: C_2  and  C_17
REMARK                            x       y       z     vdW  Elec       q    Type
REMARK                         _______ _______ _______ _____ _____    ______ ____
ROOT
ATOM      1  H   UNK     1      54.216 151.606  26.916  0.00  0.00    +0.000 HD
ENDROOT
TORSDOF 0
