REMARK  Name = =
REMARK  7 active torsions:
REMARK  status: ('A' for Active; 'I' for Inactive)
REMARK    1  A    between atoms: C_1  and  N_16
REMARK    2  A    between atoms: C_1  and  O_22
REMARK    3  A    between atoms: N_16  and  C_20
REMARK    4  A    between atoms: C_17  and  O_19
REMARK    5  A    between atoms: O_22  and  P_23
REMARK    6  A    between atoms: P_23  and  O_25
REMARK    7  A    between atoms: P_23  and  O_26
REMARK                            x       y       z     vdW  Elec       q    Type
REMARK                         _______ _______ _______ _____ _____    ______ ____
ROOT
ATOM      1  C   UNL     1      50.582 158.784  29.113  0.00  0.00    +0.276 C 
ATOM      2  O   UNL     1      51.987 159.166  29.073  0.00  0.00    -0.316 OA
ATOM      3  C   UNL     1      52.679 158.411  28.157  0.00  0.00    +0.178 C 
ATOM      4  C   UNL     1      52.914 157.038  28.754  0.00  0.00    +0.175 C 
ATOM      5  O   UNL     1      53.528 156.184  27.840  0.00  0.00    -0.326 OA
ATOM      6  C   UNL     1      52.558 155.683  26.969  0.00  0.00    +0.264 C 
ATOM      7  O   UNL     1      53.143 155.276  25.805  0.00  0.00    -0.321 OA
ATOM      8  C   UNL     1      54.012 154.224  26.001  0.00  0.00    +0.209 C 
ATOM      9  C   UNL     1      53.208 153.082  26.571  0.00  0.00    +0.183 C 
ATOM     10  O   UNL     1      53.124 152.020  25.991  0.00  0.00    -0.293 OA
ATOM     11  C   UNL     1      52.550 153.372  27.875  0.00  0.00    +0.102 C 
ATOM     12  C   UNL     1      51.779 154.664  27.719  0.00  0.00    +0.179 C 
ATOM     13  O   UNL     1      51.342 155.180  28.904  0.00  0.00    -0.350 OA
ATOM     14  C   UNL     1      51.574 156.486  29.162  0.00  0.00    +0.152 C 
ATOM     15  C   UNL     1      50.447 157.376  28.743  0.00  0.00    +0.111 C 
ENDROOT
BRANCH   1  16
ATOM     16  N   UNL     1      50.163 159.211  30.375  0.00  0.00    -0.181 N 
ATOM     17  C   UNL     1      50.972 160.319  30.926  0.00  0.00    +0.409 C 
ATOM     18  O   UNL     1      50.710 160.797  32.042  0.00  0.00    -0.226 OA
BRANCH  17  19
ATOM     19  O   UNL     1      52.007 160.801  30.188  0.00  0.00    -0.466 OA
ATOM     20  H   UNL     1      52.195 160.432  29.347  0.00  0.00    +0.297 HD
ENDBRANCH  17  19
BRANCH  16  21
ATOM     21  C   UNL     1      49.155 158.803  31.213  0.00  0.00    +0.075 C 
ATOM     22  C   UNL     1      48.468 157.705  31.223  0.00  0.00    +0.018 C 
ENDBRANCH  16  21
ENDBRANCH   1  16
BRANCH   1  23
ATOM     23  O   UNL     1      50.069 159.639  28.082  0.00  0.00    -0.235 OA
BRANCH  23  24
ATOM     24  P   UNL     1      48.436 159.915  28.287  0.00  0.00    +0.476 P 
ATOM     25  O   UNL     1      47.693 158.742  28.853  0.00  0.00    -0.227 OA
BRANCH  24  26
ATOM     26  O   UNL     1      48.163 161.325  29.214  0.00  0.00    -0.303 OA
ATOM     27  H   UNL     1      48.532 161.204  30.103  0.00  0.00    +0.222 HD
ENDBRANCH  24  26
BRANCH  24  28
ATOM     28  O   UNL     1      47.751 160.233  26.751  0.00  0.00    -0.303 OA
ATOM     29  H   UNL     1      47.876 159.462  26.176  0.00  0.00    +0.222 HD
ENDBRANCH  24  28
ENDBRANCH  23  24
ENDBRANCH   1  23
TORSDOF 7
