REMARK  Name = =
REMARK  10 active torsions:
REMARK  status: ('A' for Active; 'I' for Inactive)
REMARK    1  A    between atoms: C_1  and  O_2
REMARK    2  A    between atoms: C_1  and  N_16
REMARK    3  A    between atoms: C_1  and  O_22
REMARK    4  A    between atoms: O_2  and  C_3
REMARK    5  A    between atoms: C_3  and  C_4
REMARK    6  A    between atoms: N_16  and  C_20
REMARK    7  A    between atoms: C_17  and  O_19
REMARK    8  A    between atoms: P_23  and  O_24
REMARK    9  A    between atoms: P_23  and  O_35
REMARK   10  A    between atoms: O_24  and  O_36
REMARK                            x       y       z     vdW  Elec       q    Type
REMARK                         _______ _______ _______ _____ _____    ______ ____
ROOT
ATOM      1  C   UNL     1      52.971 155.047  29.890  0.00  0.00    +0.178 C 
ENDROOT
BRANCH   1   2
ATOM      2  C   UNL     1      52.744 154.110  28.768  0.00  0.00    +0.174 C 
ATOM      3  O   UNL     1      53.944 153.496  28.403  0.00  0.00    -0.326 OA
ATOM      4  C   UNL     1      53.826 152.784  27.227  0.00  0.00    +0.264 C 
ATOM      5  O   UNL     1      54.732 153.235  26.280  0.00  0.00    -0.321 OA
ATOM      6  C   UNL     1      54.882 152.326  25.236  0.00  0.00    +0.209 C 
ATOM      7  C   UNL     1      53.626 151.569  24.999  0.00  0.00    +0.183 C 
ATOM      8  O   UNL     1      53.694 150.517  24.353  0.00  0.00    -0.293 OA
ATOM      9  C   UNL     1      52.296 152.017  25.498  0.00  0.00    +0.102 C 
ATOM     10  C   UNL     1      52.408 152.886  26.730  0.00  0.00    +0.179 C 
ATOM     11  O   UNL     1      51.986 154.172  26.501  0.00  0.00    -0.351 OA
ATOM     12  C   UNL     1      52.347 154.980  27.566  0.00  0.00    +0.145 C 
ATOM     13  C   UNL     1      51.134 155.707  28.028  0.00  0.00    +0.035 C 
ENDBRANCH   1   2
BRANCH   1  14
ATOM     14  O   UNL     1      52.085 155.979  30.194  0.00  0.00    -0.312 OA
BRANCH  14  15
ATOM     15  C   UNL     1      51.393 156.661  29.189  0.00  0.00    +0.331 C 
BRANCH  15  16
ATOM     16  N   UNL     1      50.099 156.947  29.740  0.00  0.00    -0.176 N 
ATOM     17  C   UNL     1      48.972 156.134  29.233  0.00  0.00    +0.409 C 
ATOM     18  O   UNL     1      49.207 155.269  28.374  0.00  0.00    -0.226 OA
BRANCH  17  19
ATOM     19  O   UNL     1      47.734 156.373  29.730  0.00  0.00    -0.466 OA
ATOM     20  H   UNL     1      47.610 157.038  30.378  0.00  0.00    +0.297 HD
ENDBRANCH  17  19
BRANCH  16  21
ATOM     21  C   UNL     1      49.710 157.917  30.660  0.00  0.00    +0.075 C 
ATOM     22  C   UNL     1      48.984 157.720  31.719  0.00  0.00    +0.018 C 
ENDBRANCH  16  21
ENDBRANCH  15  16
BRANCH  15  23
ATOM     23  O   UNL     1      52.220 157.637  28.751  0.00  0.00    -0.344 OA
ATOM     24  H   UNL     1      51.781 158.141  28.048  0.00  0.00    +0.215 HD
ENDBRANCH  15  23
ENDBRANCH  14  15
ENDBRANCH   1  14
TORSDOF 7
REMARK  Name = =
REMARK  10 active torsions:
REMARK  status: ('A' for Active; 'I' for Inactive)
REMARK    1  A    between atoms: C_1  and  O_2
REMARK    2  A    between atoms: C_1  and  N_16
REMARK    3  A    between atoms: C_1  and  O_22
REMARK    4  A    between atoms: O_2  and  C_3
REMARK    5  A    between atoms: C_3  and  C_4
REMARK    6  A    between atoms: N_16  and  C_20
REMARK    7  A    between atoms: C_17  and  O_19
REMARK    8  A    between atoms: P_23  and  O_24
REMARK    9  A    between atoms: P_23  and  O_35
REMARK   10  A    between atoms: O_24  and  O_36
REMARK                            x       y       z     vdW  Elec       q    Type
REMARK                         _______ _______ _______ _____ _____    ______ ____
ROOT
ATOM      1  P   UNL     1      51.671 159.053  29.364  0.00  0.00    +0.291 P 
ENDROOT
BRANCH   1   2
ATOM      2  O   UNL     1      53.239 158.455  29.565  0.00  0.00    -0.341 OA
ATOM      3  H   UNL     1      53.262 157.857  30.328  0.00  0.00    +0.217 HD
ENDBRANCH   1   2
BRANCH   1   4
ATOM      4  O   UNL     1      50.918 159.991  28.428  0.00  0.00    -0.177 OA
BRANCH   4   5
ATOM      5  O   UNL     1      50.106 159.074  29.289  0.00  0.00    -0.244 OA
ATOM      6  H   UNL     1      49.163 159.219  29.116  0.00  0.00    +0.253 HD
ENDBRANCH   4   5
ENDBRANCH   1   4
TORSDOF 3
REMARK  Name = =
REMARK  10 active torsions:
REMARK  status: ('A' for Active; 'I' for Inactive)
REMARK    1  A    between atoms: C_1  and  O_2
REMARK    2  A    between atoms: C_1  and  N_16
REMARK    3  A    between atoms: C_1  and  O_22
REMARK    4  A    between atoms: O_2  and  C_3
REMARK    5  A    between atoms: C_3  and  C_4
REMARK    6  A    between atoms: N_16  and  C_20
REMARK    7  A    between atoms: C_17  and  O_19
REMARK    8  A    between atoms: P_23  and  O_24
REMARK    9  A    between atoms: P_23  and  O_35
REMARK   10  A    between atoms: O_24  and  O_36
REMARK                            x       y       z     vdW  Elec       q    Type
REMARK                         _______ _______ _______ _____ _____    ______ ____
ROOT
ATOM      1  C   UNL     1      47.989 161.974  31.602  0.00  0.00    +0.199 C 
ATOM      2  N   UNL     1      49.133 162.411  32.143  0.00  0.00    -0.224 NA
ATOM      3  C   UNL     1      50.314 161.897  31.780  0.00  0.00    +0.085 C 
ATOM      4  C   UNL     1      50.381 160.916  30.847  0.00  0.00    +0.037 C 
ATOM      5  C   UNL     1      49.190 160.481  30.307  0.00  0.00    +0.102 C 
ATOM      6  N   UNL     1      48.015 161.007  30.682  0.00  0.00    -0.222 NA
ATOM      7  C   UNL     1      51.603 160.353  30.468  0.00  0.00    +0.003 C 
ATOM      8  C   UNL     1      52.703 160.848  31.089  0.00  0.00    +0.000 C 
ATOM      9  C   UNL     1      52.654 161.831  32.029  0.00  0.00    +0.002 C 
ATOM     10  C   UNL     1      51.446 162.371  32.386  0.00  0.00    +0.019 C 
ENDROOT
TORSDOF 0
