REMARK  Name = =
REMARK  6 active torsions:
REMARK  status: ('A' for Active; 'I' for Inactive)
REMARK    1  A    between atoms: S_1  and  C_9
REMARK    2  A    between atoms: C_2  and  C_23
REMARK    3  A    between atoms: C_9  and  C_11
REMARK    4  A    between atoms: C_10  and  C_17
REMARK    5  A    between atoms: C_23  and  O_29
REMARK    6  A    between atoms: O_25  and  O_26
REMARK                            x       y       z     vdW  Elec       q    Type
REMARK                         _______ _______ _______ _____ _____    ______ ____
ROOT
ATOM      1  C   UNL     1      62.030 162.521  39.732  0.00  0.00    +0.030 C 
ATOM      2  C   UNL     1      62.036 163.756  40.180  0.00  0.00    +0.004 C 
ENDROOT
BRANCH   1   3
ATOM      3  S   UNL     1      60.687 161.798  39.112  0.00  0.00    -0.073 S 
ATOM      4  C   UNL     1      60.207 160.167  38.914  0.00  0.00    +0.156 C 
ATOM      5  C   UNL     1      58.997 160.365  38.036  0.00  0.00    +0.241 C 
ATOM      6  O   UNL     1      57.873 159.822  38.196  0.00  0.00    -0.274 OA
ATOM      7  N   UNL     1      59.294 161.266  36.975  0.00  0.00    -0.246 N 
ATOM      8  C   UNL     1      60.135 162.290  37.332  0.00  0.00    +0.274 C 
ATOM      9  O   UNL     1      60.529 163.301  36.792  0.00  0.00    -0.263 OA
ATOM     10  H   UNL     1      58.929 161.164  36.066  0.00  0.00    +0.158 HD
BRANCH   4  11
ATOM     11  C   UNL     1      59.847 159.440  40.146  0.00  0.00    +0.157 C 
BRANCH  11  12
ATOM     12  O   UNL     1      60.950 158.918  40.784  0.00  0.00    -0.381 OA
ATOM     13  H   UNL     1      60.669 158.450  41.586  0.00  0.00    +0.210 HD
ENDBRANCH  11  12
ENDBRANCH   4  11
ENDBRANCH   1   3
BRANCH   1  14
ATOM     14  C   UNL     1      63.364 161.802  39.909  0.00  0.00    +0.147 C 
ATOM     15  O   UNL     1      64.078 162.405  40.944  0.00  0.00    -0.346 OA
ATOM     16  C   UNL     1      65.136 161.586  41.293  0.00  0.00    +0.168 C 
ATOM     17  C   UNL     1      65.873 161.043  40.129  0.00  0.00    +0.001 C 
ATOM     18  C   UNL     1      65.430 161.130  38.883  0.00  0.00    -0.025 C 
ATOM     19  C   UNL     1      64.141 161.797  38.635  0.00  0.00    +0.060 C 
ENDBRANCH   1  14
BRANCH   2  20
ATOM     20  C   UNL     1      60.951 164.707  40.160  0.00  0.00    +0.000 C 
ATOM     21  C   UNL     1      60.827 165.660  39.186  0.00  0.00    +0.000 C 
ATOM     22  C   UNL     1      59.750 166.533  39.175  0.00  0.00    +0.000 C 
ATOM     23  C   UNL     1      58.790 166.451  40.146  0.00  0.00    +0.000 C 
ATOM     24  C   UNL     1      58.895 165.502  41.136  0.00  0.00    +0.000 C 
ATOM     25  C   UNL     1      59.981 164.631  41.136  0.00  0.00    +0.000 C 
ENDBRANCH   2  20
TORSDOF 5
REMARK  Name = =
REMARK  6 active torsions:
REMARK  status: ('A' for Active; 'I' for Inactive)
REMARK    1  A    between atoms: S_1  and  C_9
REMARK    2  A    between atoms: C_2  and  C_23
REMARK    3  A    between atoms: C_9  and  C_11
REMARK    4  A    between atoms: C_10  and  C_17
REMARK    5  A    between atoms: C_23  and  O_29
REMARK    6  A    between atoms: O_25  and  O_26
REMARK                            x       y       z     vdW  Elec       q    Type
REMARK                         _______ _______ _______ _____ _____    ______ ____
ROOT
ATOM      1  H   UNK     1      59.228 162.519  39.946  0.00  0.00    +0.000 HD
ENDROOT
TORSDOF 0
REMARK  Name = =
REMARK  6 active torsions:
REMARK  status: ('A' for Active; 'I' for Inactive)
REMARK    1  A    between atoms: S_1  and  C_9
REMARK    2  A    between atoms: C_2  and  C_23
REMARK    3  A    between atoms: C_9  and  C_11
REMARK    4  A    between atoms: C_10  and  C_17
REMARK    5  A    between atoms: C_23  and  O_29
REMARK    6  A    between atoms: O_25  and  O_26
REMARK                            x       y       z     vdW  Elec       q    Type
REMARK                         _______ _______ _______ _____ _____    ______ ____
ROOT
ATOM      1  P   UNL     1      59.083 160.570  41.362  0.00  0.00    +0.000 P 
ENDROOT
TORSDOF 0
REMARK  Name = =
REMARK  6 active torsions:
REMARK  status: ('A' for Active; 'I' for Inactive)
REMARK    1  A    between atoms: S_1  and  C_9
REMARK    2  A    between atoms: C_2  and  C_23
REMARK    3  A    between atoms: C_9  and  C_11
REMARK    4  A    between atoms: C_10  and  C_17
REMARK    5  A    between atoms: C_23  and  O_29
REMARK    6  A    between atoms: O_25  and  O_26
REMARK                            x       y       z     vdW  Elec       q    Type
REMARK                         _______ _______ _______ _____ _____    ______ ____
ROOT
ATOM      1  O   UNL     1      58.086 160.847  42.384  0.00  0.00    -0.253 OA
ATOM      2  H   UNL     1      57.181 160.526  42.249  0.00  0.00    +0.253 HD
ENDROOT
BRANCH   1   3
ATOM      3  O   UNL     1      58.944 159.731  42.785  0.00  0.00    -0.253 OA
ATOM      4  H   UNL     1      59.849 160.052  42.920  0.00  0.00    +0.253 HD
ENDBRANCH   1   3
TORSDOF 1
REMARK  Name = =
REMARK  6 active torsions:
REMARK  status: ('A' for Active; 'I' for Inactive)
REMARK    1  A    between atoms: S_1  and  C_9
REMARK    2  A    between atoms: C_2  and  C_23
REMARK    3  A    between atoms: C_9  and  C_11
REMARK    4  A    between atoms: C_10  and  C_17
REMARK    5  A    between atoms: C_23  and  O_29
REMARK    6  A    between atoms: O_25  and  O_26
REMARK                            x       y       z     vdW  Elec       q    Type
REMARK                         _______ _______ _______ _____ _____    ______ ____
ROOT
ATOM      1  O   HOH     1      57.726 161.435  40.999  0.00  0.00    -0.253 OA
ATOM      2  H   HOH     0      58.696 161.435  40.999  0.00  0.00    +0.253 HD
ENDROOT
TORSDOF 0
REMARK  Name = =
REMARK  6 active torsions:
REMARK  status: ('A' for Active; 'I' for Inactive)
REMARK    1  A    between atoms: S_1  and  C_9
REMARK    2  A    between atoms: C_2  and  C_23
REMARK    3  A    between atoms: C_9  and  C_11
REMARK    4  A    between atoms: C_10  and  C_17
REMARK    5  A    between atoms: C_23  and  O_29
REMARK    6  A    between atoms: O_25  and  O_26
REMARK                            x       y       z     vdW  Elec       q    Type
REMARK                         _______ _______ _______ _____ _____    ______ ____
ROOT
ATOM      1  O   HOH     1      59.840 161.502  42.525  0.00  0.00    -0.253 OA
ATOM      2  H   HOH     0      60.810 161.502  42.525  0.00  0.00    +0.253 HD
ENDROOT
TORSDOF 0
