MODEL 1
REMARK VINA RESULT:    -5.899      0.000      0.000
REMARK INTER + INTRA:         -11.329
REMARK INTER:                  -9.175
REMARK INTRA:                  -2.154
REMARK UNBOUND:                -2.154
REMARK  Name = =
REMARK  10 active torsions:
REMARK  status: ('A' for Active; 'I' for Inactive)
REMARK    1  A    between atoms: C_1  and  C_2
REMARK    2  A    between atoms: C_1  and  C_3
REMARK    3  A    between atoms: C_1  and  C_24
REMARK    4  A    between atoms: C_2  and  N_37
REMARK    5  A    between atoms: C_4  and  O_11
REMARK    6  A    between atoms: C_5  and  C_9
REMARK    7  A    between atoms: O_11  and  C_12
REMARK    8  A    between atoms: C_16  and  C_20
REMARK    9  A    between atoms: C_17  and  O_19
REMARK   10  A    between atoms: C_22  and  C_28
REMARK                            x       y       z     vdW  Elec       q    Type
REMARK                         _______ _______ _______ _____ _____    ______ ____
ROOT
ATOM      1  C   UNL     1      59.267 161.279  39.616  0.00  0.00    +0.071 C 
ENDROOT
BRANCH   1   2
ATOM      2  C   UNL     1      60.749 161.662  39.316  0.00  0.00    +0.016 C 
ATOM      3  C   UNL     1      61.265 162.833  39.577  0.00  0.00    +0.150 C 
ATOM      4  C   UNL     1      62.526 163.154  39.741  0.00  0.00    +0.103 C 
ATOM      5  C   UNL     1      63.529 162.118  39.550  0.00  0.00    +0.013 C 
ATOM      6  C   UNL     1      63.078 160.804  39.222  0.00  0.00    +0.001 C 
ATOM      7  C   UNL     1      61.650 160.692  39.144  0.00  0.00    -0.001 C 
BRANCH   4   8
ATOM      8  C   UNL     1      63.119 164.436  39.941  0.00  0.00    +0.103 C 
ATOM      9  N   UNL     1      63.617 165.560  40.126  0.00  0.00    -0.191 NA
ENDBRANCH   4   8
BRANCH   3  10
ATOM     10  O   UNL     1      60.395 164.040  39.621  0.00  0.00    -0.457 OA
BRANCH  10  11
ATOM     11  C   UNL     1      60.241 164.485  38.264  0.00  0.00    +0.134 C 
ATOM     12  C   UNL     1      59.866 163.816  37.234  0.00  0.00    +0.076 C 
ATOM     13  C   UNL     1      59.673 164.194  35.821  0.00  0.00    +0.204 C 
ATOM     14  O   UNL     1      59.388 163.754  34.850  0.00  0.00    -0.286 OA
ATOM     15  C   UNL     1      60.021 165.795  35.650  0.00  0.00    +0.111 C 
ATOM     16  C   UNL     1      60.347 166.263  36.728  0.00  0.00    +0.125 C 
ATOM     17  C   UNL     1      60.598 165.999  38.092  0.00  0.00    +0.128 C 
BRANCH  16  18
ATOM     18  O   UNL     1      60.577 167.810  36.510  0.00  0.00    -0.509 OA
ATOM     19  H   UNL     1      60.455 168.406  37.222  0.00  0.00    +0.292 HD
ENDBRANCH  16  18
BRANCH  15  20
ATOM     20  C   UNL     1      59.691 166.420  34.445  0.00  0.00    +0.240 C 
ATOM     21  O   UNL     1      59.236 167.334  33.928  0.00  0.00    -0.283 OA
ENDBRANCH  15  20
ENDBRANCH  10  11
ENDBRANCH   3  10
ENDBRANCH   1   2
BRANCH   1  24
ATOM     22  C   UNL     1      56.845 162.583  41.792  0.00  0.00    +0.226 C 
ATOM     23  N   UNL     1      58.113 162.480  41.539  0.00  0.00    -0.237 NA
ATOM     24  C   UNL     1      58.547 161.465  40.797  0.00  0.00    +0.155 C 
ATOM     25  C   UNL     1      57.287 160.503  40.982  0.00  0.00    +0.231 C 
ATOM     26  O   UNL     1      56.273 161.554  41.118  0.00  0.00    -0.460 OA
BRANCH  22  28
ATOM     27  O   UNL     1      55.013 163.993  42.516  0.00  0.00    -0.317 OA
ATOM     28  C   UNL     1      56.357 163.686  42.671  0.00  0.00    +0.222 C 
ATOM     29  C   UNL     1      57.155 164.935  42.321  0.00  0.00    +0.178 C 
ATOM     30  O   UNL     1      56.877 166.024  43.034  0.00  0.00    -0.351 OA
ATOM     31  C   UNL     1      56.709 167.253  42.386  0.00  0.00    +0.142 C 
ATOM     32  C   UNL     1      57.528 167.430  41.146  0.00  0.00    +0.035 C 
ATOM     33  C   UNL     1      57.694 166.203  40.297  0.00  0.00    +0.035 C 
ATOM     34  C   UNL     1      56.832 165.089  40.813  0.00  0.00    +0.148 C 
ATOM     35  O   UNL     1      55.508 165.564  40.849  0.00  0.00    -0.327 OA
ATOM     36  C   UNL     1      54.662 164.555  41.290  0.00  0.00    +0.294 C 
ENDBRANCH  22  28
ENDBRANCH   1  24
BRANCH   1  37
ATOM     37  C   UNL     1      58.916 160.538  38.619  0.00  0.00    +0.096 C 
BRANCH  37  38
ATOM     38  N   UNL     1      58.656 159.601  37.623  0.00  0.00    -0.297 N 
ATOM     39  C   UNL     1      58.842 158.158  38.117  0.00  0.00    +0.300 C 
ATOM     40  O   UNL     1      59.196 157.921  39.226  0.00  0.00    -0.265 OA
ATOM     41  H   UNL     1      58.384 159.836  36.706  0.00  0.00    +0.150 HD
ENDBRANCH  37  38
ENDBRANCH   1  37
TORSDOF 10
ENDMDL
