MODEL 1
REMARK VINA RESULT:    -6.283      0.000      0.000
REMARK INTER + INTRA:          -7.948
REMARK INTER:                  -7.753
REMARK INTRA:                  -0.195
REMARK UNBOUND:                -0.195
REMARK  Name = =
REMARK  4 active torsions:
REMARK  status: ('A' for Active; 'I' for Inactive)
REMARK    1  A    between atoms: C_1  and  C_17
REMARK    2  A    between atoms: C_1  and  C_24
REMARK    3  A    between atoms: C_3  and  N_19
REMARK    4  A    between atoms: C_25  and  N_26
REMARK                            x       y       z     vdW  Elec       q    Type
REMARK                         _______ _______ _______ _____ _____    ______ ____
ROOT
ATOM      1  C   UNL     1      61.299 162.465  38.718  0.00  0.00    +0.090 C 
ATOM      2  C   UNL     1      60.494 161.951  39.897  0.00  0.00    +0.035 C 
ATOM      3  C   UNL     1      60.297 160.474  39.905  0.00  0.00    +0.100 C 
ATOM      4  C   UNL     1      61.404 159.861  40.712  0.00  0.00    +0.022 C 
ATOM      5  C   UNL     1      62.762 160.001  40.057  0.00  0.00    +0.002 C 
ATOM      6  C   UNL     1      63.235 161.400  39.976  0.00  0.00    +0.001 C 
ATOM      7  C   UNL     1      62.747 162.263  38.873  0.00  0.00    +0.013 C 
ENDROOT
BRANCH   1  17
ATOM      8  N   UNL     1      61.729 164.791  37.734  0.00  0.00    -0.281 N 
ATOM      9  C   UNL     1      61.506 166.214  37.621  0.00  0.00    +0.075 C 
ATOM     10  C   UNL     1      60.365 166.414  36.659  0.00  0.00    +0.020 C 
ATOM     11  C   UNL     1      60.233 167.843  36.201  0.00  0.00    +0.002 C 
ATOM     12  C   UNL     1      61.496 168.366  35.568  0.00  0.00    +0.000 C 
ATOM     13  C   UNL     1      62.689 168.098  36.425  0.00  0.00    +0.002 C 
ATOM     14  C   UNL     1      62.764 166.733  37.011  0.00  0.00    +0.020 C 
ATOM     15  C   UNL     1      63.075 165.662  35.992  0.00  0.00    +0.023 C 
ATOM     16  C   UNL     1      62.755 164.416  36.792  0.00  0.00    +0.093 C 
ATOM     17  C   UNL     1      61.029 163.944  38.631  0.00  0.00    +0.229 C 
ATOM     18  O   UNL     1      60.143 164.373  39.408  0.00  0.00    -0.275 OA
ENDBRANCH   1  17
BRANCH   3  19
ATOM     19  N   UNL     1      59.056 160.200  40.596  0.00  0.00    -0.173 N 
ATOM     20  N   UNL     1      57.891 160.770  40.354  0.00  0.00    -0.052 NA
ATOM     21  N   UNL     1      56.973 160.262  41.192  0.00  0.00    -0.025 NA
ATOM     22  N   UNL     1      57.550 159.366  41.973  0.00  0.00    -0.108 NA
ATOM     23  C   UNL     1      58.841 159.334  41.596  0.00  0.00    +0.210 C 
ENDBRANCH   3  19
BRANCH   1  24
ATOM     24  C   UNL     1      60.694 161.899  37.466  0.00  0.00    -0.002 C 
ATOM     25  C   UNL     1      59.496 162.158  37.051  0.00  0.00    +0.060 C 
BRANCH  25  26
ATOM     26  N   UNL     1      58.828 161.690  35.904  0.00  0.00    -0.276 N 
ATOM     27  C   UNL     1      58.499 162.485  34.793  0.00  0.00    +0.304 C 
ATOM     28  O   UNL     1      58.787 163.699  34.754  0.00  0.00    -0.265 OA
ATOM     29  H   UNL     1      58.575 160.739  35.879  0.00  0.00    +0.155 HD
ENDBRANCH  25  26
ENDBRANCH   1  24
TORSDOF 4
ENDMDL
