REMARK  Name = =
REMARK  0 active torsions:
REMARK  status: ('A' for Active; 'I' for Inactive)
REMARK                            x       y       z     vdW  Elec       q    Type
REMARK                         _______ _______ _______ _____ _____    ______ ____
ROOT
ATOM      1  C   UNL     1      -3.253  -4.485  31.148  0.00  0.00    +0.019 C 
ATOM      2  C   UNL     1      -3.716  -5.185  32.244  0.00  0.00    +0.099 C 
ATOM      3  N   UNL     1      -4.588  -4.596  33.094  0.00  0.00    -0.242 NA
ATOM      4  C   UNL     1      -5.018  -3.339  32.896  0.00  0.00    +0.099 C 
ATOM      5  C   UNL     1      -4.557  -2.642  31.805  0.00  0.00    +0.021 C 
ATOM      6  C   UNL     1      -3.661  -3.187  30.896  0.00  0.00    +0.003 C 
ATOM      7  C   UNL     1      -3.197  -2.500  29.806  0.00  0.00    +0.000 C 
ATOM      8  C   UNL     1      -2.310  -3.053  28.913  0.00  0.00    +0.000 C 
ATOM      9  C   UNL     1      -1.894  -4.356  29.160  0.00  0.00    +0.000 C 
ATOM     10  C   UNL     1      -2.361  -5.044  30.255  0.00  0.00    +0.002 C 
ENDROOT
TORSDOF 0
