REMARK  Name = =
REMARK  3 active torsions:
REMARK  status: ('A' for Active; 'I' for Inactive)
REMARK    1  A    between atoms: S_1  and  C_4
REMARK    2  A    between atoms: S_1  and  N_13
REMARK    3  A    between atoms: C_14  and  C_16
REMARK                            x       y       z     vdW  Elec       q    Type
REMARK                         _______ _______ _______ _____ _____    ______ ____
ROOT
ATOM      1  S   UNL     1      -1.165  -7.841  30.993  0.00  0.00    +0.164 S 
ATOM      2  O   UNL     1      -2.340  -8.243  31.799  0.00  0.00    -0.230 OA
ENDROOT
BRANCH   1   4
ATOM      3  C   UNL     1       0.999  -6.254  31.000  0.00  0.00    +0.028 C 
ATOM      4  C   UNL     1       0.118  -7.023  31.749  0.00  0.00    +0.155 C 
ATOM      5  N   UNL     1       0.304  -7.106  33.086  0.00  0.00    -0.234 NA
ATOM      6  C   UNL     1       1.292  -6.489  33.736  0.00  0.00    +0.100 C 
ATOM      7  C   UNL     1       2.162  -5.727  32.972  0.00  0.00    +0.021 C 
ATOM      8  C   UNL     1       2.038  -5.592  31.606  0.00  0.00    +0.004 C 
ATOM      9  C   UNL     1       2.903  -4.833  30.845  0.00  0.00    +0.000 C 
ATOM     10  C   UNL     1       2.765  -4.713  29.488  0.00  0.00    +0.000 C 
ATOM     11  C   UNL     1       1.712  -5.382  28.867  0.00  0.00    +0.000 C 
ATOM     12  C   UNL     1       0.840  -6.145  29.626  0.00  0.00    +0.002 C 
ENDBRANCH   1   4
BRANCH   1  13
ATOM     13  N   UNL     1      -1.258  -7.939  29.319  0.00  0.00    -0.222 N 
ATOM     14  C   UNL     1      -0.768  -9.049  28.556  0.00  0.00    +0.310 C 
ATOM     15  O   UNL     1      -0.234 -10.021  29.141  0.00  0.00    -0.264 OA
ATOM     16  H   UNL     1      -1.673  -7.190  28.833  0.00  0.00    +0.166 HD
BRANCH  14  17
ATOM     17  C   UNL     1      -0.867  -9.098  27.105  0.00  0.00    +0.297 C 
ATOM     18  O   UNL     1      -1.476  -8.187  26.513  0.00  0.00    -0.265 OA
ATOM     19  N   UNL     1      -0.282 -10.161  26.370  0.00  0.00    -0.322 N 
ATOM     20  H   UNL     1       0.199 -10.879  26.841  0.00  0.00    +0.145 HD
ATOM     21  H   UNL     1      -0.357 -10.180  25.389  0.00  0.00    +0.145 HD
ENDBRANCH  14  17
ENDBRANCH   1  13
TORSDOF 3
