REMARK  Name = =
REMARK  5 active torsions:
REMARK  status: ('A' for Active; 'I' for Inactive)
REMARK    1  A    between atoms: S_1  and  C_4
REMARK    2  A    between atoms: S_1  and  N_13
REMARK    3  A    between atoms: N_13  and  C_19
REMARK    4  A    between atoms: C_14  and  C_16
REMARK    5  A    between atoms: C_19  and  O_20
REMARK                            x       y       z     vdW  Elec       q    Type
REMARK                         _______ _______ _______ _____ _____    ______ ____
ROOT
ATOM      1  S   UNL     1       0.885  -7.410  29.001  0.00  0.00    +0.170 S 
ATOM      2  O   UNL     1       2.146  -6.845  29.500  0.00  0.00    -0.230 OA
ENDROOT
BRANCH   1   4
ATOM      3  C   UNL     1      -0.310  -7.432  31.397  0.00  0.00    +0.028 C 
ATOM      4  C   UNL     1      -0.473  -7.497  30.008  0.00  0.00    +0.155 C 
ATOM      5  N   UNL     1      -1.732  -7.650  29.565  0.00  0.00    -0.234 NA
ATOM      6  C   UNL     1      -2.801  -7.739  30.385  0.00  0.00    +0.100 C 
ATOM      7  C   UNL     1      -2.640  -7.676  31.757  0.00  0.00    +0.021 C 
ATOM      8  C   UNL     1      -1.368  -7.519  32.276  0.00  0.00    +0.004 C 
ATOM      9  C   UNL     1      -1.175  -7.447  33.659  0.00  0.00    +0.000 C 
ATOM     10  C   UNL     1       0.098  -7.284  34.149  0.00  0.00    +0.000 C 
ATOM     11  C   UNL     1       1.174  -7.192  33.312  0.00  0.00    +0.000 C 
ATOM     12  C   UNL     1       0.950  -7.268  31.946  0.00  0.00    +0.002 C 
ENDBRANCH   1   4
BRANCH   1  13
ATOM     13  N   UNL     1       0.903  -8.219  27.503  0.00  0.00    -0.168 N 
ATOM     14  C   UNL     1       2.028  -8.065  26.646  0.00  0.00    +0.315 C 
ATOM     15  O   UNL     1       2.998  -7.361  27.038  0.00  0.00    -0.264 OA
BRANCH  14  16
ATOM     16  C   UNL     1       2.144  -8.670  25.326  0.00  0.00    +0.298 C 
ATOM     17  O   UNL     1       1.457  -9.635  24.920  0.00  0.00    -0.265 OA
ATOM     18  N   UNL     1       3.098  -8.170  24.372  0.00  0.00    -0.322 N 
ATOM     19  H   UNL     1       3.680  -7.412  24.609  0.00  0.00    +0.145 HD
ATOM     20  H   UNL     1       3.169  -8.586  23.482  0.00  0.00    +0.145 HD
ENDBRANCH  14  16
BRANCH  13  21
ATOM     21  C   UNL     1      -0.226  -9.055  27.148  0.00  0.00    +0.252 C 
BRANCH  21  22
ATOM     22  O   UNL     1      -1.188  -8.317  26.449  0.00  0.00    -0.363 OA
ATOM     23  H   UNL     1      -1.934  -8.893  26.221  0.00  0.00    +0.212 HD
ENDBRANCH  21  22
ENDBRANCH  13  21
ENDBRANCH   1  13
TORSDOF 5
