REMARK  Name = =
REMARK  9 active torsions:
REMARK  status: ('A' for Active; 'I' for Inactive)
REMARK    1  A    between atoms: C_1  and  C_5
REMARK    2  A    between atoms: N_4  and  S_7
REMARK    3  A    between atoms: N_4  and  C_19
REMARK    4  A    between atoms: S_7  and  C_10
REMARK    5  A    between atoms: C_19  and  O_20
REMARK    6  A    between atoms: O_23  and  O_33
REMARK    7  A    between atoms: N_24  and  C_25
REMARK    8  A    between atoms: N_27  and  O_28
REMARK    9  A    between atoms: N_31  and  N_32
REMARK                            x       y       z     vdW  Elec       q    Type
REMARK                         _______ _______ _______ _____ _____    ______ ____
ROOT
ATOM      1  S   UNL     1       2.932  -3.553  24.853  0.00  0.00    +0.170 S 
ATOM      2  O   UNL     1       1.955  -4.705  25.009  0.00  0.00    -0.230 OA
ENDROOT
BRANCH   1   4
ATOM      3  C   UNL     1       3.812  -3.406  22.250  0.00  0.00    +0.028 C 
ATOM      4  C   UNL     1       4.067  -3.857  23.534  0.00  0.00    +0.155 C 
ATOM      5  N   UNL     1       5.220  -4.520  23.719  0.00  0.00    -0.234 NA
ATOM      6  C   UNL     1       6.109  -4.755  22.728  0.00  0.00    +0.100 C 
ATOM      7  C   UNL     1       5.885  -4.320  21.440  0.00  0.00    +0.021 C 
ATOM      8  C   UNL     1       4.705  -3.631  21.203  0.00  0.00    +0.004 C 
ATOM      9  C   UNL     1       4.487  -3.214  19.921  0.00  0.00    +0.000 C 
ATOM     10  C   UNL     1       3.306  -2.528  19.658  0.00  0.00    +0.000 C 
ATOM     11  C   UNL     1       2.390  -2.278  20.644  0.00  0.00    +0.000 C 
ATOM     12  C   UNL     1       2.652  -2.717  21.928  0.00  0.00    +0.002 C 
ENDBRANCH   1   4
BRANCH   1  13
ATOM     13  N   UNL     1       3.772  -3.256  26.365  0.00  0.00    -0.168 N 
ATOM     14  C   UNL     1       3.410  -3.874  27.580  0.00  0.00    +0.318 C 
ATOM     15  O   UNL     1       4.060  -3.645  28.613  0.00  0.00    -0.264 OA
BRANCH  14  16
ATOM     16  C   UNL     1       2.271  -4.783  27.643  0.00  0.00    +0.325 C 
ATOM     17  O   UNL     1       2.487  -6.030  27.698  0.00  0.00    -0.263 OA
ATOM     18  N   UNL     1       0.941  -4.274  27.643  0.00  0.00    -0.153 N 
ATOM     19  O   UNL     1      -0.101  -5.091  27.691  0.00  0.00    -0.096 OA
ATOM     20  H   UNL     1       0.794  -3.301  27.607  0.00  0.00    +0.186 HD
ENDBRANCH  14  16
BRANCH  13  21
ATOM     21  C   UNL     1       4.892  -2.330  26.344  0.00  0.00    +0.252 C 
BRANCH  21  22
ATOM     22  O   UNL     1       6.083  -3.077  26.393  0.00  0.00    -0.363 OA
ATOM     23  H   UNL     1       6.843  -2.475  26.380  0.00  0.00    +0.212 HD
ENDBRANCH  21  22
ENDBRANCH  13  21
ENDBRANCH   1  13
TORSDOF 5
REMARK  Name = =
REMARK  9 active torsions:
REMARK  status: ('A' for Active; 'I' for Inactive)
REMARK    1  A    between atoms: C_1  and  C_5
REMARK    2  A    between atoms: N_4  and  S_7
REMARK    3  A    between atoms: N_4  and  C_19
REMARK    4  A    between atoms: S_7  and  C_10
REMARK    5  A    between atoms: C_19  and  O_20
REMARK    6  A    between atoms: O_23  and  O_33
REMARK    7  A    between atoms: N_24  and  C_25
REMARK    8  A    between atoms: N_27  and  O_28
REMARK    9  A    between atoms: N_31  and  N_32
REMARK                            x       y       z     vdW  Elec       q    Type
REMARK                         _______ _______ _______ _____ _____    ______ ____
ROOT
ATOM      1  P   UNL     1      -0.697  -5.476  29.196  0.00  0.00    +0.000 P 
ENDROOT
TORSDOF 0
REMARK  Name = =
REMARK  9 active torsions:
REMARK  status: ('A' for Active; 'I' for Inactive)
REMARK    1  A    between atoms: C_1  and  C_5
REMARK    2  A    between atoms: N_4  and  S_7
REMARK    3  A    between atoms: N_4  and  C_19
REMARK    4  A    between atoms: S_7  and  C_10
REMARK    5  A    between atoms: C_19  and  O_20
REMARK    6  A    between atoms: O_23  and  O_33
REMARK    7  A    between atoms: N_24  and  C_25
REMARK    8  A    between atoms: N_27  and  O_28
REMARK    9  A    between atoms: N_31  and  N_32
REMARK                            x       y       z     vdW  Elec       q    Type
REMARK                         _______ _______ _______ _____ _____    ______ ____
ROOT
ATOM      1  O   UNL     1      -1.744  -5.875  28.214  0.00  0.00    -0.253 OA
ATOM      2  H   UNL     1      -1.559  -5.029  28.651  0.00  0.00    +0.253 HD
ENDROOT
BRANCH   1   3
ATOM      3  O   UNL     1      -0.471  -6.736  28.205  0.00  0.00    -0.253 OA
ATOM      4  H   UNL     1      -0.656  -7.582  27.768  0.00  0.00    +0.253 HD
ENDBRANCH   1   3
TORSDOF 1
REMARK  Name = =
REMARK  9 active torsions:
REMARK  status: ('A' for Active; 'I' for Inactive)
REMARK    1  A    between atoms: C_1  and  C_5
REMARK    2  A    between atoms: N_4  and  S_7
REMARK    3  A    between atoms: N_4  and  C_19
REMARK    4  A    between atoms: S_7  and  C_10
REMARK    5  A    between atoms: C_19  and  O_20
REMARK    6  A    between atoms: O_23  and  O_33
REMARK    7  A    between atoms: N_24  and  C_25
REMARK    8  A    between atoms: N_27  and  O_28
REMARK    9  A    between atoms: N_31  and  N_32
REMARK                            x       y       z     vdW  Elec       q    Type
REMARK                         _______ _______ _______ _____ _____    ______ ____
ROOT
ATOM      1  C   UNL     1      -1.884  -3.014  29.375  0.00  0.00    +0.339 C 
ATOM      2  O   UNL     1      -2.946  -3.627  29.668  0.00  0.00    -0.249 OA
ATOM      3  N   UNL     1      -1.927  -1.587  29.326  0.00  0.00    -0.180 N 
ATOM      4  H   UNL     1      -1.099  -1.107  29.096  0.00  0.00    +0.184 HD
ENDROOT
BRANCH   1   5
ATOM      5  N   UNL     1      -0.735  -3.795  29.118  0.00  0.00    -0.215 NA
ATOM      6  H   UNL     1      -0.785  -4.777  29.172  0.00  0.00    +0.174 HD
ENDBRANCH   1   5
BRANCH   3   7
ATOM      7  O   UNL     1      -3.028  -0.861  29.574  0.00  0.00    -0.294 OA
ATOM      8  H   UNL     1      -3.766  -1.454  29.785  0.00  0.00    +0.241 HD
ENDBRANCH   3   7
TORSDOF 2
REMARK  Name = =
REMARK  9 active torsions:
REMARK  status: ('A' for Active; 'I' for Inactive)
REMARK    1  A    between atoms: C_1  and  C_5
REMARK    2  A    between atoms: N_4  and  S_7
REMARK    3  A    between atoms: N_4  and  C_19
REMARK    4  A    between atoms: S_7  and  C_10
REMARK    5  A    between atoms: C_19  and  O_20
REMARK    6  A    between atoms: O_23  and  O_33
REMARK    7  A    between atoms: N_24  and  C_25
REMARK    8  A    between atoms: N_27  and  O_28
REMARK    9  A    between atoms: N_31  and  N_32
REMARK                            x       y       z     vdW  Elec       q    Type
REMARK                         _______ _______ _______ _____ _____    ______ ____
ROOT
ATOM      1  C   UNL     1      -0.263  -5.990  30.846  0.00  0.00    +0.313 C 
ATOM      2  O   UNL     1      -1.108  -6.775  31.320  0.00  0.00    -0.264 OA
ATOM      3  N   UNL     1       0.899  -5.523  31.455  0.00  0.00    -0.246 N 
ATOM      4  H   UNL     1       1.513  -4.901  31.003  0.00  0.00    +0.169 HD
ENDROOT
BRANCH   3   5
ATOM      5  N   UNL     1       1.140  -5.997  32.758  0.00  0.00    -0.254 NA
ATOM      6  H   UNL     1       0.387  -6.626  33.036  0.00  0.00    +0.140 HD
ATOM      7  H   UNL     1       1.181  -5.209  33.404  0.00  0.00    +0.140 HD
ENDBRANCH   3   5
TORSDOF 1
