REMARK  Name = =
REMARK  2 active torsions:
REMARK  status: ('A' for Active; 'I' for Inactive)
REMARK    1  A    between atoms: P_1  and  C_12
REMARK    2  A    between atoms: P_1  and  O_17
REMARK                            x       y       z     vdW  Elec       q    Type
REMARK                         _______ _______ _______ _____ _____    ______ ____
ROOT
ATOM      1  P   UNL     1      -5.644   0.187  31.579  0.00  0.00    +0.354 P 
ATOM      2  O   UNL     1      -4.810   0.404  30.506  0.00  0.00    -0.135 OA
ATOM      3  O   UNL     1      -6.667   1.230  30.770  0.00  0.00    -0.288 OA
ATOM      4  C   UNL     1      -7.705   0.479  30.294  0.00  0.00    +0.157 C 
ATOM      5  C   UNL     1      -8.543   0.025  31.442  0.00  0.00    +0.173 C 
ATOM      6  O   UNL     1      -9.777   0.664  31.362  0.00  0.00    -0.351 OA
ATOM      7  C   UNL     1      -9.999   0.970  30.038  0.00  0.00    +0.145 C 
ATOM      8  C   UNL     1      -8.630   1.459  29.584  0.00  0.00    +0.065 C 
ATOM      9  C   UNL     1      -7.914   0.378  32.737  0.00  0.00    +0.184 C 
ATOM     10  O   UNL     1      -6.567   0.323  32.806  0.00  0.00    -0.286 OA
ENDROOT
BRANCH   1  12
ATOM     11  O   UNL     1      -4.766  -2.273  30.817  0.00  0.00    -0.431 OA
ATOM     12  C   UNL     1      -5.786  -1.523  31.392  0.00  0.00    +0.297 C 
ATOM     13  C   UNL     1      -5.864  -2.106  32.782  0.00  0.00    +0.037 C 
ATOM     14  C   UNL     1      -4.983  -3.058  32.924  0.00  0.00    +0.082 C 
ATOM     15  C   UNL     1      -4.247  -3.213  31.698  0.00  0.00    +0.342 C 
ATOM     16  O   UNL     1      -3.323  -4.051  31.508  0.00  0.00    -0.245 OA
ENDBRANCH   1  12
BRANCH   1  17
ATOM     17  O   UNL     1      -4.426   0.801  32.525  0.00  0.00    -0.318 OA
ATOM     18  H   UNL     1      -4.478   1.770  32.531  0.00  0.00    +0.221 HD
ENDBRANCH   1  17
TORSDOF 2
