REMARK  Name = =
REMARK  6 active torsions:
REMARK  status: ('A' for Active; 'I' for Inactive)
REMARK    1  A    between atoms: P_1  and  C_12
REMARK    2  A    between atoms: P_1  and  O_26
REMARK    3  A    between atoms: C_9  and  O_22
REMARK    4  A    between atoms: C_12  and  C_17
REMARK    5  A    between atoms: O_22  and  C_23
REMARK    6  A    between atoms: O_26  and  C_27
REMARK                            x       y       z     vdW  Elec       q    Type
REMARK                         _______ _______ _______ _____ _____    ______ ____
ROOT
ATOM      1  P   UNL     1     -10.478  -1.383  30.336  0.00  0.00    +0.363 P 
ATOM      2  O   UNL     1     -10.036  -2.682  30.273  0.00  0.00    -0.135 OA
ATOM      3  O   UNL     1      -9.781  -1.335  28.788  0.00  0.00    -0.288 OA
ATOM      4  C   UNL     1     -10.648  -0.786  27.854  0.00  0.00    +0.160 C 
ATOM      5  C   UNL     1     -10.324   0.717  27.888  0.00  0.00    +0.213 C 
ATOM      6  O   UNL     1      -9.093   0.852  27.306  0.00  0.00    -0.347 OA
ATOM      7  C   UNL     1      -8.871  -0.187  26.449  0.00  0.00    +0.145 C 
ATOM      8  C   UNL     1     -10.025  -1.129  26.496  0.00  0.00    +0.065 C 
ATOM      9  C   UNL     1     -10.147   1.004  29.392  0.00  0.00    +0.328 C 
ATOM     10  O   UNL     1     -10.824   0.093  30.149  0.00  0.00    -0.249 OA
ENDROOT
BRANCH   1  12
ATOM     11  O   UNL     1     -12.793  -2.609  29.537  0.00  0.00    -0.426 OA
ATOM     12  C   UNL     1     -12.165  -1.835  30.488  0.00  0.00    +0.318 C 
ATOM     13  C   UNL     1     -13.007  -0.614  30.571  0.00  0.00    +0.041 C 
ATOM     14  C   UNL     1     -14.026  -0.676  29.741  0.00  0.00    +0.082 C 
ATOM     15  C   UNL     1     -13.907  -1.950  29.065  0.00  0.00    +0.342 C 
ATOM     16  O   UNL     1     -14.741  -2.340  28.181  0.00  0.00    -0.245 OA
BRANCH  12  17
ATOM     17  C   UNL     1     -12.388  -2.549  31.801  0.00  0.00    +0.279 C 
ATOM     18  O   UNL     1     -12.542  -3.808  32.034  0.00  0.00    -0.412 OA
ATOM     19  C   UNL     1     -12.705  -3.932  33.346  0.00  0.00    +0.306 C 
ATOM     20  N   UNL     1     -12.653  -2.736  33.940  0.00  0.00    -0.102 NA
ATOM     21  N   UNL     1     -12.452  -1.865  32.957  0.00  0.00    -0.107 NA
ENDBRANCH  12  17
ENDBRANCH   1  12
BRANCH   9  22
ATOM     22  O   UNL     1      -8.811   1.195  29.719  0.00  0.00    -0.407 OA
BRANCH  22  23
ATOM     23  C   UNL     1      -8.437   2.251  30.533  0.00  0.00    +0.400 C 
ATOM     24  O   UNL     1      -9.308   3.118  30.883  0.00  0.00    -0.227 OA
ATOM     25  N   UNL     1      -7.120   2.432  31.014  0.00  0.00    -0.295 N 
ATOM     26  H   UNL     1      -6.415   1.790  30.771  0.00  0.00    +0.148 HD
ATOM     27  H   UNL     1      -6.908   3.200  31.592  0.00  0.00    +0.148 HD
ENDBRANCH  22  23
ENDBRANCH   9  22
BRANCH   1  28
ATOM     28  O   UNL     1      -9.575  -1.035  31.637  0.00  0.00    -0.291 OA
BRANCH  28  29
ATOM     29  C   UNL     1      -8.398  -1.644  31.900  0.00  0.00    +0.127 C 
ATOM     30  C   UNL     1      -7.230  -0.701  31.943  0.00  0.00    +0.047 C 
ATOM     31  C   UNL     1      -6.375  -0.882  33.169  0.00  0.00    +0.071 C 
ATOM     32  N   UNL     1      -6.096  -2.223  33.535  0.00  0.00    -0.297 NA
ATOM     33  C   UNL     1      -7.068  -3.205  33.184  0.00  0.00    +0.071 C 
ATOM     34  C   UNL     1      -8.426  -2.537  33.146  0.00  0.00    +0.047 C 
ATOM     35  H   UNL     1      -5.985  -2.249  34.549  0.00  0.00    +0.123 HD
ENDBRANCH  28  29
ENDBRANCH   1  28
TORSDOF 6
