MODEL 1
REMARK VINA RESULT:    -9.298      0.000      0.000
REMARK INTER + INTRA:         -15.474
REMARK INTER:                 -15.276
REMARK INTRA:                  -0.198
REMARK UNBOUND:                -0.198
REMARK  Name = =
REMARK  11 active torsions:
REMARK  status: ('A' for Active; 'I' for Inactive)
REMARK    1  A    between atoms: C_1  and  C_16
REMARK    2  A    between atoms: C_2  and  C_3
REMARK    3  A    between atoms: C_8  and  N_9
REMARK    4  A    between atoms: N_9  and  S_10
REMARK    5  A    between atoms: S_10  and  N_13
REMARK    6  A    between atoms: C_16  and  O_18
REMARK    7  A    between atoms: O_18  and  C_19
REMARK    8  A    between atoms: C_20  and  C_21
REMARK    9  A    between atoms: C_20  and  C_23
REMARK   10  A    between atoms: C_24  and  C_25
REMARK   11  A    between atoms: C_26  and  C_27
REMARK                            x       y       z     vdW  Elec       q    Type
REMARK                         _______ _______ _______ _____ _____    ______ ____
ROOT
ATOM      1  C   UNL     1      51.401 153.841  27.244  0.00  0.00    +0.084 C 
ATOM      2  C   UNL     1      51.698 154.095  26.031  0.00  0.00    +0.030 C 
ENDROOT
BRANCH   2   3
ATOM      3  C   UNL     1      52.839 154.790  25.490  0.00  0.00    +0.136 C 
ATOM      4  N   UNL     1      53.149 156.056  25.739  0.00  0.00    -0.144 NA
ATOM      5  N   UNL     1      54.198 156.683  25.241  0.00  0.00    -0.125 NA
ATOM      6  C   UNL     1      55.060 156.047  24.409  0.00  0.00    +0.223 C 
ATOM      7  N   UNL     1      54.793 154.777  24.129  0.00  0.00    -0.205 NA
ATOM      8  C   UNL     1      53.708 154.109  24.637  0.00  0.00    +0.169 C 
BRANCH   8   9
ATOM      9  N   UNL     1      53.520 152.761  24.273  0.00  0.00    -0.185 N 
ATOM     10  H   UNL     1      53.171 152.526  23.382  0.00  0.00    +0.177 HD
BRANCH   9  11
ATOM     11  S   UNL     1      53.919 151.512  25.434  0.00  0.00    +0.128 S 
ATOM     12  O   UNL     1      52.702 151.048  26.165  0.00  0.00    -0.135 OA
ATOM     13  O   UNL     1      54.953 152.099  26.357  0.00  0.00    -0.135 OA
BRANCH  11  14
ATOM     14  N   UNL     1      54.578 150.187  24.553  0.00  0.00    -0.165 N 
ATOM     15  C   UNL     1      54.071 148.863  24.631  0.00  0.00    +0.320 C 
ATOM     16  O   UNL     1      53.085 148.636  25.382  0.00  0.00    -0.263 OA
ATOM     17  H   UNL     1      55.348 150.356  23.963  0.00  0.00    +0.178 HD
ENDBRANCH  11  14
ENDBRANCH   9  11
ENDBRANCH   8   9
ENDBRANCH   2   3
BRANCH   1  18
ATOM     18  C   UNL     1      52.105 154.167  28.460  0.00  0.00    +0.346 C 
ATOM     19  O   UNL     1      53.258 153.605  28.667  0.00  0.00    -0.244 OA
BRANCH  18  20
ATOM     20  O   UNL     1      51.713 154.985  29.414  0.00  0.00    -0.418 OA
BRANCH  20  21
ATOM     21  C   UNL     1      50.816 155.869  29.762  0.00  0.00    +0.179 C 
ATOM     22  C   UNL     1      50.732 157.158  29.896  0.00  0.00    +0.016 C 
BRANCH  22  23
ATOM     23  C   UNL     1      51.756 158.171  29.663  0.00  0.00    +0.030 C 
ATOM     24  C   UNL     1      52.757 157.664  28.652  0.00  0.00    +0.005 C 
ENDBRANCH  22  23
BRANCH  22  25
ATOM     25  C   UNL     1      49.421 157.702  30.350  0.00  0.00    -0.001 C 
ATOM     26  C   UNL     1      49.169 158.975  30.501  0.00  0.00    -0.000 C 
BRANCH  26  27
ATOM     27  C   UNL     1      47.857 159.419  30.949  0.00  0.00    -0.000 C 
ATOM     28  C   UNL     1      47.718 160.404  31.782  0.00  0.00    -0.000 C 
BRANCH  28  29
ATOM     29  C   UNL     1      48.819 161.140  32.335  0.00  0.00    -0.000 C 
ATOM     30  C   UNL     1      49.086 161.113  33.655  0.00  0.00    +0.000 C 
ENDBRANCH  28  29
ENDBRANCH  26  27
ENDBRANCH  22  25
ENDBRANCH  20  21
ENDBRANCH  18  20
ENDBRANCH   1  18
TORSDOF 11
ENDMDL
