REMARK  Name = =
REMARK  9 active torsions:
REMARK  status: ('A' for Active; 'I' for Inactive)
REMARK    1  A    between atoms: C_1  and  C_19
REMARK    2  A    between atoms: C_2  and  N_41
REMARK    3  A    between atoms: C_3  and  N_6
REMARK    4  A    between atoms: C_18  and  N_35
REMARK    5  A    between atoms: C_26  and  N_39
REMARK    6  A    between atoms: C_27  and  C_30
REMARK    7  A    between atoms: N_39  and  O_40
REMARK    8  A    between atoms: N_41  and  S_42
REMARK    9  A    between atoms: S_42  and  N_45
REMARK                            x       y       z     vdW  Elec       q    Type
REMARK                         _______ _______ _______ _____ _____    ______ ____
ROOT
ATOM      1  C   UNL     1       2.653  -4.721  27.260  0.00  0.00    +0.002 C 
ATOM      2  C   UNL     1       3.144  -4.229  26.174  0.00  0.00    +0.076 C 
ATOM      3  C   UNL     1       3.970  -3.014  26.465  0.00  0.00    +0.063 C 
ATOM      4  C   UNL     1       3.965  -2.822  27.745  0.00  0.00    -0.005 C 
ATOM      5  C   UNL     1       3.154  -3.884  28.423  0.00  0.00    +0.055 C 
ENDROOT
BRANCH   3   6
ATOM      6  N   UNL     1       4.617  -2.184  25.521  0.00  0.00    -0.274 N 
ATOM      7  C   UNL     1       6.076  -2.141  25.365  0.00  0.00    +0.139 C 
ATOM      8  N   UNL     1       6.568  -1.375  26.522  0.00  0.00    -0.282 NA
ATOM      9  C   UNL     1       7.719  -0.660  25.997  0.00  0.00    +0.070 C 
ATOM     10  C   UNL     1       7.215  -0.167  24.678  0.00  0.00    +0.025 C 
ATOM     11  C   UNL     1       6.328  -1.254  24.171  0.00  0.00    +0.059 C 
ATOM     12  C   UNL     1       4.989  -0.710  23.822  0.00  0.00    -0.006 C 
ATOM     13  C   UNL     1       4.012  -1.261  24.613  0.00  0.00    +0.049 C 
ATOM     14  C   UNL     1       2.682  -0.906  24.469  0.00  0.00    +0.015 C 
ATOM     15  C   UNL     1       2.347   0.021  23.508  0.00  0.00    +0.001 C 
ATOM     16  C   UNL     1       3.331   0.564  22.726  0.00  0.00    -0.000 C 
ATOM     17  C   UNL     1       4.671   0.230  22.845  0.00  0.00    -0.003 C 
ATOM     18  H   UNL     1       6.842  -1.999  27.281  0.00  0.00    +0.125 HD
ENDBRANCH   3   6
BRANCH   1  20
ATOM     19  C   UNL     1       0.681  -5.768  28.207  0.00  0.00    +0.090 C 
ATOM     20  C   UNL     1       1.800  -5.877  27.534  0.00  0.00    +0.053 C 
ATOM     21  C   UNL     1       2.177  -7.221  27.116  0.00  0.00    +0.197 C 
ATOM     22  O   UNL     1       3.209  -7.456  26.473  0.00  0.00    -0.287 OA
ATOM     23  C   UNL     1       1.384  -8.454  27.398  0.00  0.00    +0.044 C 
ATOM     24  C   UNL     1       0.224  -8.286  28.097  0.00  0.00    +0.043 C 
ATOM     25  C   UNL     1      -0.611  -9.380  28.362  0.00  0.00    +0.005 C 
ATOM     26  C   UNL     1      -0.270 -10.614  27.924  0.00  0.00    +0.019 C 
ATOM     27  C   UNL     1       0.892 -10.772  27.230  0.00  0.00    +0.078 C 
ATOM     28  C   UNL     1       1.741  -9.690  26.955  0.00  0.00    +0.027 C 
ATOM     29  C   UNL     1      -0.154  -6.974  28.516  0.00  0.00    +0.209 C 
ATOM     30  O   UNL     1      -1.229  -6.856  29.161  0.00  0.00    -0.285 OA
BRANCH  28  31
ATOM     31  C   UNL     1       3.030 -10.004  26.340  0.00  0.00    +0.031 C 
ATOM     32  S   UNL     1       4.613 -10.315  27.199  0.00  0.00    -0.086 S 
ATOM     33  C   UNL     1       5.573 -10.538  25.753  0.00  0.00    +0.035 C 
ATOM     34  C   UNL     1       4.698 -10.373  24.741  0.00  0.00    +0.007 C 
ATOM     35  C   UNL     1       3.421 -10.105  25.017  0.00  0.00    +0.007 C 
ENDBRANCH  28  31
BRANCH  19  36
ATOM     36  N   UNL     1       0.046  -4.628  28.739  0.00  0.00    -0.305 N 
ATOM     37  C   UNL     1      -0.216  -3.942  29.948  0.00  0.00    +0.093 C 
ATOM     38  C   UNL     1      -0.884  -2.785  29.181  0.00  0.00    +0.043 C 
ATOM     39  C   UNL     1      -0.883  -3.708  28.012  0.00  0.00    +0.093 C 
ENDBRANCH  19  36
BRANCH  27  40
ATOM     40  N   UNL     1       1.232 -12.098  26.824  0.00  0.00    -0.267 N 
ATOM     41  H   UNL     1       2.178 -12.333  26.688  0.00  0.00    +0.194 HD
BRANCH  40  42
ATOM     42  O   UNL     1       0.277 -13.042  26.622  0.00  0.00    -0.289 OA
ATOM     43  H   UNL     1      -0.597 -12.660  26.796  0.00  0.00    +0.244 HD
ENDBRANCH  40  42
ENDBRANCH  27  40
ENDBRANCH   1  20
BRANCH   2  44
ATOM     44  N   UNL     1       3.042  -4.624  24.827  0.00  0.00    -0.205 N 
ATOM     45  H   UNL     1       2.185  -4.503  24.358  0.00  0.00    +0.175 HD
BRANCH  44  46
ATOM     46  S   UNL     1       4.389  -5.323  23.963  0.00  0.00    +0.107 S 
ATOM     47  O   UNL     1       3.862  -6.581  23.281  0.00  0.00    -0.138 OA
ATOM     48  O   UNL     1       5.536  -5.620  24.842  0.00  0.00    -0.138 OA
BRANCH  46  49
ATOM     49  N   UNL     1       4.840  -4.283  22.650  0.00  0.00    -0.191 NA
ATOM     50  H   UNL     1       5.208  -3.407  23.021  0.00  0.00    +0.146 HD
ATOM     51  H   UNL     1       4.022  -4.091  22.072  0.00  0.00    +0.146 HD
ENDBRANCH  46  49
ENDBRANCH  44  46
ENDBRANCH   2  44
TORSDOF 9
