REMARK  Name = =
REMARK  5 active torsions:
REMARK  status: ('A' for Active; 'I' for Inactive)
REMARK    1  A    between atoms: N_1  and  N_11
REMARK    2  A    between atoms: C_7  and  C_20
REMARK    3  A    between atoms: C_21  and  C_23
REMARK    4  A    between atoms: C_26  and  O_29
REMARK    5  A    between atoms: O_29  and  C_30
REMARK                            x       y       z     vdW  Elec       q    Type
REMARK                         _______ _______ _______ _____ _____    ______ ____
ROOT
ATOM      1  N   UNL     1      -4.996  -2.906  32.169  0.00  0.00    -0.179 N 
ATOM      2  C   UNL     1      -4.000  -3.845  31.814  0.00  0.00    +0.066 C 
ATOM      3  C   UNL     1      -4.063  -4.963  32.667  0.00  0.00    +0.002 C 
ATOM      4  C   UNL     1      -3.096  -5.966  32.541  0.00  0.00    -0.003 C 
ATOM      5  C   UNL     1      -2.083  -5.940  31.634  0.00  0.00    -0.001 C 
ATOM      6  C   UNL     1      -2.050  -4.823  30.789  0.00  0.00    -0.003 C 
ATOM      7  C   UNL     1      -2.987  -3.839  30.895  0.00  0.00    -0.007 C 
ATOM      8  C   UNL     1      -5.312  -4.887  33.468  0.00  0.00    +0.115 C 
ATOM      9  C   UNL     1      -5.722  -3.484  33.276  0.00  0.00    +0.250 C 
ATOM     10  O   UNL     1      -6.569  -2.846  33.939  0.00  0.00    -0.273 OA
ENDROOT
BRANCH   1  11
ATOM     11  N   UNL     1      -5.125  -1.599  31.727  0.00  0.00    -0.172 N 
ATOM     12  C   UNL     1      -6.119  -0.773  31.561  0.00  0.00    +0.174 C 
ATOM     13  N   UNL     1      -7.479  -0.845  31.713  0.00  0.00    -0.206 NA
ATOM     14  C   UNL     1      -8.284   0.199  31.479  0.00  0.00    +0.200 C 
ATOM     15  N   UNL     1      -7.765   1.371  31.076  0.00  0.00    -0.221 NA
ATOM     16  C   UNL     1      -6.457   1.506  30.906  0.00  0.00    +0.123 C 
ATOM     17  C   UNL     1      -5.607   0.441  31.146  0.00  0.00    +0.135 C 
ATOM     18  N   UNL     1      -4.283   0.338  31.054  0.00  0.00    -0.222 NA
ATOM     19  C   UNL     1      -3.961  -0.903  31.404  0.00  0.00    +0.187 C 
ENDBRANCH   1  11
BRANCH   7  20
ATOM     20  C   UNL     1      -2.958  -2.776  29.806  0.00  0.00    +0.028 C 
ATOM     21  C   UNL     1      -2.142  -3.404  28.663  0.00  0.00    +0.027 C 
ATOM     22  C   UNL     1      -3.577  -2.986  28.502  0.00  0.00    +0.009 C 
BRANCH  21  23
ATOM     23  C   UNL     1      -1.092  -2.957  27.839  0.00  0.00    -0.022 C 
ATOM     24  C   UNL     1       0.206  -3.340  28.153  0.00  0.00    -0.001 C 
ATOM     25  C   UNL     1       1.257  -3.125  27.317  0.00  0.00    +0.037 C 
ATOM     26  C   UNL     1       1.053  -2.503  26.112  0.00  0.00    +0.149 C 
ATOM     27  C   UNL     1      -0.224  -2.119  25.800  0.00  0.00    +0.037 C 
ATOM     28  C   UNL     1      -1.303  -2.320  26.610  0.00  0.00    -0.001 C 
BRANCH  26  29
ATOM     29  O   UNL     1       2.156  -2.296  25.262  0.00  0.00    -0.417 OA
BRANCH  29  30
ATOM     30  C   UNL     1       3.077  -1.358  25.779  0.00  0.00    +0.423 C 
ATOM     31  O   UNL     1       2.858  -0.748  26.855  0.00  0.00    -0.237 OA
ENDBRANCH  29  30
ENDBRANCH  26  29
ENDBRANCH  21  23
ENDBRANCH   7  20
TORSDOF 5
