REMARK  Name = =
REMARK  7 active torsions:
REMARK  status: ('A' for Active; 'I' for Inactive)
REMARK    1  A    between atoms: S_1  and  C_4
REMARK    2  A    between atoms: S_1  and  C_10
REMARK    3  A    between atoms: S_1  and  S_13
REMARK    4  A    between atoms: C_6  and  O_9
REMARK    5  A    between atoms: C_10  and  N_12
REMARK    6  A    between atoms: S_13  and  C_14
REMARK    7  A    between atoms: C_14  and  N_16
REMARK                            x       y       z     vdW  Elec       q    Type
REMARK                         _______ _______ _______ _____ _____    ______ ____
ROOT
ATOM      1  S   UNL     1     -11.557  -0.976  28.992  0.00  0.00    -0.121 S 
ATOM      2  H   UNL     1     -10.684  -1.731  29.712  0.00  0.00    +0.104 HD
ENDROOT
BRANCH   1   5
ATOM      3  F   UNL     1     -11.160  -3.629  27.881  0.00  0.00    -0.204 F 
ATOM      4  C   UNL     1     -11.798  -2.775  27.042  0.00  0.00    +0.145 C 
ATOM      5  C   UNL     1     -12.062  -1.467  27.432  0.00  0.00    +0.050 C 
ATOM      6  C   UNL     1     -12.715  -0.663  26.519  0.00  0.00    +0.044 C 
ATOM      7  C   UNL     1     -13.100  -1.104  25.273  0.00  0.00    +0.134 C 
ATOM      8  C   UNL     1     -12.816  -2.413  24.932  0.00  0.00    +0.039 C 
ATOM      9  C   UNL     1     -12.165  -3.259  25.806  0.00  0.00    +0.033 C 
BRANCH   7  10
ATOM     10  O   UNL     1     -13.757  -0.255  24.389  0.00  0.00    -0.505 OA
ATOM     11  H   UNL     1     -13.941   0.629  24.638  0.00  0.00    +0.292 HD
ENDBRANCH   7  10
ENDBRANCH   1   5
BRANCH   1  12
ATOM     12  C   UNL     1     -10.618   0.423  28.782  0.00  0.00    +0.098 C 
ATOM     13  S   UNL     1     -11.251   1.886  29.088  0.00  0.00    -0.029 S 
BRANCH  12  14
ATOM     14  N   UNL     1      -9.281   0.336  28.344  0.00  0.00    -0.348 N 
ATOM     15  H   UNL     1      -8.882  -0.544  28.154  0.00  0.00    +0.143 HD
ATOM     16  H   UNL     1      -8.747   1.155  28.228  0.00  0.00    +0.143 HD
ENDBRANCH  12  14
ENDBRANCH   1  12
BRANCH   1  17
ATOM     17  S   UNL     1     -12.875  -1.062  29.917  0.00  0.00    -0.046 S 
BRANCH  17  18
ATOM     18  C   UNL     1     -12.954  -1.651  31.444  0.00  0.00    +0.114 C 
ATOM     19  S   UNL     1     -11.752  -2.573  32.117  0.00  0.00    -0.028 S 
BRANCH  18  20
ATOM     20  N   UNL     1     -14.042  -1.418  32.330  0.00  0.00    -0.346 N 
ATOM     21  H   UNL     1     -14.812  -0.881  32.033  0.00  0.00    +0.143 HD
ATOM     22  H   UNL     1     -14.025  -1.793  33.240  0.00  0.00    +0.143 HD
ENDBRANCH  18  20
ENDBRANCH  17  18
ENDBRANCH   1  17
TORSDOF 7
