REMARK  Name = =
REMARK  9 active torsions:
REMARK  status: ('A' for Active; 'I' for Inactive)
REMARK    1  A    between atoms: C_3  and  S_17
REMARK    2  A    between atoms: C_5  and  O_16
REMARK    3  A    between atoms: C_7  and  C_8
REMARK    4  A    between atoms: C_11  and  O_15
REMARK    5  A    between atoms: S_17  and  C_18
REMARK    6  A    between atoms: S_17  and  S_21
REMARK    7  A    between atoms: C_18  and  N_20
REMARK    8  A    between atoms: S_21  and  C_22
REMARK    9  A    between atoms: C_22  and  N_24
REMARK                            x       y       z     vdW  Elec       q    Type
REMARK                         _______ _______ _______ _____ _____    ______ ____
ROOT
ATOM      1  F   UNL     1     -11.583   0.651  26.015  0.00  0.00    -0.204 F 
ATOM      2  C   UNL     1     -12.252  -0.522  26.107  0.00  0.00    +0.145 C 
ATOM      3  C   UNL     1     -12.728  -0.898  27.336  0.00  0.00    +0.050 C 
ATOM      4  C   UNL     1     -13.404  -2.084  27.438  0.00  0.00    +0.044 C 
ATOM      5  C   UNL     1     -13.583  -2.851  26.318  0.00  0.00    +0.134 C 
ATOM      6  C   UNL     1     -13.101  -2.463  25.087  0.00  0.00    +0.039 C 
ATOM      7  C   UNL     1     -12.425  -1.293  24.947  0.00  0.00    +0.031 C 
ENDROOT
BRANCH   7   8
ATOM      8  C   UNL     1     -11.870  -0.778  23.704  0.00  0.00    +0.003 C 
ATOM      9  C   UNL     1     -10.909  -1.486  22.994  0.00  0.00    +0.010 C 
ATOM     10  C   UNL     1     -10.367  -1.015  21.807  0.00  0.00    +0.068 C 
ATOM     11  C   UNL     1     -10.784   0.196  21.300  0.00  0.00    +0.140 C 
ATOM     12  C   UNL     1     -11.738   0.923  21.981  0.00  0.00    +0.037 C 
ATOM     13  C   UNL     1     -12.263   0.429  23.165  0.00  0.00    +0.003 C 
ATOM     14 BR   UNL     1      -9.054  -1.979  20.833  0.00  0.00    -0.046 Br
BRANCH  11  15
ATOM     15  O   UNL     1     -10.273   0.702  20.126  0.00  0.00    -0.505 OA
ATOM     16  H   UNL     1      -9.624   0.220  19.651  0.00  0.00    +0.292 HD
ENDBRANCH  11  15
ENDBRANCH   7   8
BRANCH   5  17
ATOM     17  O   UNL     1     -14.272  -4.048  26.447  0.00  0.00    -0.505 OA
ATOM     18  H   UNL     1     -14.600  -4.312  27.284  0.00  0.00    +0.292 HD
ENDBRANCH   5  17
BRANCH   3  19
ATOM     19  S   UNL     1     -12.535   0.109  28.803  0.00  0.00    -0.121 S 
ATOM     20  H   UNL     1     -13.155   1.289  29.072  0.00  0.00    +0.104 HD
BRANCH  19  21
ATOM     21  C   UNL     1     -12.762  -1.133  30.062  0.00  0.00    +0.098 C 
ATOM     22  S   UNL     1     -14.052  -1.092  31.037  0.00  0.00    -0.029 S 
BRANCH  21  23
ATOM     23  N   UNL     1     -11.791  -2.145  30.191  0.00  0.00    -0.348 N 
ATOM     24  H   UNL     1     -11.011  -2.158  29.591  0.00  0.00    +0.143 HD
ATOM     25  H   UNL     1     -11.893  -2.839  30.881  0.00  0.00    +0.143 HD
ENDBRANCH  21  23
ENDBRANCH  19  21
BRANCH  19  26
ATOM     26  S   UNL     1     -10.612  -0.165  28.397  0.00  0.00    -0.046 S 
BRANCH  26  27
ATOM     27  C   UNL     1      -9.764   1.070  29.052  0.00  0.00    +0.114 C 
ATOM     28  S   UNL     1     -10.466   2.303  29.913  0.00  0.00    -0.028 S 
BRANCH  27  29
ATOM     29  N   UNL     1      -8.345   1.195  28.940  0.00  0.00    -0.346 N 
ATOM     30  H   UNL     1      -7.828   0.516  28.449  0.00  0.00    +0.143 HD
ATOM     31  H   UNL     1      -7.884   1.960  29.354  0.00  0.00    +0.143 HD
ENDBRANCH  27  29
ENDBRANCH  26  27
ENDBRANCH  19  26
ENDBRANCH   3  19
TORSDOF 9
