REMARK  Name = =
REMARK  4 active torsions:
REMARK  status: ('A' for Active; 'I' for Inactive)
REMARK    1  A    between atoms: C_1  and  N_17
REMARK    2  A    between atoms: C_7  and  C_18
REMARK    3  A    between atoms: N_20  and  C_21
REMARK    4  A    between atoms: N_20  and  C_27
REMARK                            x       y       z     vdW  Elec       q    Type
REMARK                         _______ _______ _______ _____ _____    ______ ____
ROOT
ATOM      1  C   UNL     1     -23.785 -42.780  23.065  0.00  0.00    +0.086 C 
ATOM      2  C   UNL     1     -23.443 -42.988  21.711  0.00  0.00    +0.148 C 
ATOM      3  C   UNL     1     -24.374 -43.107  20.725  0.00  0.00    +0.025 C 
ATOM      4  C   UNL     1     -25.713 -43.020  21.057  0.00  0.00    -0.001 C 
ATOM      5  C   UNL     1     -26.118 -42.819  22.345  0.00  0.00    +0.001 C 
ATOM      6  C   UNL     1     -25.123 -42.704  23.327  0.00  0.00    +0.018 C 
ATOM      7  C   UNL     1     -23.630 -43.298  19.458  0.00  0.00    +0.146 C 
ATOM      8  C   UNL     1     -22.315 -43.840  19.938  0.00  0.00    +0.219 C 
ATOM      9  O   UNL     1     -22.150 -43.104  21.162  0.00  0.00    -0.474 OA
ENDROOT
BRANCH   1  17
ATOM     10  N   UNL     1     -20.817 -41.580  25.150  0.00  0.00    -0.214 N 
ATOM     11  C   UNL     1     -19.772 -40.672  25.534  0.00  0.00    +0.112 C 
ATOM     12  C   UNL     1     -19.951 -41.245  26.932  0.00  0.00    +0.108 C 
ATOM     13  C   UNL     1     -20.413 -42.451  26.186  0.00  0.00    +0.234 C 
ATOM     14  O   UNL     1     -20.434 -43.671  26.386  0.00  0.00    -0.274 OA
ATOM     15  C   UNL     1     -21.840 -41.598  24.146  0.00  0.00    +0.314 C 
ATOM     16  O   UNL     1     -21.915 -40.623  23.373  0.00  0.00    -0.252 OA
ATOM     17  N   UNL     1     -22.741 -42.671  24.022  0.00  0.00    -0.265 N 
ATOM     18  H   UNL     1     -22.638 -43.416  24.658  0.00  0.00    +0.157 HD
ENDBRANCH   1  17
BRANCH   7  19
ATOM     19  C   UNL     1     -24.306 -44.096  18.443  0.00  0.00    +0.238 C 
ATOM     20  O   UNL     1     -23.992 -45.354  18.449  0.00  0.00    -0.274 OA
ATOM     21  N   UNL     1     -25.233 -43.711  17.475  0.00  0.00    -0.237 N 
BRANCH  21  22
ATOM     22  C   UNL     1     -25.807 -42.435  17.279  0.00  0.00    +0.056 C 
ATOM     23  C   UNL     1     -25.140 -41.444  16.545  0.00  0.00    +0.015 C 
ATOM     24  C   UNL     1     -25.708 -40.195  16.360  0.00  0.00    +0.001 C 
ATOM     25  C   UNL     1     -26.948 -39.879  16.887  0.00  0.00    +0.000 C 
ATOM     26  C   UNL     1     -27.600 -40.846  17.604  0.00  0.00    +0.001 C 
ATOM     27  C   UNL     1     -27.031 -42.081  17.784  0.00  0.00    +0.015 C 
ENDBRANCH  21  22
BRANCH  21  28
ATOM     28  C   UNL     1     -25.685 -44.745  16.524  0.00  0.00    +0.188 C 
ATOM     29  S   UNL     1     -27.321 -45.353  17.015  0.00  0.00    -0.103 S 
ATOM     30  C   UNL     1     -28.129 -45.147  15.412  0.00  0.00    +0.078 C 
ATOM     31  C   UNL     1     -27.047 -44.596  14.565  0.00  0.00    +0.082 C 
ATOM     32  N   UNL     1     -25.882 -44.256  15.236  0.00  0.00    -0.273 NA
ATOM     33  H   UNL     1     -25.855 -43.238  15.294  0.00  0.00    +0.126 HD
ENDBRANCH  21  28
ENDBRANCH   7  19
TORSDOF 4
