MODEL 1
REMARK VINA RESULT:    -7.445      0.000      0.000
REMARK INTER + INTRA:          -9.358
REMARK INTER:                  -8.751
REMARK INTRA:                  -0.608
REMARK UNBOUND:                -0.608
REMARK  Name = =
REMARK  3 active torsions:
REMARK  status: ('A' for Active; 'I' for Inactive)
REMARK    1  A    between atoms: C_1  and  C_18
REMARK    2  A    between atoms: C_7  and  S_8
REMARK    3  A    between atoms: C_10  and  C_11
REMARK                            x       y       z     vdW  Elec       q    Type
REMARK                         _______ _______ _______ _____ _____    ______ ____
ROOT
ATOM      1  C   UNL     1      53.993 161.317  41.628  0.00  0.00    +0.039 C 
ATOM      2  C   UNL     1      53.623 162.773  41.593  0.00  0.00    +0.006 C 
ATOM      3  C   UNL     1      54.840 163.622  41.314  0.00  0.00    +0.001 C 
ATOM      4  C   UNL     1      55.750 163.506  42.517  0.00  0.00    +0.004 C 
ATOM      5  C   UNL     1      56.257 162.095  42.671  0.00  0.00    +0.023 C 
ATOM      6  C   UNL     1      55.422 161.103  41.936  0.00  0.00    -0.038 C 
ATOM      7  C   UNL     1      56.005 159.988  41.551  0.00  0.00    +0.002 C 
ENDROOT
BRANCH   1  10
ATOM      8  N   UNL     1      51.675 160.553  42.357  0.00  0.00    -0.291 N 
ATOM      9  C   UNL     1      52.543 159.328  42.358  0.00  0.00    +0.112 C 
ATOM     10  C   UNL     1      53.086 160.632  42.630  0.00  0.00    +0.098 C 
ATOM     11  N   UNL     1      50.089 162.048  41.441  0.00  0.00    -0.209 NA
ATOM     12  C   UNL     1      48.841 162.487  41.202  0.00  0.00    +0.200 C 
ATOM     13  N   UNL     1      47.753 161.829  41.673  0.00  0.00    -0.222 NA
ATOM     14  C   UNL     1      47.946 160.716  42.394  0.00  0.00    +0.104 C 
ATOM     15  C   UNL     1      49.228 160.269  42.635  0.00  0.00    +0.055 C 
ATOM     16  C   UNL     1      50.338 160.936  42.158  0.00  0.00    +0.135 C 
ENDBRANCH   1  10
BRANCH   7  17
ATOM     17  S   UNL     1      57.761 159.696  41.914  0.00  0.00    -0.207 S 
ATOM     18  C   UNL     1      58.356 158.047  41.632  0.00  0.00    +0.050 C 
ATOM     19  C   UNL     1      58.819 159.119  40.701  0.00  0.00    +0.041 C 
ATOM     20  H   UNL     1      57.773 160.674  42.860  0.00  0.00    +0.088 HD
BRANCH  19  21
ATOM     21  C   UNL     1      60.257 159.515  40.782  0.00  0.00    +0.009 C 
ATOM     22  C   UNL     1      61.127 159.238  41.735  0.00  0.00    +0.001 C 
ATOM     23  C   UNL     1      62.470 159.802  41.471  0.00  0.00    +0.000 C 
ATOM     24  C   UNL     1      62.437 160.124  40.012  0.00  0.00    +0.000 C 
ATOM     25  C   UNL     1      60.949 160.314  39.746  0.00  0.00    +0.001 C 
ENDBRANCH  19  21
ENDBRANCH   7  17
TORSDOF 3
ENDMDL
