REMARK  Name = =
REMARK  3 active torsions:
REMARK  status: ('A' for Active; 'I' for Inactive)
REMARK    1  A    between atoms: C_1  and  C_18
REMARK    2  A    between atoms: C_7  and  S_8
REMARK    3  A    between atoms: C_10  and  C_11
REMARK                            x       y       z     vdW  Elec       q    Type
REMARK                         _______ _______ _______ _____ _____    ______ ____
ROOT
ATOM      1  C   UNL     1      53.047 154.851  27.429  0.00  0.00    +0.039 C 
ATOM      2  C   UNL     1      53.849 154.877  26.159  0.00  0.00    +0.006 C 
ATOM      3  C   UNL     1      54.328 156.278  25.864  0.00  0.00    +0.001 C 
ATOM      4  C   UNL     1      53.105 157.108  25.540  0.00  0.00    +0.004 C 
ATOM      5  C   UNL     1      52.203 157.224  26.741  0.00  0.00    +0.023 C 
ATOM      6  C   UNL     1      52.467 156.169  27.760  0.00  0.00    -0.038 C 
ATOM      7  C   UNL     1      52.162 156.443  29.010  0.00  0.00    +0.002 C 
ENDROOT
BRANCH   1  10
ATOM      8  N   UNL     1      52.380 152.442  26.936  0.00  0.00    -0.291 N 
ATOM      9  C   UNL     1      51.819 152.767  28.290  0.00  0.00    +0.112 C 
ATOM     10  C   UNL     1      51.983 153.781  27.283  0.00  0.00    +0.098 C 
ATOM     11  N   UNL     1      53.973 151.531  25.445  0.00  0.00    -0.209 NA
ATOM     12  C   UNL     1      54.510 150.544  24.708  0.00  0.00    +0.200 C 
ATOM     13  N   UNL     1      53.968 149.302  24.679  0.00  0.00    -0.222 NA
ATOM     14  C   UNL     1      52.869 149.071  25.410  0.00  0.00    +0.104 C 
ATOM     15  C   UNL     1      52.322 150.086  26.166  0.00  0.00    +0.055 C 
ATOM     16  C   UNL     1      52.871 151.352  26.197  0.00  0.00    +0.135 C 
ENDBRANCH   1  10
BRANCH   7  17
ATOM     17  S   UNL     1      51.448 158.056  29.449  0.00  0.00    -0.207 S 
ATOM     18  C   UNL     1      49.706 158.245  29.166  0.00  0.00    +0.050 C 
ATOM     19  C   UNL     1      50.173 158.166  30.582  0.00  0.00    +0.041 C 
ATOM     20  H   UNL     1      52.629 158.690  29.217  0.00  0.00    +0.088 HD
BRANCH  19  21
ATOM     21  C   UNL     1      50.072 159.411  31.401  0.00  0.00    +0.009 C 
ATOM     22  C   UNL     1      49.421 159.591  32.536  0.00  0.00    +0.001 C 
ATOM     23  C   UNL     1      49.548 160.969  33.061  0.00  0.00    +0.000 C 
ATOM     24  C   UNL     1      50.717 161.525  32.313  0.00  0.00    +0.000 C 
ATOM     25  C   UNL     1      50.727 160.688  31.040  0.00  0.00    +0.001 C 
ENDBRANCH  19  21
ENDBRANCH   7  17
TORSDOF 3
