REMARK  Name = =
REMARK  1 active torsions:
REMARK  status: ('A' for Active; 'I' for Inactive)
REMARK    1  A    between atoms: S_1  and  C_2
REMARK                            x       y       z     vdW  Elec       q    Type
REMARK                         _______ _______ _______ _____ _____    ______ ____
ROOT
ATOM      1  S   UNL     1      -4.211  -3.887  32.248  0.00  0.00    -0.097 S 
ATOM      2  H   UNL     1      -3.531  -4.620  33.170  0.00  0.00    +0.110 HD
ENDROOT
BRANCH   1   3
ATOM      3  C   UNL     1      -3.898  -4.545  30.615  0.00  0.00    +0.262 C 
ATOM      4  O   UNL     1      -4.415  -4.029  29.647  0.00  0.00    -0.276 OA
ENDBRANCH   1   3
TORSDOF 1
