REMARK  Name = =
REMARK  3 active torsions:
REMARK  status: ('A' for Active; 'I' for Inactive)
REMARK    1  A    between atoms: C_1  and  O_3
REMARK    2  A    between atoms: C_1  and  S_4
REMARK    3  A    between atoms: S_4  and  C_5
REMARK                            x       y       z     vdW  Elec       q    Type
REMARK                         _______ _______ _______ _____ _____    ______ ____
ROOT
ATOM      1  C   UNL     1      -4.298  -5.277  32.826  0.00  0.00    +0.374 C 
ATOM      2  O   UNL     1      -4.027  -5.944  31.794  0.00  0.00    -0.237 OA
ENDROOT
BRANCH   1   3
ATOM      3  O   UNL     1      -4.210  -5.920  34.051  0.00  0.00    -0.472 OA
ATOM      4  H   UNL     1      -4.405  -5.454  34.840  0.00  0.00    +0.296 HD
ENDBRANCH   1   3
BRANCH   1   5
ATOM      5  S   UNL     1      -4.780  -3.560  32.722  0.00  0.00    +0.038 S 
BRANCH   5   6
ATOM      6  C   UNL     1      -4.126  -2.878  31.209  0.00  0.00    +0.276 C 
ATOM      7  O   UNL     1      -2.936  -2.696  31.044  0.00  0.00    -0.275 OA
ENDBRANCH   5   6
ENDBRANCH   1   5
TORSDOF 3
