MODEL 1
REMARK VINA RESULT:   -10.501      0.000      0.000
REMARK INTER + INTRA:         -19.012
REMARK INTER:                 -16.333
REMARK INTRA:                  -2.679
REMARK UNBOUND:                -2.679
REMARK  Name = =
REMARK  10 active torsions:
REMARK  status: ('A' for Active; 'I' for Inactive)
REMARK    1  A    between atoms: S_1  and  C_2
REMARK    2  A    between atoms: S_1  and  C_4
REMARK    3  A    between atoms: C_2  and  C_24
REMARK    4  A    between atoms: C_2  and  N_31
REMARK    5  A    between atoms: C_3  and  O_9
REMARK    6  A    between atoms: O_9  and  C_10
REMARK    7  A    between atoms: C_27  and  O_30
REMARK    8  A    between atoms: N_31  and  C_32
REMARK    9  A    between atoms: C_37  and  C_39
REMARK   10  A    between atoms: C_40  and  C_41
REMARK                            x       y       z     vdW  Elec       q    Type
REMARK                         _______ _______ _______ _____ _____    ______ ____
ROOT
ATOM      1  S   UNL     1      -1.390  -7.326  29.148  0.00  0.00    -0.160 S 
ATOM      2  H   UNL     1      -1.630  -6.049  28.747  0.00  0.00    +0.099 HD
ENDROOT
BRANCH   1   4
ATOM      3  C   UNL     1       0.846  -6.957  27.586  0.00  0.00    +0.153 C 
ATOM      4  C   UNL     1       0.013  -7.941  28.168  0.00  0.00    +0.068 C 
ATOM      5  C   UNL     1       0.207  -9.290  28.023  0.00  0.00    +0.107 C 
ATOM      6  N   UNL     1       1.243  -9.709  27.288  0.00  0.00    -0.242 NA
ATOM      7  C   UNL     1       2.075  -8.830  26.708  0.00  0.00    +0.102 C 
ATOM      8  C   UNL     1       1.899  -7.446  26.842  0.00  0.00    +0.059 C 
BRANCH   3   9
ATOM      9  O   UNL     1       0.541  -5.683  27.803  0.00  0.00    -0.453 OA
BRANCH   9  10
ATOM     10  C   UNL     1       0.752  -4.487  27.258  0.00  0.00    +0.147 C 
ATOM     11  C   UNL     1      -0.212  -3.481  27.571  0.00  0.00    +0.036 C 
ATOM     12  C   UNL     1      -0.058  -2.218  27.049  0.00  0.00    +0.022 C 
ATOM     13  C   UNL     1       0.987  -1.890  26.242  0.00  0.00    +0.099 C 
ATOM     14  N   UNL     1       1.117  -0.653  25.747  0.00  0.00    -0.241 NA
ATOM     15  C   UNL     1       2.131  -0.293  24.950  0.00  0.00    +0.119 C 
ATOM     16  C   UNL     1       3.085  -1.228  24.622  0.00  0.00    +0.119 C 
ATOM     17  N   UNL     1       2.964  -2.483  25.117  0.00  0.00    -0.241 NA
ATOM     18  C   UNL     1       1.927  -2.816  25.920  0.00  0.00    +0.102 C 
ATOM     19  C   UNL     1       1.796  -4.103  26.432  0.00  0.00    +0.058 C 
ATOM     20  C   UNL     1      -0.968  -1.211  27.327  0.00  0.00    +0.002 C 
ATOM     21  C   UNL     1      -2.035  -1.492  28.139  0.00  0.00    +0.000 C 
ATOM     22  C   UNL     1      -2.184  -2.766  28.662  0.00  0.00    +0.000 C 
ATOM     23  C   UNL     1      -1.284  -3.759  28.385  0.00  0.00    +0.003 C 
ENDBRANCH   9  10
ENDBRANCH   3   9
ENDBRANCH   1   4
BRANCH   1  24
ATOM     24  C   UNL     1      -1.255  -7.302  30.768  0.00  0.00    +0.118 C 
BRANCH  24  25
ATOM     25  C   UNL     1      -0.037  -6.809  31.371  0.00  0.00    +0.002 C 
ATOM     26  C   UNL     1       0.700  -5.736  30.880  0.00  0.00    +0.001 C 
ATOM     27  C   UNL     1       1.854  -5.317  31.503  0.00  0.00    +0.036 C 
ATOM     28  C   UNL     1       2.335  -5.930  32.633  0.00  0.00    +0.134 C 
ATOM     29  C   UNL     1       1.605  -7.008  33.137  0.00  0.00    +0.036 C 
ATOM     30  C   UNL     1       0.448  -7.419  32.502  0.00  0.00    +0.001 C 
BRANCH  28  31
ATOM     31  O   UNL     1       3.501  -5.519  33.277  0.00  0.00    -0.506 OA
ATOM     32  H   UNL     1       4.162  -5.056  32.800  0.00  0.00    +0.292 HD
ENDBRANCH  28  31
ENDBRANCH  24  25
BRANCH  24  33
ATOM     33  N   UNL     1      -2.357  -7.771  31.574  0.00  0.00    -0.283 NA
ATOM     34  H   UNL     1      -2.102  -7.578  32.542  0.00  0.00    +0.125 HD
BRANCH  33  35
ATOM     35  C   UNL     1      -3.689  -7.284  31.410  0.00  0.00    +0.107 C 
ATOM     36  C   UNL     1      -4.469  -7.587  32.704  0.00  0.00    +0.161 C 
ATOM     37  O   UNL     1      -3.582  -7.862  33.859  0.00  0.00    -0.352 OA
ATOM     38  C   UNL     1      -4.315  -6.681  33.720  0.00  0.00    +0.148 C 
ATOM     39  C   UNL     1      -3.494  -5.401  33.510  0.00  0.00    +0.058 C 
ATOM     40  C   UNL     1      -3.717  -4.889  32.154  0.00  0.00    -0.022 C 
ATOM     41  C   UNL     1      -3.802  -5.840  31.192  0.00  0.00    -0.012 C 
BRANCH  40  42
ATOM     42  C   UNL     1      -3.858  -3.511  31.799  0.00  0.00    -0.001 C 
ATOM     43  C   UNL     1      -4.836  -2.721  31.657  0.00  0.00    +0.045 C 
BRANCH  43  44
ATOM     44  C   UNL     1      -6.256  -2.727  31.762  0.00  0.00    +0.234 C 
ATOM     45  O   UNL     1      -7.165  -2.304  31.053  0.00  0.00    -0.283 OA
ENDBRANCH  43  44
ENDBRANCH  40  42
ENDBRANCH  33  35
ENDBRANCH  24  33
ENDBRANCH   1  24
TORSDOF 10
ENDMDL
