REMARK  Name = =
REMARK  14 active torsions:
REMARK  status: ('A' for Active; 'I' for Inactive)
REMARK    1  A    between atoms: C_1  and  N_13
REMARK    2  A    between atoms: C_1  and  O_19
REMARK    3  A    between atoms: C_4  and  O_31
REMARK    4  A    between atoms: N_13  and  N_17
REMARK    5  A    between atoms: O_19  and  P_20
REMARK    6  A    between atoms: P_20  and  C_22
REMARK    7  A    between atoms: P_20  and  O_30
REMARK    8  A    between atoms: C_22  and  P_26
REMARK    9  A    between atoms: C_23  and  C_24
REMARK   10  A    between atoms: P_26  and  O_28
REMARK   11  A    between atoms: P_26  and  O_29
REMARK   12  A    between atoms: O_31  and  P_32
REMARK   13  A    between atoms: P_32  and  O_34
REMARK   14  A    between atoms: P_32  and  O_35
REMARK                            x       y       z     vdW  Elec       q    Type
REMARK                         _______ _______ _______ _____ _____    ______ ____
ROOT
ATOM      1  C   UNL     1       3.733  -4.740  22.245  0.00  0.00    +0.205 C 
ATOM      2  C   UNL     1       3.011  -3.441  22.090  0.00  0.00    +0.083 C 
ATOM      3  C   UNL     1       1.725  -3.793  21.455  0.00  0.00    +0.017 C 
ATOM      4  C   UNL     1       0.624  -3.011  21.082  0.00  0.00    +0.145 C 
ATOM      5  C   UNL     1      -0.430  -3.717  20.459  0.00  0.00    +0.037 C 
ATOM      6  C   UNL     1      -0.424  -5.059  20.218  0.00  0.00    +0.003 C 
ATOM      7  C   UNL     1       0.686  -5.777  20.608  0.00  0.00    -0.000 C 
ATOM      8  C   UNL     1       0.801  -7.155  20.416  0.00  0.00    -0.000 C 
ATOM      9  C   UNL     1       1.935  -7.819  20.831  0.00  0.00    -0.000 C 
ATOM     10  C   UNL     1       2.953  -7.117  21.436  0.00  0.00    -0.000 C 
ATOM     11  C   UNL     1       2.870  -5.742  21.644  0.00  0.00    +0.022 C 
ATOM     12  C   UNL     1       1.729  -5.125  21.215  0.00  0.00    -0.001 C 
ENDROOT
BRANCH   1  13
ATOM     13  N   UNL     1       5.005  -4.610  21.514  0.00  0.00    -0.139 N 
ATOM     14  C   UNL     1       6.001  -3.799  22.111  0.00  0.00    +0.319 C 
ATOM     15  O   UNL     1       7.113  -3.645  21.535  0.00  0.00    -0.251 OA
ATOM     16  N   UNL     1       5.825  -3.129  23.344  0.00  0.00    -0.312 N 
ATOM     17  H   UNL     1       4.976  -3.216  23.835  0.00  0.00    +0.147 HD
ATOM     18  H   UNL     1       6.552  -2.576  23.712  0.00  0.00    +0.147 HD
BRANCH  13  19
ATOM     19  N   UNL     1       5.235  -5.238  20.310  0.00  0.00    +0.056 NA
ATOM     20  O   UNL     1       4.966  -4.653  19.227  0.00  0.00    -0.078 OA
ENDBRANCH  13  19
ENDBRANCH   1  13
BRANCH   1  21
ATOM     21  O   UNL     1       4.101  -5.011  23.552  0.00  0.00    -0.272 OA
BRANCH  21  22
ATOM     22  P   UNL     1       2.854  -4.969  24.649  0.00  0.00    +0.371 P 
ATOM     23  O   UNL     1       2.119  -3.645  24.613  0.00  0.00    -0.253 OA
BRANCH  22  24
ATOM     24  C   UNL     1       3.599  -5.077  26.299  0.00  0.00    +0.163 C 
ATOM     25  C   UNL     1       4.893  -4.989  26.382  0.00  0.00    +0.060 C 
BRANCH  25  26
ATOM     26  C   UNL     1       5.699  -5.048  27.581  0.00  0.00    +0.235 C 
ATOM     27  O   UNL     1       5.311  -4.495  28.631  0.00  0.00    -0.283 OA
ENDBRANCH  25  26
BRANCH  24  28
ATOM     28  P   UNL     1       2.598  -5.295  27.738  0.00  0.00    +0.367 P 
ATOM     29  O   UNL     1       2.531  -4.005  28.528  0.00  0.00    -0.253 OA
BRANCH  28  30
ATOM     30  O   UNL     1       3.291  -6.468  28.736  0.00  0.00    -0.321 OA
ATOM     31  H   UNL     1       4.192  -6.199  28.974  0.00  0.00    +0.220 HD
ENDBRANCH  28  30
BRANCH  28  32
ATOM     32  O   UNL     1       1.022  -5.780  27.330  0.00  0.00    -0.321 OA
ATOM     33  H   UNL     1       0.616  -5.111  26.756  0.00  0.00    +0.220 HD
ENDBRANCH  28  32
ENDBRANCH  24  28
ENDBRANCH  22  24
BRANCH  22  34
ATOM     34  O   UNL     1       1.737  -6.227  24.437  0.00  0.00    -0.320 OA
ATOM     35  H   UNL     1       1.342  -6.164  23.553  0.00  0.00    +0.220 HD
ENDBRANCH  22  34
ENDBRANCH  21  22
ENDBRANCH   1  21
BRANCH   4  36
ATOM     36  O   UNL     1       0.469  -1.699  21.250  0.00  0.00    -0.403 OA
BRANCH  36  37
ATOM     37  P   UNL     1       0.443  -0.683  22.541  0.00  0.00    +0.528 P 
ATOM     38  O   UNL     1       1.716   0.146  22.766  0.00  0.00    -0.216 OA
BRANCH  37  39
ATOM     39  O   UNL     1       0.096  -1.432  24.045  0.00  0.00    -0.293 OA
ATOM     40  H   UNL     1       0.756  -2.120  24.223  0.00  0.00    +0.223 HD
ENDBRANCH  37  39
BRANCH  37  41
ATOM     41  O   UNL     1      -0.810   0.509  22.368  0.00  0.00    -0.293 OA
ATOM     42  H   UNL     1      -0.689   0.986  21.532  0.00  0.00    +0.223 HD
ENDBRANCH  37  41
ENDBRANCH  36  37
ENDBRANCH   4  36
TORSDOF 14
