MODEL 1
REMARK VINA RESULT:    -9.836      0.000      0.000
REMARK INTER + INTRA:         -16.597
REMARK INTER:                 -15.586
REMARK INTRA:                  -1.011
REMARK UNBOUND:                -1.011
REMARK  Name = =
REMARK  11 active torsions:
REMARK  status: ('A' for Active; 'I' for Inactive)
REMARK    1  A    between atoms: N_1  and  C_8
REMARK    2  A    between atoms: C_3  and  O_20
REMARK    3  A    between atoms: S_7  and  N_14
REMARK    4  A    between atoms: O_20  and  C_21
REMARK    5  A    between atoms: C_22  and  C_29
REMARK    6  A    between atoms: C_24  and  C_27
REMARK    7  A    between atoms: C_29  and  S_33
REMARK    8  A    between atoms: C_30  and  C_31
REMARK    9  A    between atoms: S_33  and  P_34
REMARK   10  A    between atoms: P_34  and  O_36
REMARK   11  A    between atoms: P_34  and  O_37
REMARK                            x       y       z     vdW  Elec       q    Type
REMARK                         _______ _______ _______ _____ _____    ______ ____
ROOT
ATOM      1  N   UNL     1     -12.457 -45.151  29.815  0.00  0.00    -0.163 N 
ATOM      2  N   UNL     1     -12.607 -44.253  28.868  0.00  0.00    -0.090 NA
ATOM      3  C   UNL     1     -13.826 -43.693  28.888  0.00  0.00    +0.422 A 
ATOM      4  O   UNL     1     -14.442 -44.303  29.920  0.00  0.00    -0.358 OA
ATOM      5  C   UNL     1     -13.631 -45.163  30.465  0.00  0.00    +0.442 A 
ATOM      6  O   UNL     1     -13.969 -45.876  31.463  0.00  0.00    -0.221 OA
ENDROOT
BRANCH   1   8
ATOM      7  S   UNL     1     -10.425 -45.129  31.516  0.00  0.00    -0.081 S 
ATOM      8  C   UNL     1     -11.328 -45.976  30.147  0.00  0.00    +0.235 C 
ATOM      9  C   UNL     1     -10.256 -45.882  29.149  0.00  0.00    +0.262 C 
ATOM     10  O   UNL     1     -10.444 -45.454  27.973  0.00  0.00    -0.272 OA
ATOM     11  N   UNL     1      -9.019 -46.319  29.653  0.00  0.00    -0.245 N 
ATOM     12  C   UNL     1      -8.774 -45.921  30.965  0.00  0.00    +0.273 C 
ATOM     13  O   UNL     1      -7.821 -45.973  31.743  0.00  0.00    -0.263 OA
ATOM     14  H   UNL     1     -10.875 -45.274  32.791  0.00  0.00    +0.109 HD
ATOM     15  H   UNL     1      -8.385 -46.858  29.127  0.00  0.00    +0.158 HD
BRANCH   7  16
ATOM     16  N   UNL     1     -10.403 -43.407  31.398  0.00  0.00    -0.235 NA
ATOM     17  C   UNL     1      -9.085 -42.884  31.711  0.00  0.00    +0.099 C 
ATOM     18  C   UNL     1      -8.912 -42.971  33.215  0.00  0.00    +0.087 C 
ATOM     19  N   UNL     1      -9.628 -41.860  33.792  0.00  0.00    -0.295 NA
ATOM     20  C   UNL     1     -10.770 -41.571  32.979  0.00  0.00    +0.087 C 
ATOM     21  C   UNL     1     -11.337 -42.796  32.288  0.00  0.00    +0.099 C 
ATOM     22  H   UNL     1      -9.018 -41.042  33.831  0.00  0.00    +0.123 HD
ENDBRANCH   7  16
ENDBRANCH   1   8
BRANCH   3  23
ATOM     23  O   UNL     1     -14.417 -42.730  28.106  0.00  0.00    -0.408 OA
BRANCH  23  24
ATOM     24  C   UNL     1     -15.755 -42.482  27.972  0.00  0.00    +0.151 C 
ATOM     25  C   UNL     1     -16.312 -42.387  26.672  0.00  0.00    +0.041 C 
ATOM     26  C   UNL     1     -17.639 -42.141  26.500  0.00  0.00    +0.004 C 
ATOM     27  C   UNL     1     -18.497 -41.975  27.607  0.00  0.00    +0.000 C 
ATOM     28  C   UNL     1     -17.978 -42.064  28.877  0.00  0.00    +0.003 C 
ATOM     29  C   UNL     1     -16.628 -42.314  29.022  0.00  0.00    +0.038 C 
BRANCH  27  30
ATOM     30  C   UNL     1     -19.907 -41.713  27.448  0.00  0.00    +0.000 C 
ATOM     31  C   UNL     1     -20.423 -40.675  26.822  0.00  0.00    +0.000 C 
ENDBRANCH  27  30
BRANCH  25  32
ATOM     32  C   UNL     1     -15.405 -42.562  25.532  0.00  0.00    +0.042 C 
ATOM     33  C   UNL     1     -14.849 -43.701  25.295  0.00  0.00    +0.052 C 
BRANCH  33  34
ATOM     34  C   UNL     1     -13.934 -44.072  24.248  0.00  0.00    +0.235 C 
ATOM     35  O   UNL     1     -14.179 -44.431  23.094  0.00  0.00    -0.283 OA
ENDBRANCH  33  34
BRANCH  32  36
ATOM     36  S   UNL     1     -15.076 -41.146  24.501  0.00  0.00    -0.004 S 
BRANCH  36  37
ATOM     37  P   UNL     1     -16.216 -41.021  22.775  0.00  0.00    +0.391 P 
ATOM     38  O   UNL     1     -17.578 -40.417  23.036  0.00  0.00    -0.246 OA
BRANCH  37  39
ATOM     39  O   UNL     1     -16.559 -42.633  22.279  0.00  0.00    -0.316 OA
ATOM     40  H   UNL     1     -17.513 -42.733  22.140  0.00  0.00    +0.221 HD
ENDBRANCH  37  39
BRANCH  37  41
ATOM     41  O   UNL     1     -15.444 -40.285  21.468  0.00  0.00    -0.316 OA
ATOM     42  H   UNL     1     -16.071 -40.192  20.733  0.00  0.00    +0.221 HD
ENDBRANCH  37  41
ENDBRANCH  36  37
ENDBRANCH  32  36
ENDBRANCH  25  32
ENDBRANCH  23  24
ENDBRANCH   3  23
TORSDOF 11
ENDMDL
