REMARK  Name = =
REMARK  3 active torsions:
REMARK  status: ('A' for Active; 'I' for Inactive)
REMARK    1  A    between atoms: C_2  and  O_8
REMARK    2  A    between atoms: O_8  and  N_9
REMARK    3  A    between atoms: N_9  and  N_12
REMARK                            x       y       z     vdW  Elec       q    Type
REMARK                         _______ _______ _______ _____ _____    ______ ____
ROOT
ATOM      1  O   UNL     1     -14.375 -43.475  28.020  0.00  0.00    -0.419 OA
ATOM      2  C   UNL     1     -13.211 -42.907  27.993  0.00  0.00    +0.326 C 
ATOM      3  C   UNL     1     -12.748 -42.480  26.746  0.00  0.00    +0.122 C 
ATOM      4  C   UNL     1     -13.498 -42.656  25.606  0.00  0.00    +0.205 C 
ATOM      5  O   UNL     1     -13.036 -42.255  24.520  0.00  0.00    -0.286 OA
ATOM      6  C   UNL     1     -14.720 -43.269  25.756  0.00  0.00    +0.083 C 
ATOM      7  C   UNL     1     -15.159 -43.686  27.000  0.00  0.00    +0.186 C 
ENDROOT
BRANCH   2   8
ATOM      8  O   UNL     1     -12.433 -42.721  29.153  0.00  0.00    -0.321 OA
BRANCH   8   9
ATOM      9  N   UNL     1     -11.052 -42.832  28.963  0.00  0.00    -0.004 N 
ATOM     10  C   UNL     1     -10.386 -43.984  29.462  0.00  0.00    +0.361 C 
ATOM     11  O   UNL     1      -9.140 -44.125  29.299  0.00  0.00    -0.260 OA
BRANCH   9  12
ATOM     12  N   UNL     1     -10.467 -41.785  28.313  0.00  0.00    -0.137 NA
ATOM     13  C   UNL     1      -9.305 -41.589  27.902  0.00  0.00    +0.144 C 
ENDBRANCH   9  12
ENDBRANCH   8   9
ENDBRANCH   2   8
TORSDOF 3
