REMARK  Name = =
REMARK  6 active torsions:
REMARK  status: ('A' for Active; 'I' for Inactive)
REMARK    1  A    between atoms: N_1  and  C_9
REMARK    2  A    between atoms: C_6  and  S_15
REMARK    3  A    between atoms: C_6  and  S_18
REMARK    4  A    between atoms: S_15  and  S_16
REMARK    5  A    between atoms: S_15  and  S_17
REMARK    6  A    between atoms: S_18  and  C_19
REMARK                            x       y       z     vdW  Elec       q    Type
REMARK                         _______ _______ _______ _____ _____    ______ ____
ROOT
ATOM      1  N   UNL     1     -14.170 -43.671  26.947  0.00  0.00    -0.205 N 
ATOM      2  C   UNL     1     -13.502 -44.782  26.337  0.00  0.00    +0.235 C 
ATOM      3  O   UNL     1     -13.509 -44.831  25.090  0.00  0.00    -0.274 OA
ATOM      4  C   UNL     1     -12.839 -45.816  27.174  0.00  0.00    +0.088 C 
ATOM      5  C   UNL     1     -13.067 -45.519  28.617  0.00  0.00    +0.039 C 
ATOM      6  C   UNL     1     -12.811 -44.113  29.041  0.00  0.00    +0.152 C 
ATOM      7  C   UNL     1     -13.765 -43.257  28.252  0.00  0.00    +0.253 C 
ATOM      8  O   UNL     1     -14.222 -42.177  28.714  0.00  0.00    -0.272 OA
ENDROOT
BRANCH   1   9
ATOM      9  C   UNL     1     -15.203 -43.030  26.224  0.00  0.00    +0.080 C 
ATOM     10  C   UNL     1     -15.082 -42.858  24.869  0.00  0.00    +0.018 C 
ATOM     11  C   UNL     1     -16.089 -42.227  24.156  0.00  0.00    +0.022 C 
ATOM     12  C   UNL     1     -17.224 -41.759  24.780  0.00  0.00    +0.099 C 
ATOM     13  N   UNL     1     -17.325 -41.935  26.110  0.00  0.00    -0.241 NA
ATOM     14  C   UNL     1     -16.343 -42.556  26.821  0.00  0.00    +0.114 C 
ENDBRANCH   1   9
BRANCH   6  15
ATOM     15  S   UNL     1     -11.189 -43.560  28.844  0.00  0.00    -0.136 S 
ATOM     16  H   UNL     1     -10.454 -42.857  29.747  0.00  0.00    +0.105 HD
BRANCH  15  17
ATOM     17  S   UNL     1     -10.351 -45.040  28.776  0.00  0.00    -0.122 S 
ATOM     18  H   UNL     1     -10.972 -45.873  27.899  0.00  0.00    +0.113 HD
ENDBRANCH  15  17
BRANCH  15  19
ATOM     19  S   UNL     1     -11.328 -42.430  27.638  0.00  0.00    -0.122 S 
ATOM     20  H   UNL     1     -12.051 -42.950  26.610  0.00  0.00    +0.113 HD
ENDBRANCH  15  19
ENDBRANCH   6  15
BRANCH   6  21
ATOM     21  S   UNL     1     -13.222 -43.968  30.807  0.00  0.00    -0.052 S 
BRANCH  21  22
ATOM     22  C   UNL     1     -13.507 -45.555  31.549  0.00  0.00    +0.267 C 
ATOM     23  O   UNL     1     -14.296 -45.644  32.471  0.00  0.00    -0.276 OA
ENDBRANCH  21  22
ENDBRANCH   6  21
TORSDOF 6
