REMARK  Name = =
REMARK  6 active torsions:
REMARK  status: ('A' for Active; 'I' for Inactive)
REMARK    1  A    between atoms: N_1  and  C_9
REMARK    2  A    between atoms: C_6  and  S_15
REMARK    3  A    between atoms: C_6  and  S_18
REMARK    4  A    between atoms: S_15  and  S_16
REMARK    5  A    between atoms: S_15  and  S_17
REMARK    6  A    between atoms: S_18  and  C_19
REMARK                            x       y       z     vdW  Elec       q    Type
REMARK                         _______ _______ _______ _____ _____    ______ ____
ROOT
ATOM      1  N   UNL     1     -13.017 -43.230  31.223  0.00  0.00    -0.205 N 
ATOM      2  C   UNL     1     -13.883 -44.154  30.575  0.00  0.00    +0.235 C 
ATOM      3  O   UNL     1     -15.003 -44.421  31.055  0.00  0.00    -0.274 OA
ATOM      4  C   UNL     1     -13.360 -44.757  29.320  0.00  0.00    +0.088 C 
ATOM      5  C   UNL     1     -11.970 -45.256  29.463  0.00  0.00    +0.039 C 
ATOM      6  C   UNL     1     -10.996 -44.283  30.082  0.00  0.00    +0.153 C 
ATOM      7  C   UNL     1     -11.693 -43.129  30.719  0.00  0.00    +0.253 C 
ATOM      8  O   UNL     1     -11.120 -42.003  30.834  0.00  0.00    -0.272 OA
ENDROOT
BRANCH   1   9
ATOM      9  C   UNL     1     -13.468 -42.448  32.332  0.00  0.00    +0.080 C 
ATOM     10  C   UNL     1     -14.792 -42.035  32.390  0.00  0.00    +0.018 C 
ATOM     11  C   UNL     1     -15.280 -41.280  33.432  0.00  0.00    +0.022 C 
ATOM     12  C   UNL     1     -14.412 -40.931  34.446  0.00  0.00    +0.099 C 
ATOM     13  N   UNL     1     -13.130 -41.329  34.394  0.00  0.00    -0.241 NA
ATOM     14  C   UNL     1     -12.646 -42.070  33.374  0.00  0.00    +0.114 C 
ENDBRANCH   1   9
BRANCH   6  15
ATOM     15  S   UNL     1     -10.004 -43.648  28.812  0.00  0.00    -0.136 S 
ATOM     16  H   UNL     1      -9.306 -44.662  28.234  0.00  0.00    +0.105 HD
BRANCH  15  17
ATOM     17  S   UNL     1     -11.258 -42.571  28.081  0.00  0.00    -0.122 S 
ATOM     18  H   UNL     1     -11.700 -41.689  29.017  0.00  0.00    +0.113 HD
ENDBRANCH  15  17
BRANCH  15  19
ATOM     19  S   UNL     1      -9.025 -42.300  29.239  0.00  0.00    -0.122 S 
ATOM     20  H   UNL     1      -9.801 -41.338  29.807  0.00  0.00    +0.113 HD
ENDBRANCH  15  19
ENDBRANCH   6  15
BRANCH   6  21
ATOM     21  S   UNL     1     -10.089 -45.135  31.364  0.00  0.00    -0.040 S 
BRANCH  21  22
ATOM     22  C   UNL     1      -8.494 -44.482  31.697  0.00  0.00    +0.278 C 
ATOM     23  N   UNL     1      -8.192 -43.339  32.445  0.00  0.00    -0.266 N 
ATOM     24  C   UNL     1      -6.834 -42.928  32.643  0.00  0.00    +0.126 C 
ATOM     25  C   UNL     1      -6.709 -42.209  33.985  0.00  0.00    +0.164 C 
ATOM     26  O   UNL     1      -7.737 -42.608  34.852  0.00  0.00    -0.350 OA
ATOM     27  C   UNL     1      -8.911 -42.024  34.387  0.00  0.00    +0.164 C 
ATOM     28  C   UNL     1      -9.254 -42.560  33.022  0.00  0.00    +0.126 C 
ATOM     29  O   UNL     1      -7.515 -45.131  31.196  0.00  0.00    -0.263 OA
ENDBRANCH  21  22
ENDBRANCH   6  21
TORSDOF 6
