MODEL 1
REMARK VINA RESULT:    -9.434      0.000      0.000
REMARK INTER + INTRA:          -9.772
REMARK INTER:                 -11.640
REMARK INTRA:                   1.868
REMARK UNBOUND:                 1.868
REMARK  Name = =
REMARK  5 active torsions:
REMARK  status: ('A' for Active; 'I' for Inactive)
REMARK    1  A    between atoms: C_10  and  N_14
REMARK    2  A    between atoms: C_12  and  C_24
REMARK    3  A    between atoms: C_19  and  O_23
REMARK    4  A    between atoms: C_25  and  C_26
REMARK    5  A    between atoms: C_26  and  O_28
REMARK                            x       y       z     vdW  Elec       q    Type
REMARK                         _______ _______ _______ _____ _____    ______ ____
ROOT
ATOM      1  N   UNL     1      47.365 162.524  41.622  0.00  0.00    -0.263 NA
ATOM      2  C   UNL     1      48.410 161.811  41.845  0.00  0.00    +0.078 C 
ATOM      3  C   UNL     1      49.577 162.581  41.726  0.00  0.00    +0.029 C 
ATOM      4  C   UNL     1      49.241 163.822  41.418  0.00  0.00    +0.007 C 
ATOM      5  C   UNL     1      47.764 163.873  41.328  0.00  0.00    +0.148 C 
ATOM      6  C   UNL     1      47.109 164.975  41.035  0.00  0.00    +0.002 C 
ATOM      7  C   UNL     1      47.793 166.246  40.773  0.00  0.00    -0.002 C 
ATOM      8  C   UNL     1      49.255 166.148  40.873  0.00  0.00    -0.001 C 
ATOM      9  C   UNL     1      49.950 165.062  41.164  0.00  0.00    -0.002 C 
ATOM     10  C   UNL     1      50.788 161.974  41.932  0.00  0.00    +0.060 C 
ATOM     11  C   UNL     1      50.858 160.611  42.256  0.00  0.00    +0.015 C 
ATOM     12  C   UNL     1      49.709 159.837  42.377  0.00  0.00    +0.003 C 
ATOM     13  C   UNL     1      48.504 160.475  42.163  0.00  0.00    +0.019 C 
ENDROOT
BRANCH  10  14
ATOM     14  N   UNL     1      51.992 162.714  41.823  0.00  0.00    -0.232 N 
ATOM     15  C   UNL     1      53.207 162.166  41.678  0.00  0.00    +0.165 C 
ATOM     16  N   UNL     1      53.666 160.914  41.575  0.00  0.00    -0.207 NA
ATOM     17  C   UNL     1      54.969 160.611  41.431  0.00  0.00    +0.203 C 
ATOM     18  N   UNL     1      55.854 161.621  41.388  0.00  0.00    -0.188 NA
ATOM     19  C   UNL     1      55.451 162.918  41.486  0.00  0.00    +0.244 C 
ATOM     20  C   UNL     1      54.117 163.205  41.633  0.00  0.00    +0.168 C 
ATOM     21  N   UNL     1      53.436 164.354  41.753  0.00  0.00    -0.220 NA
ATOM     22  C   UNL     1      52.109 164.053  41.873  0.00  0.00    +0.173 C 
BRANCH  19  23
ATOM     23  O   UNL     1      56.350 163.975  41.444  0.00  0.00    -0.491 OA
ATOM     24  H   UNL     1      56.035 164.858  41.439  0.00  0.00    +0.294 HD
ENDBRANCH  19  23
ENDBRANCH  10  14
BRANCH  12  25
ATOM     25  C   UNL     1      49.823 158.440  42.709  0.00  0.00    +0.007 C 
ATOM     26  C   UNL     1      50.485 157.575  41.977  0.00  0.00    +0.082 C 
BRANCH  26  27
ATOM     27  C   UNL     1      50.578 156.174  42.341  0.00  0.00    +0.338 C 
ATOM     28  O   UNL     1      49.699 155.635  43.034  0.00  0.00    -0.245 OA
BRANCH  27  29
ATOM     29  O   UNL     1      51.662 155.440  41.909  0.00  0.00    -0.477 OA
ATOM     30  H   UNL     1      52.258 155.808  41.287  0.00  0.00    +0.295 HD
ENDBRANCH  27  29
ENDBRANCH  26  27
ENDBRANCH  12  25
TORSDOF 5
ENDMDL
