REMARK  Name = =
REMARK  5 active torsions:
REMARK  status: ('A' for Active; 'I' for Inactive)
REMARK    1  A    between atoms: C_10  and  C_36
REMARK    2  A    between atoms: C_15  and  O_41
REMARK    3  A    between atoms: C_17  and  C_22
REMARK    4  A    between atoms: C_27  and  C_28
REMARK    5  A    between atoms: C_28  and  C_30
REMARK                            x       y       z     vdW  Elec       q    Type
REMARK                         _______ _______ _______ _____ _____    ______ ____
ROOT
ATOM      1  C   UNL     1      52.918 150.814  26.003  0.00  0.00    +0.183 C 
ATOM      2  C   UNL     1      53.763 150.840  24.933  0.00  0.00    +0.083 C 
ATOM      3  C   UNL     1      54.184 152.068  24.454  0.00  0.00    +0.201 C 
ATOM      4  O   UNL     1      54.938 152.130  23.478  0.00  0.00    -0.286 OA
ATOM      5  C   UNL     1      53.765 153.237  25.044  0.00  0.00    +0.070 C 
ATOM      6  C   UNL     1      52.889 153.117  26.139  0.00  0.00    +0.151 C 
ATOM      7  C   UNL     1      52.398 154.233  26.786  0.00  0.00    +0.077 C 
ATOM      8  C   UNL     1      52.764 155.448  26.354  0.00  0.00    +0.045 C 
ATOM      9  C   UNL     1      53.596 155.567  25.316  0.00  0.00    -0.001 C 
ATOM     10  C   UNL     1      54.164 154.452  24.581  0.00  0.00    -0.016 C 
ATOM     11  C   UNL     1      52.263 156.634  27.032  0.00  0.00    +0.196 C 
ATOM     12  O   UNL     1      52.596 157.784  26.641  0.00  0.00    -0.287 OA
ATOM     13  C   UNL     1      51.370 156.528  28.173  0.00  0.00    +0.045 C 
ATOM     14  C   UNL     1      50.999 155.276  28.609  0.00  0.00    +0.076 C 
ATOM     15  C   UNL     1      50.158 155.186  29.694  0.00  0.00    +0.137 C 
ATOM     16  C   UNL     1      49.711 156.372  30.319  0.00  0.00    +0.037 C 
ATOM     17  C   UNL     1      50.080 157.621  29.887  0.00  0.00    +0.003 C 
ATOM     18  C   UNL     1      50.907 157.690  28.817  0.00  0.00    +0.003 C 
ATOM     19  C   UNL     1      51.502 154.080  27.927  0.00  0.00    +0.202 C 
ATOM     20  O   UNL     1      51.181 152.927  28.302  0.00  0.00    -0.286 OA
ATOM     21  O   UNL     1      52.511 151.937  26.567  0.00  0.00    -0.450 OA
ENDROOT
BRANCH  17  22
ATOM     22  C   UNL     1      49.591 158.834  30.595  0.00  0.00    +0.003 C 
ATOM     23  C   UNL     1      48.514 159.458  30.229  0.00  0.00    +0.000 C 
ATOM     24  C   UNL     1      47.985 160.651  30.890  0.00  0.00    +0.000 C 
ATOM     25  C   UNL     1      48.642 161.114  31.923  0.00  0.00    +0.000 C 
ATOM     26  C   UNL     1      49.874 160.503  32.450  0.00  0.00    +0.003 C 
ATOM     27  C   UNL     1      50.424 159.349  31.728  0.00  0.00    +0.039 C 
BRANCH  27  28
ATOM     28  C   UNL     1      51.730 159.765  31.095  0.00  0.00    +0.196 C 
ATOM     29  O   UNL     1      52.487 158.905  30.525  0.00  0.00    -0.287 OA
BRANCH  28  30
ATOM     30  C   UNL     1      52.167 161.149  31.110  0.00  0.00    +0.039 C 
ATOM     31  C   UNL     1      51.479 162.177  31.700  0.00  0.00    +0.003 C 
ATOM     32  C   UNL     1      51.918 163.484  31.691  0.00  0.00    +0.000 C 
ATOM     33  C   UNL     1      53.112 163.794  31.058  0.00  0.00    +0.000 C 
ATOM     34  C   UNL     1      53.796 162.763  30.470  0.00  0.00    +0.000 C 
ATOM     35  C   UNL     1      53.374 161.479  30.474  0.00  0.00    +0.003 C 
ENDBRANCH  28  30
ENDBRANCH  27  28
ENDBRANCH  17  22
BRANCH  10  36
ATOM     36  C   UNL     1      55.162 154.746  23.619  0.00  0.00    +0.023 C 
ATOM     37  C   UNL     1      55.126 156.207  23.093  0.00  0.00    +0.004 C 
ATOM     38  C   UNL     1      55.369 156.004  21.598  0.00  0.00    +0.000 C 
ATOM     39  C   UNL     1      55.884 154.600  21.389  0.00  0.00    +0.000 C 
ATOM     40  C   UNL     1      56.157 154.089  22.840  0.00  0.00    +0.004 C 
ENDBRANCH  10  36
BRANCH  15  41
ATOM     41  O   UNL     1      49.743 153.995  30.190  0.00  0.00    -0.505 OA
ATOM     42  H   UNL     1      50.027 153.196  29.791  0.00  0.00    +0.292 HD
ENDBRANCH  15  41
TORSDOF 5
