MODEL 1
REMARK VINA RESULT:   -10.156      0.000      0.000
REMARK INTER + INTRA:         -11.829
REMARK INTER:                 -11.937
REMARK INTRA:                   0.109
REMARK UNBOUND:                 0.109
REMARK  Name = =
REMARK  3 active torsions:
REMARK  status: ('A' for Active; 'I' for Inactive)
REMARK    1  A    between atoms: C_1  and  O_17
REMARK    2  A    between atoms: C_7  and  C_11
REMARK    3  A    between atoms: O_17  and  C_20
REMARK                            x       y       z     vdW  Elec       q    Type
REMARK                         _______ _______ _______ _____ _____    ______ ____
ROOT
ATOM      1  C   UNL     1      52.252 155.908  28.801  0.00  0.00    +0.249 C 
ATOM      2  N   UNL     1      52.775 156.533  27.735  0.00  0.00    -0.208 NA
ATOM      3  C   UNL     1      53.207 155.866  26.624  0.00  0.00    +0.102 C 
ATOM      4  C   UNL     1      53.102 154.491  26.598  0.00  0.00    +0.099 C 
ATOM      5  N   UNL     1      52.577 153.856  27.663  0.00  0.00    -0.237 NA
ATOM      6  C   UNL     1      52.155 154.535  28.754  0.00  0.00    +0.157 C 
ATOM      7  C   UNL     1      53.529 153.798  25.493  0.00  0.00    +0.019 C 
ATOM      8  C   UNL     1      54.058 154.481  24.423  0.00  0.00    +0.002 C 
ATOM      9  C   UNL     1      54.162 155.880  24.459  0.00  0.00    +0.002 C 
ATOM     10  C   UNL     1      53.730 156.555  25.572  0.00  0.00    +0.021 C 
ENDROOT
BRANCH   7  11
ATOM     11  C   UNL     1      53.413 152.357  25.477  0.00  0.00    +0.001 C 
ATOM     12  C   UNL     1      54.313 151.638  24.688  0.00  0.00    +0.000 C 
ATOM     13  C   UNL     1      54.264 150.259  24.622  0.00  0.00    +0.000 C 
ATOM     14  C   UNL     1      53.306 149.596  25.351  0.00  0.00    +0.000 C 
ATOM     15  C   UNL     1      52.402 150.289  26.141  0.00  0.00    +0.000 C 
ATOM     16  C   UNL     1      52.466 151.664  26.195  0.00  0.00    +0.000 C 
ENDBRANCH   7  11
BRANCH   1  17
ATOM     17  O   UNL     1      51.813 156.600  29.930  0.00  0.00    -0.434 OA
BRANCH  17  20
ATOM     18 CL   UNL     1      52.514 159.447  30.074  0.00  0.00    -0.079 Cl
ATOM     19  C   UNL     1      50.882 158.765  30.005  0.00  0.00    +0.092 C 
ATOM     20  C   UNL     1      50.704 157.399  29.940  0.00  0.00    +0.158 C 
ATOM     21  C   UNL     1      49.415 156.856  29.886  0.00  0.00    +0.038 C 
ATOM     22  C   UNL     1      48.337 157.711  29.899  0.00  0.00    +0.003 C 
ATOM     23  C   UNL     1      48.499 159.080  29.964  0.00  0.00    +0.001 C 
ATOM     24  C   UNL     1      49.784 159.608  30.017  0.00  0.00    +0.014 C 
ENDBRANCH  17  20
ENDBRANCH   1  17
TORSDOF 3
ENDMDL
