MODEL 1
REMARK VINA RESULT:    -5.936      0.000      0.000
REMARK INTER + INTRA:          -9.629
REMARK INTER:                  -7.844
REMARK INTRA:                  -1.785
REMARK UNBOUND:                -1.785
REMARK  Name = =
REMARK  6 active torsions:
REMARK  status: ('A' for Active; 'I' for Inactive)
REMARK    1  A    between atoms: C_1  and  C_11
REMARK    2  A    between atoms: C_1  and  S_23
REMARK    3  A    between atoms: C_9  and  O_36
REMARK    4  A    between atoms: C_13  and  C_16
REMARK    5  A    between atoms: S_23  and  N_24
REMARK    6  A    between atoms: S_23  and  C_31
REMARK                            x       y       z     vdW  Elec       q    Type
REMARK                         _______ _______ _______ _____ _____    ______ ____
ROOT
ATOM      1  C   UNL     1      60.424 163.541  39.188  0.00  0.00    +0.085 C 
ATOM      2  C   UNL     1      59.176 164.363  39.469  0.00  0.00    +0.017 C 
ATOM      3  C   UNL     1      58.362 163.857  40.591  0.00  0.00    +0.006 C 
ATOM      4  C   UNL     1      58.081 162.414  40.664  0.00  0.00    +0.026 C 
ATOM      5  C   UNL     1      58.933 161.630  39.759  0.00  0.00    -0.022 C 
ATOM      6  C   UNL     1      60.006 162.129  39.086  0.00  0.00    -0.015 C 
ATOM      7  C   UNL     1      60.693 161.204  38.280  0.00  0.00    -0.001 C 
ATOM      8  C   UNL     1      60.312 159.883  38.171  0.00  0.00    +0.036 C 
ATOM      9  C   UNL     1      59.229 159.419  38.862  0.00  0.00    +0.133 C 
ATOM     10  C   UNL     1      58.540 160.278  39.650  0.00  0.00    +0.032 C 
ENDROOT
BRANCH   1  11
ATOM     11  C   UNL     1      60.925 163.944  37.797  0.00  0.00    +0.128 C 
ATOM     12  O   UNL     1      60.273 165.106  37.466  0.00  0.00    -0.356 OA
ATOM     13  C   UNL     1      61.133 165.866  36.689  0.00  0.00    +0.134 C 
ATOM     14  C   UNL     1      62.492 165.660  37.305  0.00  0.00    +0.033 C 
ATOM     15  C   UNL     1      62.398 164.228  37.779  0.00  0.00    +0.033 C 
BRANCH  13  16
ATOM     16  C   UNL     1      61.067 165.408  35.252  0.00  0.00    +0.160 C 
ATOM     17  S   UNL     1      59.536 166.163  34.551  0.00  0.00    -0.046 S 
ATOM     18  C   UNL     1      60.320 167.613  33.878  0.00  0.00    +0.279 C 
ATOM     19  O   UNL     1      59.764 168.565  33.328  0.00  0.00    -0.263 OA
ATOM     20  N   UNL     1      61.698 167.435  34.111  0.00  0.00    -0.246 N 
ATOM     21  C   UNL     1      62.069 166.118  34.404  0.00  0.00    +0.241 C 
ATOM     22  O   UNL     1      63.137 165.520  34.021  0.00  0.00    -0.274 OA
ATOM     23  H   UNL     1      62.345 168.176  34.070  0.00  0.00    +0.158 HD
ENDBRANCH  13  16
ENDBRANCH   1  11
BRANCH   1  24
ATOM     24  S   UNL     1      61.623 163.916  40.309  0.00  0.00    -0.103 S 
ATOM     25  H   UNL     1      62.753 164.146  39.588  0.00  0.00    +0.109 HD
BRANCH  24  26
ATOM     26  N   UNL     1      61.819 162.617  41.382  0.00  0.00    -0.222 N 
ATOM     27  C   UNL     1      61.105 162.444  42.631  0.00  0.00    +0.191 C 
ATOM     28  C   UNL     1      60.885 160.950  42.633  0.00  0.00    +0.251 C 
ATOM     29  O   UNL     1      59.881 160.316  43.034  0.00  0.00    -0.273 OA
ATOM     30  N   UNL     1      62.090 160.422  42.071  0.00  0.00    -0.237 N 
ATOM     31  C   UNL     1      62.672 161.480  41.286  0.00  0.00    +0.318 C 
ATOM     32  O   UNL     1      63.732 161.466  40.613  0.00  0.00    -0.251 OA
ATOM     33  H   UNL     1      62.451 159.515  42.196  0.00  0.00    +0.159 HD
ENDBRANCH  24  26
BRANCH  24  34
ATOM     34  C   UNL     1      61.323 165.327  41.206  0.00  0.00    +0.203 A 
ATOM     35  N   UNL     1      61.491 166.588  40.739  0.00  0.00    -0.234 N 
ATOM     36  N   UNL     1      61.190 167.448  41.687  0.00  0.00    -0.046 NA
ATOM     37  N   UNL     1      60.824 166.790  42.768  0.00  0.00    -0.022 NA
ATOM     38  N   UNL     1      60.907 165.506  42.472  0.00  0.00    -0.102 NA
ATOM     39  H   UNL     1      61.793 166.823  39.833  0.00  0.00    +0.193 HD
ENDBRANCH  24  34
ENDBRANCH   1  24
BRANCH   9  40
ATOM     40  O   UNL     1      58.841 158.075  38.750  0.00  0.00    -0.506 OA
ATOM     41  H   UNL     1      58.265 157.698  39.387  0.00  0.00    +0.292 HD
ENDBRANCH   9  40
TORSDOF 6
ENDMDL
