REMARK  Name = =
REMARK  3 active torsions:
REMARK  status: ('A' for Active; 'I' for Inactive)
REMARK    1  A    between atoms: C_1  and  O_17
REMARK    2  A    between atoms: C_7  and  C_11
REMARK    3  A    between atoms: O_17  and  C_20
REMARK                            x       y       z     vdW  Elec       q    Type
REMARK                         _______ _______ _______ _____ _____    ______ ____
ROOT
ATOM      1  C   UNL     1      61.216 164.023  39.581  0.00  0.00    +0.249 C 
ATOM      2  N   UNL     1      61.537 164.188  38.289  0.00  0.00    -0.208 NA
ATOM      3  C   UNL     1      61.409 165.384  37.641  0.00  0.00    +0.102 C 
ATOM      4  C   UNL     1      60.929 166.468  38.346  0.00  0.00    +0.099 C 
ATOM      5  N   UNL     1      60.606 166.311  39.643  0.00  0.00    -0.237 NA
ATOM      6  C   UNL     1      60.739 165.118  40.267  0.00  0.00    +0.157 C 
ATOM      7  C   UNL     1      60.792 167.680  37.717  0.00  0.00    +0.019 C 
ATOM      8  C   UNL     1      61.134 167.802  36.391  0.00  0.00    +0.002 C 
ATOM      9  C   UNL     1      61.621 166.694  35.682  0.00  0.00    +0.002 C 
ATOM     10  C   UNL     1      61.751 165.491  36.327  0.00  0.00    +0.021 C 
ENDROOT
BRANCH   7  11
ATOM     11  C   UNL     1      60.288 168.809  38.467  0.00  0.00    +0.001 C 
ATOM     12  C   UNL     1      61.182 169.832  38.787  0.00  0.00    +0.000 C 
ATOM     13  C   UNL     1      60.775 170.942  39.501  0.00  0.00    +0.000 C 
ATOM     14  C   UNL     1      59.462 171.027  39.898  0.00  0.00    +0.000 C 
ATOM     15  C   UNL     1      58.556 170.023  39.592  0.00  0.00    +0.000 C 
ATOM     16  C   UNL     1      58.980 168.924  38.879  0.00  0.00    +0.000 C 
ENDBRANCH   7  11
BRANCH   1  17
ATOM     17  O   UNL     1      61.351 162.797  40.232  0.00  0.00    -0.434 OA
BRANCH  17  20
ATOM     18 CL   UNL     1      61.316 161.185  37.779  0.00  0.00    -0.079 Cl
ATOM     19  C   UNL     1      62.580 161.191  39.018  0.00  0.00    +0.092 C 
ATOM     20  C   UNL     1      62.461 162.005  40.125  0.00  0.00    +0.158 C 
ATOM     21  C   UNL     1      63.458 162.013  41.107  0.00  0.00    +0.038 C 
ATOM     22  C   UNL     1      64.552 161.194  40.944  0.00  0.00    +0.003 C 
ATOM     23  C   UNL     1      64.685 160.374  39.842  0.00  0.00    +0.001 C 
ATOM     24  C   UNL     1      63.688 160.375  38.873  0.00  0.00    +0.014 C 
ENDBRANCH  17  20
ENDBRANCH   1  17
TORSDOF 3
