MODEL 1
REMARK VINA RESULT:    -8.476      0.000      0.000
REMARK INTER + INTRA:         -14.625
REMARK INTER:                 -13.679
REMARK INTRA:                  -0.946
REMARK UNBOUND:                -0.946
REMARK  Name = =
REMARK  13 active torsions:
REMARK  status: ('A' for Active; 'I' for Inactive)
REMARK    1  A    between atoms: P_1  and  O_3
REMARK    2  A    between atoms: P_1  and  O_4
REMARK    3  A    between atoms: P_1  and  O_16
REMARK    4  A    between atoms: O_4  and  P_5
REMARK    5  A    between atoms: P_5  and  O_7
REMARK    6  A    between atoms: P_5  and  O_8
REMARK    7  A    between atoms: O_8  and  C_10
REMARK    8  A    between atoms: O_16  and  P_17
REMARK    9  A    between atoms: P_17  and  O_19
REMARK   10  A    between atoms: P_17  and  O_20
REMARK   11  A    between atoms: O_20  and  P_21
REMARK   12  A    between atoms: P_21  and  O_23
REMARK   13  A    between atoms: P_21  and  O_24
REMARK                            x       y       z     vdW  Elec       q    Type
REMARK                         _______ _______ _______ _____ _____    ______ ____
ROOT
ATOM      1  P   UNL     1      51.954 153.748  27.829  0.00  0.00    +0.493 P 
ATOM      2  O   UNL     1      51.726 152.445  28.539  0.00  0.00    -0.226 OA
ENDROOT
BRANCH   1   3
ATOM      3  O   UNL     1      53.375 154.437  28.443  0.00  0.00    -0.302 OA
ATOM      4  H   UNL     1      53.392 155.384  28.235  0.00  0.00    +0.222 HD
ENDBRANCH   1   3
BRANCH   1   5
ATOM      5  O   UNL     1      50.693 154.839  28.056  0.00  0.00    -0.176 OA
BRANCH   5   6
ATOM      6  P   UNL     1      51.081 155.772  29.426  0.00  0.00    +0.541 P 
ATOM      7  O   UNL     1      52.136 156.768  29.042  0.00  0.00    -0.215 OA
BRANCH   6   8
ATOM      8  O   UNL     1      51.580 154.747  30.671  0.00  0.00    -0.293 OA
ATOM      9  H   UNL     1      51.423 153.825  30.413  0.00  0.00    +0.223 HD
ENDBRANCH   6   8
BRANCH   6  10
ATOM     10  O   UNL     1      49.663 156.623  29.859  0.00  0.00    -0.370 OA
BRANCH  10  12
ATOM     11  O   UNL     1      50.873 158.551  30.238  0.00  0.00    -0.420 OA
ATOM     12  C   UNL     1      49.703 157.977  30.169  0.00  0.00    +0.307 C 
ATOM     13  C   UNL     1      48.540 158.675  30.393  0.00  0.00    +0.120 C 
ATOM     14  C   UNL     1      48.616 160.015  30.698  0.00  0.00    +0.205 C 
ATOM     15  O   UNL     1      47.570 160.686  30.909  0.00  0.00    -0.286 OA
ATOM     16  C   UNL     1      49.881 160.588  30.763  0.00  0.00    +0.083 C 
ATOM     17  C   UNL     1      50.996 159.822  30.524  0.00  0.00    +0.186 C 
ENDBRANCH  10  12
ENDBRANCH   6  10
ENDBRANCH   5   6
ENDBRANCH   1   5
BRANCH   1  18
ATOM     18  O   UNL     1      52.074 153.450  26.169  0.00  0.00    -0.185 OA
BRANCH  18  19
ATOM     19  P   UNL     1      53.267 152.250  25.917  0.00  0.00    +0.492 P 
ATOM     20  O   UNL     1      54.362 152.442  26.907  0.00  0.00    -0.226 OA
BRANCH  19  21
ATOM     21  O   UNL     1      52.539 150.747  26.168  0.00  0.00    -0.302 OA
ATOM     22  H   UNL     1      52.614 150.213  25.362  0.00  0.00    +0.222 HD
ENDBRANCH  19  21
BRANCH  19  23
ATOM     23  O   UNL     1      53.767 152.417  24.316  0.00  0.00    -0.186 OA
BRANCH  23  24
ATOM     24  P   UNL     1      54.873 153.671  24.126  0.00  0.00    +0.481 P 
ATOM     25  O   UNL     1      54.157 154.959  24.460  0.00  0.00    -0.227 OA
BRANCH  24  26
ATOM     26  O   UNL     1      56.229 153.469  25.099  0.00  0.00    -0.302 OA
ATOM     27  H   UNL     1      56.203 152.591  25.509  0.00  0.00    +0.222 HD
ENDBRANCH  24  26
BRANCH  24  28
ATOM     28  O   UNL     1      55.292 153.711  22.469  0.00  0.00    -0.302 OA
ATOM     29  H   UNL     1      54.772 154.397  22.021  0.00  0.00    +0.222 HD
ENDBRANCH  24  28
ENDBRANCH  23  24
ENDBRANCH  19  23
ENDBRANCH  18  19
ENDBRANCH   1  18
TORSDOF 13
ENDMDL
