MODEL 1
REMARK VINA RESULT:    -5.788      0.000      0.000
REMARK INTER + INTRA:         -11.910
REMARK INTER:                  -9.679
REMARK INTRA:                  -2.231
REMARK UNBOUND:                -2.231
REMARK  Name = =
REMARK  13 active torsions:
REMARK  status: ('A' for Active; 'I' for Inactive)
REMARK    1  A    between atoms: N_1  and  S_4
REMARK    2  A    between atoms: N_1  and  N_21
REMARK    3  A    between atoms: C_2  and  O_20
REMARK    4  A    between atoms: S_4  and  N_7
REMARK    5  A    between atoms: N_7  and  C_14
REMARK    6  A    between atoms: N_7  and  N_18
REMARK    7  A    between atoms: N_21  and  C_22
REMARK    8  A    between atoms: N_21  and  S_24
REMARK    9  A    between atoms: S_24  and  C_25
REMARK   10  A    between atoms: S_24  and  N_28
REMARK   11  A    between atoms: C_25  and  N_27
REMARK   12  A    between atoms: N_28  and  S_29
REMARK   13  A    between atoms: S_29  and  N_32
REMARK                            x       y       z     vdW  Elec       q    Type
REMARK                         _______ _______ _______ _____ _____    ______ ____
ROOT
ATOM      1  N   UNL     1      59.977 163.450  38.768  0.00  0.00    -0.014 N 
ATOM      2  C   UNL     1      59.386 164.428  39.600  0.00  0.00    +0.440 C 
ATOM      3  O   UNL     1      58.965 165.516  39.104  0.00  0.00    -0.223 OA
ENDROOT
BRANCH   1   4
ATOM      4  S   UNL     1      60.535 161.994  39.517  0.00  0.00    +0.166 S 
ATOM      5  O   UNL     1      61.269 162.407  40.782  0.00  0.00    -0.132 OA
ATOM      6  O   UNL     1      61.552 161.292  38.664  0.00  0.00    -0.132 OA
BRANCH   4   7
ATOM      7  N   UNL     1      59.301 160.907  39.910  0.00  0.00    -0.093 N 
BRANCH   7  14
ATOM      8  C   UNL     1      56.731 159.630  41.836  0.00  0.00    -0.007 C 
ATOM      9  C   UNL     1      57.486 160.698  41.490  0.00  0.00    -0.002 C 
ATOM     10  C   UNL     1      56.806 161.905  41.287  0.00  0.00    -0.003 C 
ATOM     11  C   UNL     1      55.427 161.956  41.443  0.00  0.00    -0.000 C 
ATOM     12  C   UNL     1      54.682 160.852  41.795  0.00  0.00    -0.000 C 
ATOM     13  C   UNL     1      55.357 159.666  41.995  0.00  0.00    -0.003 C 
ATOM     14  C   UNL     1      58.947 160.647  41.313  0.00  0.00    +0.156 C 
ATOM     15  C   UNL     1      59.566 159.387  41.801  0.00  0.00    +0.117 C 
ATOM     16  N   UNL     1      58.709 158.709  42.715  0.00  0.00    -0.211 NA
ATOM     17  C   UNL     1      57.437 158.334  42.072  0.00  0.00    +0.115 C 
ENDBRANCH   7  14
BRANCH   7  18
ATOM     18  N   UNL     1      58.582 160.229  38.935  0.00  0.00    -0.157 NA
ATOM     19  C   UNL     1      59.047 159.170  38.375  0.00  0.00    +0.141 C 
ENDBRANCH   7  18
ENDBRANCH   4   7
ENDBRANCH   1   4
BRANCH   2  20
ATOM     20  O   UNL     1      59.238 164.251  40.970  0.00  0.00    -0.464 OA
ATOM     21  H   UNL     1      58.756 163.518  41.299  0.00  0.00    +0.297 HD
ENDBRANCH   2  20
BRANCH   1  22
ATOM     22  N   UNL     1      60.117 163.634  37.388  0.00  0.00    -0.103 N 
BRANCH  22  23
ATOM     23  C   UNL     1      59.365 162.769  36.546  0.00  0.00    +0.200 C 
ATOM     24  N   UNL     1      58.750 162.050  35.873  0.00  0.00    -0.172 NA
ENDBRANCH  22  23
BRANCH  22  25
ATOM     25  S   UNL     1      61.081 164.783  36.689  0.00  0.00    -0.032 S 
ATOM     26  H   UNL     1      61.306 164.331  35.426  0.00  0.00    +0.127 HD
BRANCH  25  27
ATOM     27  C   UNL     1      62.492 164.930  37.844  0.00  0.00    +0.116 C 
ATOM     28  S   UNL     1      62.694 166.280  38.689  0.00  0.00    -0.027 S 
BRANCH  27  29
ATOM     29  N   UNL     1      63.373 163.827  37.955  0.00  0.00    -0.346 N 
ATOM     30  H   UNL     1      63.356 163.113  37.278  0.00  0.00    +0.143 HD
ATOM     31  H   UNL     1      64.003 163.775  38.710  0.00  0.00    +0.143 HD
ENDBRANCH  27  29
ENDBRANCH  25  27
BRANCH  25  32
ATOM     32  N   UNL     1      60.581 166.137  36.382  0.00  0.00    -0.121 NA
ATOM     33  H   UNL     1      59.773 166.298  36.984  0.00  0.00    +0.163 HD
BRANCH  32  34
ATOM     34  S   UNL     1      60.089 166.524  34.775  0.00  0.00    +0.101 S 
ATOM     35  O   UNL     1      58.870 165.654  34.487  0.00  0.00    -0.141 OA
ATOM     36  O   UNL     1      59.607 167.941  34.766  0.00  0.00    -0.141 OA
BRANCH  34  37
ATOM     37  N   UNL     1      61.321 166.221  33.615  0.00  0.00    -0.193 NA
ATOM     38  H   UNL     1      60.950 165.629  32.872  0.00  0.00    +0.145 HD
ATOM     39  H   UNL     1      62.105 165.751  34.066  0.00  0.00    +0.145 HD
ENDBRANCH  34  37
ENDBRANCH  32  34
ENDBRANCH  25  32
ENDBRANCH  22  25
ENDBRANCH   1  22
TORSDOF 13
ENDMDL
