REMARK  Name = =
REMARK  0 active torsions:
REMARK  status: ('A' for Active; 'I' for Inactive)
REMARK                            x       y       z     vdW  Elec       q    Type
REMARK                         _______ _______ _______ _____ _____    ______ ____
ROOT
ATOM      1  N   UNL     1      51.748 155.817  28.518  0.00  0.00    -0.295 NA
ATOM      2  C   UNL     1      52.966 156.379  28.023  0.00  0.00    +0.090 C 
ATOM      3  C   UNL     1      52.890 156.318  26.491  0.00  0.00    +0.111 C 
ATOM      4  N   UNL     1      52.884 154.888  26.181  0.00  0.00    -0.270 N 
ATOM      5  C   UNL     1      51.837 154.102  26.758  0.00  0.00    +0.111 C 
ATOM      6  C   UNL     1      51.568 154.434  28.202  0.00  0.00    +0.090 C 
ATOM      7  C   UNL     1      53.879 154.318  25.344  0.00  0.00    +0.303 C 
ATOM      8  O   UNL     1      54.804 154.993  24.831  0.00  0.00    -0.265 OA
ATOM      9  H   UNL     1      50.969 156.340  28.118  0.00  0.00    +0.123 HD
ENDROOT
TORSDOF 0
