REMARK  Name = =
REMARK  6 active torsions:
REMARK  status: ('A' for Active; 'I' for Inactive)
REMARK    1  A    between atoms: C_1  and  N_9
REMARK    2  A    between atoms: C_1  and  N_17
REMARK    3  A    between atoms: C_4  and  C_24
REMARK    4  A    between atoms: C_5  and  S_23
REMARK    5  A    between atoms: N_20  and  C_21
REMARK    6  A    between atoms: C_24  and  O_26
REMARK                            x       y       z     vdW  Elec       q    Type
REMARK                         _______ _______ _______ _____ _____    ______ ____
ROOT
ATOM      1  C   UNL     1      51.853 154.813  28.781  0.00  0.00    +0.194 C 
ATOM      2  C   UNL     1      53.256 154.657  28.201  0.00  0.00    +0.124 C 
ATOM      3  N   UNL     1      52.705 154.257  26.887  0.00  0.00    -0.249 N 
ATOM      4  C   UNL     1      53.837 153.665  26.239  0.00  0.00    +0.132 C 
ATOM      5  C   UNL     1      54.621 153.108  27.181  0.00  0.00    +0.021 C 
ATOM      6  C   UNL     1      53.963 153.351  28.528  0.00  0.00    +0.058 C 
ATOM      7  C   UNL     1      51.473 154.778  27.309  0.00  0.00    +0.262 C 
ATOM      8  O   UNL     1      50.434 155.098  26.700  0.00  0.00    -0.271 OA
ENDROOT
BRANCH   1   9
ATOM      9  N   UNL     1      51.671 156.098  29.276  0.00  0.00    -0.249 NA
ATOM     10  C   UNL     1      52.642 157.071  29.402  0.00  0.00    +0.095 C 
ATOM     11  C   UNL     1      52.164 158.469  28.934  0.00  0.00    +0.111 C 
ATOM     12  N   UNL     1      50.900 158.809  29.534  0.00  0.00    -0.270 N 
ATOM     13  C   UNL     1      50.229 157.800  30.304  0.00  0.00    +0.111 C 
ATOM     14  C   UNL     1      50.360 156.491  29.561  0.00  0.00    +0.095 C 
ATOM     15  C   UNL     1      50.406 160.125  29.323  0.00  0.00    +0.303 C 
ATOM     16  O   UNL     1      49.300 160.430  29.848  0.00  0.00    -0.265 OA
ENDBRANCH   1   9
BRANCH   1  17
ATOM     17  N   UNL     1      51.304 153.700  29.394  0.00  0.00    -0.272 N 
ATOM     18  C   UNL     1      50.833 153.714  30.823  0.00  0.00    +0.304 C 
ATOM     19  O   UNL     1      50.937 154.791  31.336  0.00  0.00    -0.253 OA
ATOM     20  N   UNL     1      50.398 152.457  31.169  0.00  0.00    -0.261 N 
ATOM     21  H   UNL     1      51.218 152.868  28.875  0.00  0.00    +0.153 HD
ATOM     22  H   UNL     1      50.352 151.621  30.652  0.00  0.00    +0.153 HD
BRANCH  20  23
ATOM     23  C   UNL     1      49.952 152.816  32.820  0.00  0.00    +0.278 C 
ATOM     24  O   UNL     1      50.145 153.925  33.097  0.00  0.00    -0.196 OA
ENDBRANCH  20  23
ENDBRANCH   1  17
BRANCH   5  25
ATOM     25  S   UNL     1      56.138 152.250  26.832  0.00  0.00    -0.144 S 
ATOM     26  H   UNL     1      56.366 152.260  25.491  0.00  0.00    +0.107 HD
ENDBRANCH   5  25
BRANCH   4  27
ATOM     27  C   UNL     1      54.043 153.686  24.799  0.00  0.00    +0.352 C 
ATOM     28  O   UNL     1      54.785 152.847  24.216  0.00  0.00    -0.244 OA
BRANCH  27  29
ATOM     29  O   UNL     1      53.440 154.625  23.994  0.00  0.00    -0.476 OA
ATOM     30  H   UNL     1      52.878 155.273  24.370  0.00  0.00    +0.295 HD
ENDBRANCH  27  29
ENDBRANCH   4  27
TORSDOF 6
