REMARK  Name = =
REMARK  6 active torsions:
REMARK  status: ('A' for Active; 'I' for Inactive)
REMARK    1  A    between atoms: C_1  and  N_9
REMARK    2  A    between atoms: C_1  and  N_17
REMARK    3  A    between atoms: C_4  and  C_31
REMARK    4  A    between atoms: C_5  and  S_30
REMARK    5  A    between atoms: N_17  and  C_23
REMARK    6  A    between atoms: C_31  and  O_33
REMARK                            x       y       z     vdW  Elec       q    Type
REMARK                         _______ _______ _______ _____ _____    ______ ____
ROOT
ATOM      1  C   UNL     1      53.560 153.575  28.061  0.00  0.00    +0.173 C 
ATOM      2  C   UNL     1      53.057 154.856  28.283  0.00  0.00    +0.141 C 
ATOM      3  N   UNL     1      51.845 154.499  28.970  0.00  0.00    -0.274 N 
ATOM      4  C   UNL     1      51.189 155.739  29.156  0.00  0.00    +0.128 C 
ATOM      5  C   UNL     1      52.100 156.730  29.148  0.00  0.00    +0.021 C 
ATOM      6  C   UNL     1      53.452 156.059  28.942  0.00  0.00    +0.059 C 
ATOM      7  C   UNL     1      52.335 153.148  28.889  0.00  0.00    +0.234 C 
ATOM      8  O   UNL     1      51.799 152.140  29.385  0.00  0.00    -0.200 OA
ENDROOT
BRANCH   1   9
ATOM      9  N   UNL     1      54.679 152.938  28.684  0.00  0.00    -0.252 NA
ATOM     10  C   UNL     1      55.207 153.520  29.896  0.00  0.00    +0.095 C 
ATOM     11  C   UNL     1      56.058 152.414  30.578  0.00  0.00    +0.111 C 
ATOM     12  N   UNL     1      57.074 151.977  29.676  0.00  0.00    -0.270 N 
ATOM     13  C   UNL     1      56.777 151.866  28.264  0.00  0.00    +0.111 C 
ATOM     14  C   UNL     1      55.838 152.927  27.770  0.00  0.00    +0.095 C 
ATOM     15  C   UNL     1      58.351 151.655  30.214  0.00  0.00    +0.303 C 
ATOM     16  O   UNL     1      58.596 151.729  31.442  0.00  0.00    -0.265 OA
ENDBRANCH   1   9
BRANCH   1  17
ATOM     17  N   UNL     1      53.416 153.054  26.721  0.00  0.00    -0.244 N 
ATOM     18  C   UNL     1      52.944 153.835  25.618  0.00  0.00    +0.311 C 
ATOM     19  O   UNL     1      52.875 153.289  24.455  0.00  0.00    -0.252 OA
ATOM     20  N   UNL     1      52.566 155.183  25.791  0.00  0.00    -0.232 N 
ATOM     21  C   UNL     1      52.163 155.938  24.650  0.00  0.00    +0.307 C 
ATOM     22  O   UNL     1      52.122 155.417  23.510  0.00  0.00    -0.265 OA
ATOM     23  H   UNL     1      52.580 155.596  26.685  0.00  0.00    +0.160 HD
BRANCH  17  24
ATOM     24  C   UNL     1      53.745 151.665  26.370  0.00  0.00    +0.140 C 
ATOM     25  C   UNL     1      52.529 150.797  26.216  0.00  0.00    +0.053 C 
ATOM     26  C   UNL     1      52.399 150.004  24.988  0.00  0.00    -0.028 C 
ATOM     27  C   UNL     1      53.595 149.706  24.176  0.00  0.00    -0.023 C 
ATOM     28  C   UNL     1      54.907 150.191  24.739  0.00  0.00    +0.092 C 
ATOM     29  C   UNL     1      54.649 151.577  25.189  0.00  0.00    +0.173 C 
ATOM     30  O   UNL     1      55.097 152.550  24.686  0.00  0.00    -0.294 OA
ENDBRANCH  17  24
ENDBRANCH   1  17
BRANCH   5  31
ATOM     31  S   UNL     1      51.725 158.453  29.335  0.00  0.00    -0.144 S 
ATOM     32  H   UNL     1      50.384 158.610  29.496  0.00  0.00    +0.107 HD
ENDBRANCH   5  31
BRANCH   4  33
ATOM     33  C   UNL     1      49.755 155.918  29.320  0.00  0.00    +0.352 C 
ATOM     34  O   UNL     1      48.907 155.018  29.114  0.00  0.00    -0.244 OA
BRANCH  33  35
ATOM     35  O   UNL     1      49.221 157.151  29.729  0.00  0.00    -0.476 OA
ATOM     36  H   UNL     1      49.791 157.874  29.903  0.00  0.00    +0.295 HD
ENDBRANCH  33  35
ENDBRANCH   4  33
TORSDOF 6
