REMARK  Name = =
REMARK  3 active torsions:
REMARK  status: ('A' for Active; 'I' for Inactive)
REMARK    1  A    between atoms: P_1  and  N_3
REMARK    2  A    between atoms: P_1  and  O_4
REMARK    3  A    between atoms: P_1  and  O_5
REMARK                            x       y       z     vdW  Elec       q    Type
REMARK                         _______ _______ _______ _____ _____    ______ ____
ROOT
ATOM      1  P   UNL     1      52.414 154.829  27.661  0.00  0.00    +0.400 P 
ATOM      2  O   UNL     1      51.105 154.662  28.425  0.00  0.00    -0.240 OA
ENDROOT
BRANCH   1   3
ATOM      3  N   UNL     1      52.907 156.499  27.586  0.00  0.00    -0.237 NA
ATOM      4  H   UNL     1      53.094 156.841  28.529  0.00  0.00    +0.130 HD
ATOM      5  H   UNL     1      52.163 157.055  27.165  0.00  0.00    +0.130 HD
ENDBRANCH   1   3
BRANCH   1   6
ATOM      6  O   UNL     1      53.553 153.847  28.405  0.00  0.00    -0.312 OA
ATOM      7  H   UNL     1      53.724 154.173  29.303  0.00  0.00    +0.221 HD
ENDBRANCH   1   6
BRANCH   1   8
ATOM      8  O   UNL     1      52.104 154.269  26.083  0.00  0.00    -0.312 OA
ATOM      9  H   UNL     1      51.829 153.339  26.118  0.00  0.00    +0.221 HD
ENDBRANCH   1   8
TORSDOF 3
