REMARK  Name = =
REMARK  4 active torsions:
REMARK  status: ('A' for Active; 'I' for Inactive)
REMARK    1  A    between atoms: C_12  and  O_13
REMARK    2  A    between atoms: O_13  and  P_14
REMARK    3  A    between atoms: P_14  and  N_16
REMARK    4  A    between atoms: P_14  and  O_17
REMARK                            x       y       z     vdW  Elec       q    Type
REMARK                         _______ _______ _______ _____ _____    ______ ____
ROOT
ATOM      1  C   UNL     1      51.870 153.203  29.002  0.00  0.00    +0.003 C 
ATOM      2  C   UNL     1      52.156 154.739  29.089  0.00  0.00    +0.028 C 
ATOM      3  C   UNL     1      51.172 155.243  30.018  0.00  0.00    +0.009 C 
ATOM      4  C   UNL     1      51.714 156.596  30.624  0.00  0.00    +0.035 C 
ATOM      5  C   UNL     1      51.291 157.497  29.507  0.00  0.00    +0.137 C 
ATOM      6  C   UNL     1      49.993 157.679  29.391  0.00  0.00    -0.002 C 
ATOM      7  C   UNL     1      49.137 156.494  29.536  0.00  0.00    -0.028 C 
ATOM      8  C   UNL     1      49.759 155.348  29.764  0.00  0.00    +0.026 C 
ATOM      9  O   UNL     1      52.024 158.178  28.554  0.00  0.00    -0.352 OA
ATOM     10  C   UNL     1      53.222 157.652  27.839  0.00  0.00    +0.145 C 
ATOM     11  C   UNL     1      52.736 156.421  27.164  0.00  0.00    +0.062 C 
ATOM     12  C   UNL     1      52.609 155.141  27.812  0.00  0.00    +0.128 C 
ENDROOT
BRANCH  12  13
ATOM     13  O   UNL     1      51.879 154.371  26.834  0.00  0.00    -0.286 OA
BRANCH  13  14
ATOM     14  P   UNL     1      52.835 153.460  25.845  0.00  0.00    +0.403 P 
ATOM     15  O   UNL     1      52.187 152.105  25.621  0.00  0.00    -0.240 OA
BRANCH  14  16
ATOM     16  N   UNL     1      53.096 154.164  24.274  0.00  0.00    -0.236 NA
ATOM     17  H   UNL     1      53.693 153.549  23.721  0.00  0.00    +0.130 HD
ATOM     18  H   UNL     1      53.549 155.072  24.379  0.00  0.00    +0.130 HD
ENDBRANCH  14  16
BRANCH  14  19
ATOM     19  O   UNL     1      54.335 153.177  26.555  0.00  0.00    -0.312 OA
ATOM     20  H   UNL     1      54.208 152.784  27.433  0.00  0.00    +0.221 HD
ENDBRANCH  14  19
ENDBRANCH  13  14
ENDBRANCH  12  13
TORSDOF 4
