REMARK  Name = =
REMARK  1 active torsions:
REMARK  status: ('A' for Active; 'I' for Inactive)
REMARK    1  A    between atoms: S_1  and  N_8
REMARK                            x       y       z     vdW  Elec       q    Type
REMARK                         _______ _______ _______ _____ _____    ______ ____
ROOT
ATOM      1  S   UNL     1     -12.301 -42.872  27.269  0.00  0.00    -0.101 S 
ATOM      2  C   UNL     1     -11.462 -42.176  28.698  0.00  0.00    +0.143 C 
ATOM      3  C   UNL     1     -10.589 -43.315  29.031  0.00  0.00    +0.240 C 
ATOM      4  O   UNL     1      -9.376 -43.149  29.403  0.00  0.00    -0.274 OA
ATOM      5  N   UNL     1     -11.205 -44.567  28.904  0.00  0.00    -0.246 N 
ATOM      6  C   UNL     1     -12.163 -44.612  27.875  0.00  0.00    +0.272 C 
ATOM      7  O   UNL     1     -12.795 -45.564  27.437  0.00  0.00    -0.263 OA
ATOM      8  H   UNL     1     -11.795 -42.581  26.041  0.00  0.00    +0.107 HD
ATOM      9  H   UNL     1     -10.989 -45.338  29.477  0.00  0.00    +0.158 HD
ENDROOT
BRANCH   1  10
ATOM     10  N   UNL     1     -13.682 -42.277  26.711  0.00  0.00    -0.237 NA
ATOM     11  C   UNL     1     -13.851 -42.534  25.299  0.00  0.00    +0.099 C 
ATOM     12  C   UNL     1     -15.042 -41.798  24.750  0.00  0.00    +0.087 C 
ATOM     13  N   UNL     1     -16.217 -42.290  25.439  0.00  0.00    -0.295 NA
ATOM     14  C   UNL     1     -16.125 -42.161  26.871  0.00  0.00    +0.087 C 
ATOM     15  C   UNL     1     -14.820 -42.767  27.401  0.00  0.00    +0.099 C 
ATOM     16  H   UNL     1     -16.340 -43.276  25.209  0.00  0.00    +0.123 HD
ENDBRANCH   1  10
TORSDOF 1
