REMARK  Name = =
REMARK  1 active torsions:
REMARK  status: ('A' for Active; 'I' for Inactive)
REMARK    1  A    between atoms: C_4  and  O_7
REMARK                            x       y       z     vdW  Elec       q    Type
REMARK                         _______ _______ _______ _____ _____    ______ ____
ROOT
ATOM      1  C   UNL     1      52.041 155.629  28.514  0.00  0.00    +0.000 C 
ATOM      2  C   UNL     1      52.651 155.939  27.317  0.00  0.00    +0.003 C 
ATOM      3  C   UNL     1      53.024 154.937  26.443  0.00  0.00    +0.037 C 
ATOM      4  C   UNL     1      52.809 153.607  26.722  0.00  0.00    +0.134 C 
ATOM      5  C   UNL     1      52.200 153.294  27.919  0.00  0.00    +0.037 C 
ATOM      6  C   UNL     1      51.822 154.287  28.799  0.00  0.00    +0.003 C 
ENDROOT
BRANCH   4   7
ATOM      7  O   UNL     1      53.196 152.595  25.821  0.00  0.00    -0.506 OA
ATOM      8  H   UNL     1      53.609 152.822  25.011  0.00  0.00    +0.292 HD
ENDBRANCH   4   7
TORSDOF 1
