REMARK  Name = =
REMARK  2 active torsions:
REMARK  status: ('A' for Active; 'I' for Inactive)
REMARK    1  A    between atoms: C_1  and  C_19
REMARK    2  A    between atoms: C_22  and  O_25
REMARK                            x       y       z     vdW  Elec       q    Type
REMARK                         _______ _______ _______ _____ _____    ______ ____
ROOT
ATOM      1  C   UNL     1      53.195 156.838  28.627  0.00  0.00    +0.022 C 
ATOM      2  C   UNL     1      52.186 157.915  28.820  0.00  0.00    +0.004 C 
ATOM      3  C   UNL     1      51.054 157.215  29.473  0.00  0.00    +0.000 C 
ATOM      4  C   UNL     1      50.117 158.071  30.242  0.00  0.00    +0.000 C 
ATOM      5  C   UNL     1      50.683 159.173  30.998  0.00  0.00    +0.000 C 
ATOM      6  C   UNL     1      49.873 160.391  31.193  0.00  0.00    +0.001 C 
ATOM      7  C   UNL     1      48.415 160.053  31.078  0.00  0.00    +0.007 C 
ATOM      8  C   UNL     1      48.195 159.581  29.654  0.00  0.00    +0.000 C 
ATOM      9  C   UNL     1      48.847 158.247  29.532  0.00  0.00    +0.000 C 
ATOM     10  C   UNL     1      47.496 161.167  31.434  0.00  0.00    +0.064 C 
ATOM     11  C   UNL     1      47.909 161.859  32.667  0.00  0.00    +0.151 C 
ATOM     12  O   UNL     1      47.294 162.825  33.040  0.00  0.00    -0.296 OA
ATOM     13  C   UNL     1      49.098 161.307  33.399  0.00  0.00    +0.065 C 
ATOM     14  C   UNL     1      50.219 161.216  32.385  0.00  0.00    +0.008 C 
ATOM     15  C   UNL     1      52.155 159.393  30.852  0.00  0.00    +0.000 C 
ATOM     16  C   UNL     1      52.679 159.135  29.485  0.00  0.00    +0.000 C 
ATOM     17  C   UNL     1      51.594 156.048  30.232  0.00  0.00    +0.000 C 
ATOM     18  C   UNL     1      52.973 155.830  29.723  0.00  0.00    +0.004 C 
ENDROOT
BRANCH   1  19
ATOM     19  C   UNL     1      52.976 156.150  27.309  0.00  0.00    -0.022 C 
ATOM     20  C   UNL     1      53.449 156.731  26.143  0.00  0.00    -0.001 C 
ATOM     21  C   UNL     1      53.278 156.150  24.903  0.00  0.00    +0.036 C 
ATOM     22  C   UNL     1      52.612 154.944  24.806  0.00  0.00    +0.134 C 
ATOM     23  C   UNL     1      52.133 154.347  25.961  0.00  0.00    +0.036 C 
ATOM     24  C   UNL     1      52.319 154.954  27.195  0.00  0.00    -0.001 C 
BRANCH  22  25
ATOM     25  O   UNL     1      52.410 154.310  23.594  0.00  0.00    -0.506 OA
ATOM     26  H   UNL     1      52.727 154.699  22.803  0.00  0.00    +0.292 HD
ENDBRANCH  22  25
ENDBRANCH   1  19
TORSDOF 2
