REMARK  Name = =
REMARK  2 active torsions:
REMARK  status: ('A' for Active; 'I' for Inactive)
REMARK    1  A    between atoms: C_1  and  C_20
REMARK    2  A    between atoms: C_23  and  O_26
REMARK                            x       y       z     vdW  Elec       q    Type
REMARK                         _______ _______ _______ _____ _____    ______ ____
ROOT
ATOM      1  C   UNL     1      48.256 161.731  33.630  0.00  0.00    +0.096 C 
ATOM      2  C   UNL     1      49.390 162.450  32.944  0.00  0.00    +0.020 C 
ATOM      3  C   UNL     1      49.355 161.979  31.529  0.00  0.00    +0.002 C 
ATOM      4  C   UNL     1      50.640 161.588  30.946  0.00  0.00    +0.000 C 
ATOM      5  C   UNL     1      51.721 162.543  31.333  0.00  0.00    +0.000 C 
ATOM      6  C   UNL     1      53.061 162.233  30.798  0.00  0.00    +0.001 C 
ATOM      7  C   UNL     1      53.256 160.845  30.295  0.00  0.00    +0.007 C 
ATOM      8  C   UNL     1      52.483 159.894  31.162  0.00  0.00    +0.000 C 
ATOM      9  C   UNL     1      51.009 160.161  30.998  0.00  0.00    +0.000 C 
ATOM     10  C   UNL     1      54.733 160.541  30.291  0.00  0.00    +0.064 C 
ATOM     11  C   UNL     1      55.524 161.797  30.515  0.00  0.00    +0.151 C 
ATOM     12  O   UNL     1      56.490 161.792  31.256  0.00  0.00    -0.296 OA
ATOM     13  C   UNL     1      55.135 163.062  29.835  0.00  0.00    +0.065 C 
ATOM     14  C   UNL     1      53.606 163.204  29.809  0.00  0.00    +0.008 C 
ATOM     15  C   UNL     1      51.806 162.828  32.795  0.00  0.00    +0.000 C 
ATOM     16  C   UNL     1      50.717 162.230  33.614  0.00  0.00    +0.002 C 
ATOM     17  C   UNL     1      48.233 161.020  31.402  0.00  0.00    +0.002 C 
ATOM     18  C   UNL     1      47.272 161.534  32.486  0.00  0.00    +0.022 C 
ATOM     19  N   UNL     1      48.723 160.442  34.036  0.00  0.00    -0.130 NA
ENDROOT
BRANCH   1  20
ATOM     20  C   UNL     1      47.688 162.470  34.755  0.00  0.00    -0.006 C 
ATOM     21  C   UNL     1      47.900 162.002  36.035  0.00  0.00    +0.000 C 
ATOM     22  C   UNL     1      47.403 162.632  37.159  0.00  0.00    +0.036 C 
ATOM     23  C   UNL     1      46.659 163.783  37.026  0.00  0.00    +0.134 C 
ATOM     24  C   UNL     1      46.440 164.261  35.752  0.00  0.00    +0.036 C 
ATOM     25  C   UNL     1      46.942 163.623  34.633  0.00  0.00    +0.000 C 
BRANCH  23  26
ATOM     26  O   UNL     1      46.157 164.421  38.161  0.00  0.00    -0.506 OA
ATOM     27  H   UNL     1      46.327 164.066  39.011  0.00  0.00    +0.292 HD
ENDBRANCH  23  26
ENDBRANCH   1  20
TORSDOF 2
