REMARK  Name = =
REMARK  4 active torsions:
REMARK  status: ('A' for Active; 'I' for Inactive)
REMARK    1  A    between atoms: C_1  and  C_19
REMARK    2  A    between atoms: C_1  and  N_26
REMARK    3  A    between atoms: C_22  and  O_25
REMARK    4  A    between atoms: N_26  and  N_27
REMARK                            x       y       z     vdW  Elec       q    Type
REMARK                         _______ _______ _______ _____ _____    ______ ____
ROOT
ATOM      1  C   UNL     1      50.698 157.967  30.106  0.00  0.00    +0.098 C 
ATOM      2  C   UNL     1      51.293 157.254  28.858  0.00  0.00    +0.020 C 
ATOM      3  C   UNL     1      52.746 157.435  29.096  0.00  0.00    +0.002 C 
ATOM      4  C   UNL     1      53.550 156.485  28.281  0.00  0.00    +0.000 C 
ATOM      5  C   UNL     1      53.205 155.032  28.477  0.00  0.00    +0.000 C 
ATOM      6  C   UNL     1      53.437 154.366  27.106  0.00  0.00    +0.001 C 
ATOM      7  C   UNL     1      52.325 154.839  26.262  0.00  0.00    +0.007 C 
ATOM      8  C   UNL     1      52.534 156.305  25.971  0.00  0.00    +0.000 C 
ATOM      9  C   UNL     1      53.602 156.884  26.837  0.00  0.00    +0.000 C 
ATOM     10  C   UNL     1      51.888 154.014  25.127  0.00  0.00    +0.064 C 
ATOM     11  C   UNL     1      51.914 152.583  25.530  0.00  0.00    +0.151 C 
ATOM     12  O   UNL     1      50.938 151.836  25.383  0.00  0.00    -0.296 OA
ATOM     13  C   UNL     1      53.153 152.069  26.112  0.00  0.00    +0.065 C 
ATOM     14  C   UNL     1      53.751 152.944  27.172  0.00  0.00    +0.008 C 
ATOM     15  C   UNL     1      51.809 154.773  28.920  0.00  0.00    +0.000 C 
ATOM     16  C   UNL     1      50.823 155.861  28.751  0.00  0.00    +0.002 C 
ATOM     17  C   UNL     1      52.899 157.276  30.581  0.00  0.00    +0.002 C 
ATOM     18  C   UNL     1      51.488 157.211  31.154  0.00  0.00    +0.022 C 
ENDROOT
BRANCH   1  19
ATOM     19  C   UNL     1      51.134 159.361  30.087  0.00  0.00    -0.006 C 
ATOM     20  C   UNL     1      50.398 160.345  29.402  0.00  0.00    +0.000 C 
ATOM     21  C   UNL     1      50.775 161.664  29.396  0.00  0.00    +0.036 C 
ATOM     22  C   UNL     1      51.907 162.084  30.071  0.00  0.00    +0.134 C 
ATOM     23  C   UNL     1      52.637 161.145  30.743  0.00  0.00    +0.036 C 
ATOM     24  C   UNL     1      52.245 159.807  30.741  0.00  0.00    +0.000 C 
BRANCH  22  25
ATOM     25  O   UNL     1      52.277 163.442  30.055  0.00  0.00    -0.506 OA
ATOM     26  H   UNL     1      51.757 164.064  29.585  0.00  0.00    +0.292 HD
ENDBRANCH  22  25
ENDBRANCH   1  19
BRANCH   1  27
ATOM     27  N   UNL     1      49.309 157.726  30.090  0.00  0.00    -0.120 NA
BRANCH  27  28
ATOM     28  N   UNL     1      48.491 158.680  30.653  0.00  0.00    -0.151 N 
ATOM     29  C   UNL     1      47.438 159.258  29.912  0.00  0.00    +0.262 C 
ATOM     30  O   UNL     1      47.333 159.139  28.648  0.00  0.00    -0.272 OA
ATOM     31  C   UNL     1      46.361 160.062  30.561  0.00  0.00    +0.157 C 
ATOM     32  N   UNL     1      46.451 160.142  31.982  0.00  0.00    -0.282 NA
ATOM     33  C   UNL     1      47.807 160.299  32.473  0.00  0.00    +0.157 C 
ATOM     34  C   UNL     1      48.635 159.148  31.987  0.00  0.00    +0.262 C 
ATOM     35  O   UNL     1      49.445 158.618  32.777  0.00  0.00    -0.272 OA
ATOM     36  H   UNL     1      46.062 159.286  32.378  0.00  0.00    +0.124 HD
ENDBRANCH  27  28
ENDBRANCH   1  27
TORSDOF 4
