REMARK  Name = =
REMARK  5 active torsions:
REMARK  status: ('A' for Active; 'I' for Inactive)
REMARK    1  A    between atoms: C_1  and  C_19
REMARK    2  A    between atoms: C_1  and  N_26
REMARK    3  A    between atoms: C_22  and  O_25
REMARK    4  A    between atoms: N_26  and  N_27
REMARK    5  A    between atoms: C_30  and  C_35
REMARK                            x       y       z     vdW  Elec       q    Type
REMARK                         _______ _______ _______ _____ _____    ______ ____
ROOT
ATOM      1  C   UNL     1      49.171 160.629  30.404  0.00  0.00    +0.098 C 
ATOM      2  C   UNL     1      50.221 159.542  30.715  0.00  0.00    +0.020 C 
ATOM      3  C   UNL     1      49.519 158.371  30.047  0.00  0.00    +0.002 C 
ATOM      4  C   UNL     1      50.544 157.280  29.926  0.00  0.00    +0.000 C 
ATOM      5  C   UNL     1      51.502 157.655  28.856  0.00  0.00    +0.000 C 
ATOM      6  C   UNL     1      52.487 156.589  28.516  0.00  0.00    +0.001 C 
ATOM      7  C   UNL     1      51.893 155.242  28.484  0.00  0.00    +0.007 C 
ATOM      8  C   UNL     1      50.410 155.168  28.564  0.00  0.00    +0.000 C 
ATOM      9  C   UNL     1      49.980 155.910  29.826  0.00  0.00    +0.000 C 
ATOM     10  C   UNL     1      52.528 154.247  27.585  0.00  0.00    +0.064 C 
ATOM     11  C   UNL     1      53.071 154.811  26.338  0.00  0.00    +0.151 C 
ATOM     12  O   UNL     1      53.631 154.106  25.520  0.00  0.00    -0.296 OA
ATOM     13  C   UNL     1      52.931 156.258  26.077  0.00  0.00    +0.065 C 
ATOM     14  C   UNL     1      53.347 156.969  27.363  0.00  0.00    +0.008 C 
ATOM     15  C   UNL     1      52.039 159.020  29.020  0.00  0.00    +0.000 C 
ATOM     16  C   UNL     1      51.556 159.829  30.154  0.00  0.00    +0.002 C 
ATOM     17  C   UNL     1      49.126 158.973  28.712  0.00  0.00    +0.002 C 
ATOM     18  C   UNL     1      49.100 160.493  28.924  0.00  0.00    +0.022 C 
ENDROOT
BRANCH   1  19
ATOM     19  C   UNL     1      47.953 160.170  31.107  0.00  0.00    -0.006 C 
ATOM     20  C   UNL     1      48.151 159.381  32.245  0.00  0.00    +0.000 C 
ATOM     21  C   UNL     1      47.103 158.892  32.978  0.00  0.00    +0.036 C 
ATOM     22  C   UNL     1      45.821 159.189  32.576  0.00  0.00    +0.134 C 
ATOM     23  C   UNL     1      45.609 159.979  31.437  0.00  0.00    +0.036 C 
ATOM     24  C   UNL     1      46.675 160.461  30.714  0.00  0.00    +0.000 C 
BRANCH  22  25
ATOM     25  O   UNL     1      44.758 158.700  33.311  0.00  0.00    -0.506 OA
ATOM     26  H   UNL     1      44.916 158.173  34.070  0.00  0.00    +0.292 HD
ENDBRANCH  22  25
ENDBRANCH   1  19
BRANCH   1  27
ATOM     27  N   UNL     1      49.677 161.867  30.901  0.00  0.00    -0.120 NA
BRANCH  27  28
ATOM     28  N   UNL     1      49.517 162.089  32.249  0.00  0.00    -0.150 N 
ATOM     29  C   UNL     1      48.307 162.656  32.730  0.00  0.00    +0.266 C 
ATOM     30  O   UNL     1      47.554 163.361  32.010  0.00  0.00    -0.271 OA
ATOM     31  C   UNL     1      47.940 162.383  34.162  0.00  0.00    +0.174 C 
ATOM     32  N   UNL     1      49.113 162.229  34.997  0.00  0.00    -0.279 NA
ATOM     33  C   UNL     1      50.069 161.287  34.515  0.00  0.00    +0.158 C 
ATOM     34  C   UNL     1      50.538 161.769  33.192  0.00  0.00    +0.262 C 
ATOM     35  O   UNL     1      51.755 161.880  32.939  0.00  0.00    -0.272 OA
ATOM     36  H   UNL     1      48.807 161.926  35.922  0.00  0.00    +0.124 HD
BRANCH  31  37
ATOM     37  C   UNL     1      47.186 163.525  34.723  0.00  0.00    +0.082 C 
ATOM     38  C   UNL     1      47.003 163.712  36.069  0.00  0.00    +0.018 C 
ATOM     39  C   UNL     1      46.281 164.807  36.552  0.00  0.00    +0.022 C 
ATOM     40  C   UNL     1      45.754 165.698  35.649  0.00  0.00    +0.022 C 
ATOM     41  C   UNL     1      45.939 165.506  34.308  0.00  0.00    +0.099 C 
ATOM     42  N   UNL     1      46.636 164.447  33.883  0.00  0.00    -0.246 NA
ATOM     43  C   UNL     1      46.081 165.027  37.902  0.00  0.00    +0.099 C 
ATOM     44  N   UNL     1      46.608 164.145  38.760  0.00  0.00    -0.242 NA
ATOM     45  C   UNL     1      47.309 163.080  38.344  0.00  0.00    +0.099 C 
ATOM     46  C   UNL     1      47.520 162.841  36.999  0.00  0.00    +0.022 C 
ENDBRANCH  31  37
ENDBRANCH  27  28
ENDBRANCH   1  27
TORSDOF 5
