REMARK  Name = =
REMARK  3 active torsions:
REMARK  status: ('A' for Active; 'I' for Inactive)
REMARK    1  A    between atoms: C_1  and  C_20
REMARK    2  A    between atoms: C_7  and  O_24
REMARK    3  A    between atoms: C_10  and  C_12
REMARK                            x       y       z     vdW  Elec       q    Type
REMARK                         _______ _______ _______ _____ _____    ______ ____
ROOT
ATOM      1  C   UNL     1     -16.259 -33.853  31.310  0.00  0.00    +0.021 C 
ATOM      2  C   UNL     1     -15.239 -33.908  30.402  0.00  0.00    +0.070 C 
ATOM      3  N   UNL     1     -15.680 -34.404  29.219  0.00  0.00    -0.233 N 
ATOM      4  C   UNL     1     -16.985 -34.662  29.386  0.00  0.00    +0.058 C 
ATOM      5  C   UNL     1     -17.381 -34.336  30.661  0.00  0.00    +0.017 C 
ATOM      6  C   UNL     1     -18.667 -34.491  31.131  0.00  0.00    +0.038 C 
ATOM      7  C   UNL     1     -19.617 -35.006  30.268  0.00  0.00    +0.134 C 
ATOM      8  C   UNL     1     -19.271 -35.348  28.982  0.00  0.00    +0.038 C 
ATOM      9  C   UNL     1     -17.970 -35.178  28.546  0.00  0.00    +0.018 C 
ATOM     10  C   UNL     1     -14.878 -34.597  28.076  0.00  0.00    +0.257 C 
ATOM     11  O   UNL     1     -13.631 -34.297  28.128  0.00  0.00    -0.269 OA
ENDROOT
BRANCH  10  12
ATOM     12  C   UNL     1     -15.307 -35.112  26.792  0.00  0.00    +0.054 C 
ATOM     13  C   UNL     1     -16.490 -34.663  26.207  0.00  0.00    +0.005 C 
ATOM     14  C   UNL     1     -16.907 -35.146  24.976  0.00  0.00    +0.012 C 
ATOM     15  C   UNL     1     -16.168 -36.088  24.284  0.00  0.00    +0.058 C 
ATOM     16  C   UNL     1     -14.980 -36.544  24.865  0.00  0.00    +0.012 C 
ATOM     17  C   UNL     1     -14.591 -36.055  26.075  0.00  0.00    +0.005 C 
ATOM     18 CL   UNL     1     -16.715 -36.688  22.730  0.00  0.00    -0.082 Cl
ENDBRANCH  10  12
BRANCH   1  20
ATOM     19  O   UNL     1     -14.976 -32.670  32.932  0.00  0.00    -0.352 OA
ATOM     20  C   UNL     1     -16.161 -33.373  32.700  0.00  0.00    +0.139 C 
ATOM     21  C   UNL     1     -17.241 -32.398  32.983  0.00  0.00    +0.037 C 
ATOM     22  C   UNL     1     -16.716 -31.184  33.024  0.00  0.00    +0.035 C 
ATOM     23  C   UNL     1     -15.234 -31.325  32.764  0.00  0.00    +0.143 C 
ENDBRANCH   1  20
BRANCH   7  24
ATOM     24  O   UNL     1     -20.900 -35.154  30.756  0.00  0.00    -0.506 OA
ATOM     25  H   UNL     1     -21.097 -34.909  31.639  0.00  0.00    +0.292 HD
ENDBRANCH   7  24
TORSDOF 3
