MODEL 1
REMARK VINA RESULT:    -8.668      0.000      0.000
REMARK INTER + INTRA:         -10.316
REMARK INTER:                  -9.935
REMARK INTRA:                  -0.381
REMARK UNBOUND:                -0.381
REMARK  Name = =
REMARK  3 active torsions:
REMARK  status: ('A' for Active; 'I' for Inactive)
REMARK    1  A    between atoms: N_1  and  S_20
REMARK    2  A    between atoms: C_12  and  O_19
REMARK    3  A    between atoms: S_20  and  C_21
REMARK                            x       y       z     vdW  Elec       q    Type
REMARK                         _______ _______ _______ _____ _____    ______ ____
ROOT
ATOM      1  N   UNL     1      52.483 154.223  27.948  0.00  0.00    -0.225 NA
ATOM      2  C   UNL     1      51.709 153.585  26.923  0.00  0.00    +0.077 C 
ATOM      3  C   UNL     1      52.401 153.804  25.619  0.00  0.00    +0.045 C 
ATOM      4  C   UNL     1      53.645 152.948  25.723  0.00  0.00    +0.065 C 
ATOM      5  C   UNL     1      54.413 152.927  24.426  0.00  0.00    +0.174 C 
ATOM      6  O   UNL     1      55.071 151.710  24.526  0.00  0.00    -0.476 OA
ATOM      7  C   UNL     1      54.093 150.832  25.050  0.00  0.00    +0.168 C 
ATOM      8  C   UNL     1      53.203 151.570  25.787  0.00  0.00    +0.014 C 
ATOM      9  C   UNL     1      52.125 151.173  26.462  0.00  0.00    -0.022 C 
ATOM     10  C   UNL     1      51.855 149.815  26.419  0.00  0.00    -0.001 C 
ATOM     11  C   UNL     1      52.704 148.967  25.693  0.00  0.00    +0.039 C 
ATOM     12  C   UNL     1      53.816 149.472  25.011  0.00  0.00    +0.167 C 
ATOM     13  C   UNL     1      51.322 152.173  27.188  0.00  0.00    +0.043 C 
ATOM     14  C   UNL     1      55.128 154.197  24.403  0.00  0.00    +0.070 C 
ATOM     15  C   UNL     1      54.230 155.314  24.890  0.00  0.00    -0.027 C 
ATOM     16  C   UNL     1      53.024 155.137  25.428  0.00  0.00    -0.029 C 
ATOM     17  C   UNL     1      54.502 153.319  26.905  0.00  0.00    +0.026 C 
ATOM     18  C   UNL     1      53.707 153.524  28.140  0.00  0.00    +0.084 C 
ENDROOT
BRANCH  12  19
ATOM     19  O   UNL     1      54.684 148.678  24.282  0.00  0.00    -0.503 OA
ATOM     20  H   UNL     1      55.610 148.795  24.368  0.00  0.00    +0.292 HD
ENDBRANCH  12  19
BRANCH   1  21
ATOM     21  S   UNL     1      51.619 154.563  29.408  0.00  0.00    -0.039 S 
BRANCH  21  22
ATOM     22  C   UNL     1      51.407 156.323  29.578  0.00  0.00    +0.040 C 
ATOM     23  C   UNL     1      52.374 157.240  29.251  0.00  0.00    +0.007 C 
ATOM     24  C   UNL     1      52.164 158.595  29.400  0.00  0.00    +0.001 C 
ATOM     25  C   UNL     1      50.964 159.073  29.886  0.00  0.00    +0.000 C 
ATOM     26  C   UNL     1      49.989 158.151  30.216  0.00  0.00    +0.001 C 
ATOM     27  C   UNL     1      50.199 156.797  30.067  0.00  0.00    +0.007 C 
ENDBRANCH  21  22
ENDBRANCH   1  21
TORSDOF 3
ENDMDL
