REMARK  Name = =
REMARK  3 active torsions:
REMARK  status: ('A' for Active; 'I' for Inactive)
REMARK    1  A    between atoms: N_1  and  S_20
REMARK    2  A    between atoms: C_12  and  O_19
REMARK    3  A    between atoms: S_20  and  C_21
REMARK                            x       y       z     vdW  Elec       q    Type
REMARK                         _______ _______ _______ _____ _____    ______ ____
ROOT
ATOM      1  N   UNL     1      51.255 157.519  29.242  0.00  0.00    -0.225 NA
ATOM      2  C   UNL     1      52.612 157.111  29.022  0.00  0.00    +0.077 C 
ATOM      3  C   UNL     1      52.706 155.650  29.309  0.00  0.00    +0.045 C 
ATOM      4  C   UNL     1      51.943 155.009  28.169  0.00  0.00    +0.065 C 
ATOM      5  C   UNL     1      52.049 153.506  28.208  0.00  0.00    +0.174 C 
ATOM      6  O   UNL     1      51.859 153.191  26.871  0.00  0.00    -0.476 OA
ATOM      7  C   UNL     1      52.614 154.166  26.177  0.00  0.00    +0.168 C 
ATOM      8  C   UNL     1      52.683 155.292  26.957  0.00  0.00    +0.014 C 
ATOM      9  C   UNL     1      53.286 156.455  26.716  0.00  0.00    -0.022 C 
ATOM     10  C   UNL     1      53.943 156.552  25.500  0.00  0.00    -0.001 C 
ATOM     11  C   UNL     1      53.935 155.457  24.624  0.00  0.00    +0.039 C 
ATOM     12  C   UNL     1      53.275 154.270  24.960  0.00  0.00    +0.167 C 
ATOM     13  C   UNL     1      53.211 157.527  27.725  0.00  0.00    +0.043 C 
ATOM     14  C   UNL     1      51.107 153.099  29.243  0.00  0.00    +0.070 C 
ATOM     15  C   UNL     1      51.199 154.031  30.433  0.00  0.00    -0.027 C 
ATOM     16  C   UNL     1      51.907 155.159  30.459  0.00  0.00    -0.029 C 
ATOM     17  C   UNL     1      50.520 155.494  28.085  0.00  0.00    +0.026 C 
ATOM     18  C   UNL     1      50.411 156.965  28.240  0.00  0.00    +0.084 C 
ENDROOT
BRANCH  12  19
ATOM     19  O   UNL     1      53.237 153.162  24.132  0.00  0.00    -0.503 OA
ATOM     20  H   UNL     1      53.668 153.184  23.300  0.00  0.00    +0.292 HD
ENDBRANCH  12  19
BRANCH   1  21
ATOM     21  S   UNL     1      51.037 159.216  29.499  0.00  0.00    -0.039 S 
BRANCH  21  22
ATOM     22  C   UNL     1      49.644 159.481  30.577  0.00  0.00    +0.040 C 
ATOM     23  C   UNL     1      49.742 159.543  31.944  0.00  0.00    +0.007 C 
ATOM     24  C   UNL     1      48.634 159.750  32.739  0.00  0.00    +0.001 C 
ATOM     25  C   UNL     1      47.383 159.903  32.178  0.00  0.00    +0.000 C 
ATOM     26  C   UNL     1      47.282 159.840  30.801  0.00  0.00    +0.001 C 
ATOM     27  C   UNL     1      48.389 159.633  30.007  0.00  0.00    +0.007 C 
ENDBRANCH  21  22
ENDBRANCH   1  21
TORSDOF 3
