MODEL 1
REMARK VINA RESULT:    -8.059      0.000      0.000
REMARK INTER + INTRA:         -12.037
REMARK INTER:                 -11.121
REMARK INTRA:                  -0.916
REMARK UNBOUND:                -0.916
REMARK  Name = =
REMARK  7 active torsions:
REMARK  status: ('A' for Active; 'I' for Inactive)
REMARK    1  A    between atoms: C_1  and  O_25
REMARK    2  A    between atoms: C_11  and  C_16
REMARK    3  A    between atoms: N_18  and  C_22
REMARK    4  A    between atoms: O_25  and  P_26
REMARK    5  A    between atoms: P_26  and  O_28
REMARK    6  A    between atoms: P_26  and  O_29
REMARK    7  A    between atoms: O_29  and  S_30
REMARK                            x       y       z     vdW  Elec       q    Type
REMARK                         _______ _______ _______ _____ _____    ______ ____
ROOT
ATOM      1  C   UNL     1       4.182  -2.682  26.797  0.00  0.00    +0.245 C 
ATOM      2  O   UNL     1       3.263  -1.634  26.765  0.00  0.00    -0.327 OA
ATOM      3  C   UNL     1       1.991  -2.141  26.528  0.00  0.00    +0.177 C 
ATOM      4  C   UNL     1       1.572  -3.202  27.476  0.00  0.00    +0.174 C 
ATOM      5  O   UNL     1       1.145  -4.307  26.761  0.00  0.00    -0.326 OA
ATOM      6  C   UNL     1       0.691  -5.343  27.531  0.00  0.00    +0.265 C 
ATOM      7  O   UNL     1      -0.656  -5.573  27.464  0.00  0.00    -0.321 OA
ATOM      8  C   UNL     1      -0.917  -6.848  27.956  0.00  0.00    +0.209 C 
ATOM      9  C   UNL     1       0.241  -7.494  28.608  0.00  0.00    +0.188 C 
ATOM     10  O   UNL     1       0.385  -8.718  28.476  0.00  0.00    -0.293 OA
ATOM     11  C   UNL     1       1.242  -6.747  29.412  0.00  0.00    +0.130 C 
ATOM     12  C   UNL     1       1.129  -5.278  28.973  0.00  0.00    +0.183 C 
ATOM     13  O   UNL     1       2.395  -4.737  29.135  0.00  0.00    -0.350 OA
ATOM     14  C   UNL     1       2.577  -3.525  28.534  0.00  0.00    +0.150 C 
ATOM     15  C   UNL     1       4.001  -3.409  28.088  0.00  0.00    +0.094 C 
ENDROOT
BRANCH  11  16
ATOM     16  C   UNL     1       1.056  -6.887  30.871  0.00  0.00    +0.064 C 
ATOM     17  N   UNL     1      -0.100  -7.235  31.325  0.00  0.00    -0.186 NA
ATOM     18  N   UNL     1      -0.375  -7.393  32.670  0.00  0.00    -0.210 N 
ATOM     19  C   UNL     1       0.730  -7.401  33.606  0.00  0.00    +0.117 C 
ATOM     20  C   UNL     1       1.701  -6.340  33.205  0.00  0.00    +0.030 C 
ATOM     21  C   UNL     1       2.181  -6.633  31.796  0.00  0.00    +0.045 C 
BRANCH  18  22
ATOM     22  C   UNL     1      -1.691  -7.545  33.171  0.00  0.00    +0.096 C 
ATOM     23  C   UNL     1      -2.761  -7.167  32.492  0.00  0.00    +0.086 C 
ATOM     24 CL   UNL     1      -4.369  -7.367  33.134  0.00  0.00    -0.080 Cl
ENDBRANCH  18  22
ENDBRANCH  11  16
BRANCH   1  25
ATOM     25  O   UNL     1       5.452  -2.153  26.668  0.00  0.00    -0.271 OA
BRANCH  25  26
ATOM     26  P   UNL     1       5.888  -1.952  25.063  0.00  0.00    +0.320 P 
ATOM     27  S   UNL     1       5.264  -3.315  24.164  0.00  0.00    +0.023 S 
BRANCH  26  28
ATOM     28  O   UNL     1       7.591  -2.034  24.879  0.00  0.00    -0.326 OA
ATOM     29  H   UNL     1       7.809  -2.188  23.947  0.00  0.00    +0.219 HD
ENDBRANCH  26  28
BRANCH  26  30
ATOM     30  O   UNL     1       5.405  -0.511  24.388  0.00  0.00    -0.236 OA
BRANCH  30  31
ATOM     31  S   UNL     1       4.017  -0.555  23.501  0.00  0.00    +0.015 S 
ATOM     32  O   UNL     1       3.011   0.419  24.116  0.00  0.00    -0.149 OA
ATOM     33  C   UNL     1       4.230   0.109  22.072  0.00  0.00    +0.105 C 
ATOM     34  H   UNL     1       3.632  -1.859  23.451  0.00  0.00    +0.141 HD
ENDBRANCH  30  31
ENDBRANCH  26  30
ENDBRANCH  25  26
ENDBRANCH   1  25
TORSDOF 7
ENDMDL
