MODEL 1
REMARK VINA RESULT:    -7.486      0.000      0.000
REMARK INTER + INTRA:         -11.289
REMARK INTER:                 -10.112
REMARK INTRA:                  -1.177
REMARK UNBOUND:                -1.177
REMARK  Name = =
REMARK  6 active torsions:
REMARK  status: ('A' for Active; 'I' for Inactive)
REMARK    1  A    between atoms: C_1  and  O_22
REMARK    2  A    between atoms: C_2  and  C_7
REMARK    3  A    between atoms: C_7  and  S_11
REMARK    4  A    between atoms: S_11  and  N_14
REMARK    5  A    between atoms: O_22  and  C_23
REMARK    6  A    between atoms: C_23  and  C_30
REMARK                            x       y       z     vdW  Elec       q    Type
REMARK                         _______ _______ _______ _____ _____    ______ ____
ROOT
ATOM      1  C   UNL     1      61.206 161.835  40.096  0.00  0.00    +0.147 C 
ATOM      2  C   UNL     1      61.642 162.416  38.932  0.00  0.00    +0.077 C 
ATOM      3  C   UNL     1      62.952 162.224  38.536  0.00  0.00    +0.103 C 
ATOM      4  N   UNL     1      63.768 161.487  39.281  0.00  0.00    -0.242 NA
ATOM      5  C   UNL     1      63.379 160.901  40.428  0.00  0.00    +0.102 C 
ATOM      6  C   UNL     1      62.071 161.078  40.846  0.00  0.00    +0.058 C 
ENDROOT
BRANCH   2   7
ATOM      7  C   UNL     1      60.744 163.246  38.148  0.00  0.00    +0.185 C 
ATOM      8  C   UNL     1      60.063 162.691  37.167  0.00  0.00    +0.298 C 
ATOM      9  F   UNL     1      59.202 163.383  36.380  0.00  0.00    -0.171 F 
ATOM     10  F   UNL     1      60.186 161.365  36.881  0.00  0.00    -0.171 F 
BRANCH   7  11
ATOM     11  S   UNL     1      60.610 164.945  38.431  0.00  0.00    +0.083 S 
ATOM     12  O   UNL     1      61.531 165.471  39.488  0.00  0.00    -0.150 OA
ATOM     13  O   UNL     1      59.182 165.336  38.711  0.00  0.00    -0.150 OA
BRANCH  11  14
ATOM     14  N   UNL     1      61.130 165.729  36.950  0.00  0.00    -0.160 N 
ATOM     15  C   UNL     1      60.336 166.822  36.515  0.00  0.00    +0.244 C 
ATOM     16  O   UNL     1      59.873 167.498  37.497  0.00  0.00    -0.273 OA
ATOM     17  C   UNL     1      59.991 167.263  35.159  0.00  0.00    +0.087 C 
ATOM     18  C   UNL     1      61.211 167.478  34.317  0.00  0.00    +0.010 C 
ATOM     19  C   UNL     1      61.875 166.124  34.129  0.00  0.00    +0.002 C 
ATOM     20  C   UNL     1      62.886 165.956  35.245  0.00  0.00    +0.023 C 
ATOM     21  C   UNL     1      62.308 165.143  36.363  0.00  0.00    +0.119 C 
ENDBRANCH  11  14
ENDBRANCH   7  11
ENDBRANCH   2   7
BRANCH   1  22
ATOM     22  O   UNL     1      59.920 161.970  40.562  0.00  0.00    -0.442 OA
BRANCH  22  23
ATOM     23  C   UNL     1      58.938 161.001  40.732  0.00  0.00    +0.329 C 
ATOM     24  O   UNL     1      59.340 159.898  41.472  0.00  0.00    -0.410 OA
ATOM     25  C   UNL     1      59.301 158.777  40.679  0.00  0.00    +0.344 C 
ATOM     26  O   UNL     1      59.595 157.576  40.981  0.00  0.00    -0.245 OA
ATOM     27  C   UNL     1      58.854 159.164  39.354  0.00  0.00    +0.085 C 
ATOM     28  C   UNL     1      58.643 160.458  39.387  0.00  0.00    +0.067 C 
BRANCH  23  30
ATOM     29  O   UNL     1      56.566 160.609  40.951  0.00  0.00    -0.472 OA
ATOM     30  C   UNL     1      57.624 161.473  41.297  0.00  0.00    +0.246 C 
ATOM     31  C   UNL     1      57.363 162.917  41.101  0.00  0.00    +0.056 C 
ATOM     32  C   UNL     1      55.970 163.304  41.431  0.00  0.00    +0.033 C 
ATOM     33  C   UNL     1      54.996 162.245  41.605  0.00  0.00    +0.012 C 
ATOM     34  C   UNL     1      55.290 160.927  41.370  0.00  0.00    +0.135 C 
ATOM     35  C   UNL     1      54.318 159.933  41.555  0.00  0.00    +0.037 C 
ATOM     36  C   UNL     1      53.057 160.284  41.974  0.00  0.00    +0.003 C 
ATOM     37  C   UNL     1      52.753 161.617  42.213  0.00  0.00    -0.000 C 
ATOM     38  C   UNL     1      53.733 162.569  42.021  0.00  0.00    -0.001 C 
ENDBRANCH  23  30
ENDBRANCH  22  23
ENDBRANCH   1  22
TORSDOF 6
ENDMDL
