REMARK  Name = =
REMARK  6 active torsions:
REMARK  status: ('A' for Active; 'I' for Inactive)
REMARK    1  A    between atoms: C_1  and  O_22
REMARK    2  A    between atoms: C_2  and  C_7
REMARK    3  A    between atoms: C_7  and  S_11
REMARK    4  A    between atoms: S_11  and  N_14
REMARK    5  A    between atoms: O_22  and  C_23
REMARK    6  A    between atoms: C_23  and  C_30
REMARK                            x       y       z     vdW  Elec       q    Type
REMARK                         _______ _______ _______ _____ _____    ______ ____
ROOT
ATOM      1  C   UNL     1      53.247 155.552  25.853  0.00  0.00    +0.147 C 
ATOM      2  C   UNL     1      54.153 154.648  25.358  0.00  0.00    +0.077 C 
ATOM      3  C   UNL     1      55.018 155.045  24.356  0.00  0.00    +0.103 C 
ATOM      4  N   UNL     1      54.961 156.286  23.886  0.00  0.00    -0.242 NA
ATOM      5  C   UNL     1      54.087 157.201  24.344  0.00  0.00    +0.102 C 
ATOM      6  C   UNL     1      53.211 156.827  25.348  0.00  0.00    +0.058 C 
ENDROOT
BRANCH   2   7
ATOM      7  C   UNL     1      54.178 153.286  25.863  0.00  0.00    +0.185 C 
ATOM      8  C   UNL     1      55.341 152.733  26.138  0.00  0.00    +0.298 C 
ATOM      9  F   UNL     1      55.465 151.468  26.612  0.00  0.00    -0.171 F 
ATOM     10  F   UNL     1      56.508 153.412  25.959  0.00  0.00    -0.171 F 
BRANCH   7  11
ATOM     11  S   UNL     1      52.727 152.364  26.039  0.00  0.00    +0.083 S 
ATOM     12  O   UNL     1      51.560 152.893  25.264  0.00  0.00    -0.150 OA
ATOM     13  O   UNL     1      52.376 152.181  27.493  0.00  0.00    -0.150 OA
BRANCH  11  14
ATOM     14  N   UNL     1      53.060 150.792  25.335  0.00  0.00    -0.160 N 
ATOM     15  C   UNL     1      52.375 149.694  25.919  0.00  0.00    +0.244 C 
ATOM     16  O   UNL     1      51.198 150.014  26.305  0.00  0.00    -0.273 OA
ATOM     17  C   UNL     1      52.810 148.309  26.130  0.00  0.00    +0.087 C 
ATOM     18  C   UNL     1      53.280 147.674  24.857  0.00  0.00    +0.010 C 
ATOM     19  C   UNL     1      54.533 148.414  24.418  0.00  0.00    +0.002 C 
ATOM     20  C   UNL     1      54.099 149.535  23.496  0.00  0.00    +0.023 C 
ATOM     21  C   UNL     1      54.002 150.828  24.247  0.00  0.00    +0.119 C 
ENDBRANCH  11  14
ENDBRANCH   7  11
ENDBRANCH   2   7
BRANCH   1  22
ATOM     22  O   UNL     1      52.354 155.243  26.851  0.00  0.00    -0.442 OA
BRANCH  22  23
ATOM     23  C   UNL     1      52.560 155.163  28.224  0.00  0.00    +0.329 C 
ATOM     24  O   UNL     1      53.827 154.736  28.592  0.00  0.00    -0.410 OA
ATOM     25  C   UNL     1      53.731 153.538  29.257  0.00  0.00    +0.344 C 
ATOM     26  O   UNL     1      54.661 152.823  29.752  0.00  0.00    -0.245 OA
ATOM     27  C   UNL     1      52.332 153.160  29.327  0.00  0.00    +0.085 C 
ATOM     28  C   UNL     1      51.652 154.107  28.726  0.00  0.00    +0.067 C 
BRANCH  23  30
ATOM     29  O   UNL     1      50.862 156.578  29.195  0.00  0.00    -0.472 OA
ATOM     30  C   UNL     1      52.249 156.403  29.020  0.00  0.00    +0.246 C 
ATOM     31  C   UNL     1      52.997 157.605  28.587  0.00  0.00    +0.056 C 
ATOM     32  C   UNL     1      52.494 158.855  29.207  0.00  0.00    +0.033 C 
ATOM     33  C   UNL     1      51.214 158.806  29.886  0.00  0.00    +0.012 C 
ATOM     34  C   UNL     1      50.418 157.691  29.880  0.00  0.00    +0.135 C 
ATOM     35  C   UNL     1      49.188 157.686  30.554  0.00  0.00    +0.037 C 
ATOM     36  C   UNL     1      48.776 158.811  31.226  0.00  0.00    +0.003 C 
ATOM     37  C   UNL     1      49.577 159.944  31.236  0.00  0.00    -0.000 C 
ATOM     38  C   UNL     1      50.781 159.915  30.563  0.00  0.00    -0.001 C 
ENDBRANCH  23  30
ENDBRANCH  22  23
ENDBRANCH   1  22
TORSDOF 6
