MODEL 1
REMARK VINA RESULT:    -7.421      0.000      0.000
REMARK INTER + INTRA:          -8.741
REMARK INTER:                  -8.289
REMARK INTRA:                  -0.452
REMARK UNBOUND:                -0.452
REMARK  Name = =
REMARK  2 active torsions:
REMARK  status: ('A' for Active; 'I' for Inactive)
REMARK    1  A    between atoms: N_1  and  C_22
REMARK    2  A    between atoms: C_19  and  C_31
REMARK                            x       y       z     vdW  Elec       q    Type
REMARK                         _______ _______ _______ _____ _____    ______ ____
ROOT
ATOM      1  N   UNL     1      61.717 161.006  39.105  0.00  0.00    -0.254 N 
ATOM      2  C   UNL     1      63.009 161.534  38.839  0.00  0.00    +0.087 C 
ATOM      3  C   UNL     1      63.271 162.788  38.305  0.00  0.00    +0.155 C 
ATOM      4  N   UNL     1      64.540 163.170  38.163  0.00  0.00    -0.227 NA
ATOM      5  C   UNL     1      65.557 162.335  38.536  0.00  0.00    +0.100 C 
ATOM      6  C   UNL     1      65.310 161.064  39.073  0.00  0.00    +0.022 C 
ATOM      7  C   UNL     1      64.018 160.674  39.218  0.00  0.00    +0.019 C 
ATOM      8  N   UNL     1      62.300 163.733  37.798  0.00  0.00    -0.214 N 
ATOM      9  C   UNL     1      61.094 163.347  37.109  0.00  0.00    +0.064 C 
ATOM     10  C   UNL     1      60.312 162.205  37.273  0.00  0.00    +0.068 C 
ATOM     11  C   UNL     1      59.182 162.027  36.522  0.00  0.00    +0.006 C 
ATOM     12  C   UNL     1      58.816 162.980  35.602  0.00  0.00    +0.000 C 
ATOM     13  C   UNL     1      59.610 164.114  35.448  0.00  0.00    +0.001 C 
ATOM     14  C   UNL     1      60.748 164.302  36.197  0.00  0.00    +0.015 C 
ATOM     15  C   UNL     1      60.586 161.083  38.174  0.00  0.00    +0.254 C 
ATOM     16  O   UNL     1      59.826 160.143  38.158  0.00  0.00    -0.270 OA
ATOM     17  C   UNL     1      62.624 165.063  37.995  0.00  0.00    +0.312 C 
ATOM     18  O   UNL     1      61.921 166.047  37.732  0.00  0.00    -0.264 OA
ENDROOT
BRANCH   1  22
ATOM     19  C   UNL     1      60.764 161.511  41.219  0.00  0.00    +0.039 C 
ATOM     20  C   UNL     1      62.059 161.717  41.945  0.00  0.00    +0.005 C 
ATOM     21  C   UNL     1      62.353 160.259  41.515  0.00  0.00    +0.020 C 
ATOM     22  C   UNL     1      61.504 160.349  40.355  0.00  0.00    +0.082 C 
BRANCH  19  31
ATOM     23  N   UNL     1      59.920 158.439  43.033  0.00  0.00    -0.313 N 
ATOM     24  C   UNL     1      58.884 158.728  42.122  0.00  0.00    +0.301 C 
ATOM     25  O   UNL     1      58.101 157.801  41.783  0.00  0.00    -0.253 OA
ATOM     26  N   UNL     1      58.741 160.044  41.619  0.00  0.00    -0.261 N 
ATOM     27  C   UNL     1      57.586 160.250  40.724  0.00  0.00    +0.127 C 
ATOM     28  C   UNL     1      56.906 161.528  41.152  0.00  0.00    +0.164 C 
ATOM     29  O   UNL     1      57.821 162.521  41.241  0.00  0.00    -0.350 OA
ATOM     30  C   UNL     1      58.748 162.380  42.229  0.00  0.00    +0.162 C 
ATOM     31  C   UNL     1      59.614 161.102  41.988  0.00  0.00    +0.108 C 
ATOM     32  H   UNL     1      60.543 159.149  43.312  0.00  0.00    +0.146 HD
ATOM     33  H   UNL     1      60.021 157.527  43.392  0.00  0.00    +0.146 HD
ENDBRANCH  19  31
ENDBRANCH   1  22
TORSDOF 2
ENDMDL
