REMARK  Name = =
REMARK  2 active torsions:
REMARK  status: ('A' for Active; 'I' for Inactive)
REMARK    1  A    between atoms: N_1  and  C_22
REMARK    2  A    between atoms: C_19  and  C_31
REMARK                            x       y       z     vdW  Elec       q    Type
REMARK                         _______ _______ _______ _____ _____    ______ ____
ROOT
ATOM      1  N   UNL     1      52.130 154.776  26.380  0.00  0.00    -0.254 N 
ATOM      2  C   UNL     1      51.665 155.110  27.680  0.00  0.00    +0.087 C 
ATOM      3  C   UNL     1      51.826 154.331  28.817  0.00  0.00    +0.155 C 
ATOM      4  N   UNL     1      51.384 154.802  29.983  0.00  0.00    -0.227 NA
ATOM      5  C   UNL     1      50.782 156.028  30.047  0.00  0.00    +0.100 C 
ATOM      6  C   UNL     1      50.607 156.825  28.908  0.00  0.00    +0.022 C 
ATOM      7  C   UNL     1      51.057 156.347  27.720  0.00  0.00    +0.019 C 
ATOM      8  N   UNL     1      52.369 152.991  28.878  0.00  0.00    -0.214 N 
ATOM      9  C   UNL     1      52.172 152.002  27.848  0.00  0.00    +0.064 C 
ATOM     10  C   UNL     1      52.020 152.178  26.474  0.00  0.00    +0.068 C 
ATOM     11  C   UNL     1      51.857 151.096  25.652  0.00  0.00    +0.006 C 
ATOM     12  C   UNL     1      51.843 149.830  26.184  0.00  0.00    +0.000 C 
ATOM     13  C   UNL     1      51.993 149.671  27.560  0.00  0.00    +0.001 C 
ATOM     14  C   UNL     1      52.157 150.751  28.395  0.00  0.00    +0.015 C 
ATOM     15  C   UNL     1      51.970 153.456  25.760  0.00  0.00    +0.254 C 
ATOM     16  O   UNL     1      51.783 153.432  24.565  0.00  0.00    -0.270 OA
ATOM     17  C   UNL     1      53.080 152.703  30.029  0.00  0.00    +0.312 C 
ATOM     18  O   UNL     1      53.708 151.665  30.275  0.00  0.00    -0.264 OA
ENDROOT
BRANCH   1  22
ATOM     19  C   UNL     1      54.322 155.653  26.144  0.00  0.00    +0.039 C 
ATOM     20  C   UNL     1      54.097 156.894  26.953  0.00  0.00    +0.005 C 
ATOM     21  C   UNL     1      52.990 157.186  25.911  0.00  0.00    +0.020 C 
ATOM     22  C   UNL     1      52.789 155.790  25.621  0.00  0.00    +0.082 C 
BRANCH  19  31
ATOM     23  N   UNL     1      55.949 158.369  24.295  0.00  0.00    -0.313 N 
ATOM     24  C   UNL     1      55.428 157.439  23.372  0.00  0.00    +0.301 C 
ATOM     25  O   UNL     1      55.237 157.809  22.184  0.00  0.00    -0.253 OA
ATOM     26  N   UNL     1      55.142 156.118  23.795  0.00  0.00    -0.261 N 
ATOM     27  C   UNL     1      54.662 155.211  22.735  0.00  0.00    +0.127 C 
ATOM     28  C   UNL     1      55.415 153.910  22.879  0.00  0.00    +0.164 C 
ATOM     29  O   UNL     1      55.337 153.481  24.160  0.00  0.00    -0.350 OA
ATOM     30  C   UNL     1      55.980 154.253  25.080  0.00  0.00    +0.162 C 
ATOM     31  C   UNL     1      55.349 155.682  25.131  0.00  0.00    +0.108 C 
ATOM     32  H   UNL     1      56.106 158.100  25.229  0.00  0.00    +0.146 HD
ATOM     33  H   UNL     1      56.156 159.287  24.005  0.00  0.00    +0.146 HD
ENDBRANCH  19  31
ENDBRANCH   1  22
TORSDOF 2
