MODEL 1
REMARK VINA RESULT:   -10.854      0.000      0.000
REMARK INTER + INTRA:         -11.899
REMARK INTER:                 -11.805
REMARK INTRA:                  -0.094
REMARK UNBOUND:                -0.094
REMARK  Name = =
REMARK  2 active torsions:
REMARK  status: ('A' for Active; 'I' for Inactive)
REMARK    1  A    between atoms: C_3  and  O_49
REMARK    2  A    between atoms: C_34  and  C_43
REMARK                            x       y       z     vdW  Elec       q    Type
REMARK                         _______ _______ _______ _____ _____    ______ ____
ROOT
ATOM      1 CL   UNL     1       6.093  -3.272  25.259  0.00  0.00    -0.112 Cl
ATOM      2  C   UNL     1       4.618  -3.087  24.358  0.00  0.00    +0.115 C 
ATOM      3  C   UNL     1       3.983  -1.937  24.764  0.00  0.00    +0.130 C 
ATOM      4  C   UNL     1       2.562  -1.713  24.888  0.00  0.00    +0.050 C 
ATOM      5  C   UNL     1       1.630  -1.474  25.992  0.00  0.00    +0.006 C 
ATOM      6  C   UNL     1       1.970  -0.769  27.212  0.00  0.00    +0.000 C 
ATOM      7  C   UNL     1       2.256  -1.692  28.406  0.00  0.00    +0.000 C 
ATOM      8  C   UNL     1       0.999  -2.297  28.822  0.00  0.00    +0.000 C 
ATOM      9  C   UNL     1       1.004  -3.591  29.571  0.00  0.00    +0.000 C 
ATOM     10  C   UNL     1      -0.183  -4.369  29.194  0.00  0.00    +0.000 C 
ATOM     11  C   UNL     1      -0.142  -5.781  29.441  0.00  0.00    +0.000 C 
ATOM     12  C   UNL     1       1.204  -6.265  28.994  0.00  0.00    +0.004 C 
ATOM     13  C   UNL     1       1.130  -7.626  28.535  0.00  0.00    +0.000 C 
ATOM     14  C   UNL     1       1.380  -7.702  27.047  0.00  0.00    +0.000 C 
ATOM     15  C   UNL     1       1.695  -6.365  26.409  0.00  0.00    +0.004 C 
ATOM     16  C   UNL     1       1.942  -6.559  24.964  0.00  0.00    +0.021 C 
ATOM     17  C   UNL     1       2.666  -5.600  24.184  0.00  0.00    -0.034 C 
ATOM     18  C   UNL     1       4.063  -5.506  23.916  0.00  0.00    -0.032 C 
ATOM     19  C   UNL     1       4.405  -4.178  23.391  0.00  0.00    +0.086 C 
ATOM     20  C   UNL     1       5.454  -4.316  22.314  0.00  0.00    +0.140 C 
ATOM     21  O   UNL     1       4.374  -4.818  21.541  0.00  0.00    -0.353 OA
ATOM     22  C   UNL     1       3.767  -3.713  22.095  0.00  0.00    +0.130 C 
ATOM     23  C   UNL     1       6.599  -5.144  22.592  0.00  0.00    -0.001 C 
ATOM     24  C   UNL     1       6.488  -6.135  23.694  0.00  0.00    -0.017 C 
ATOM     25  C   UNL     1       5.130  -6.362  24.258  0.00  0.00    +0.097 C 
ATOM     26  C   UNL     1       5.018  -7.808  24.399  0.00  0.00    +0.158 C 
ATOM     27  O   UNL     1       5.619  -8.392  23.528  0.00  0.00    -0.295 OA
ATOM     28  C   UNL     1       4.383  -8.857  25.299  0.00  0.00    +0.065 C 
ATOM     29  C   UNL     1       2.979  -8.497  25.478  0.00  0.00    +0.008 C 
ATOM     30  C   UNL     1       2.583  -8.571  26.725  0.00  0.00    +0.000 C 
ATOM     31  C   UNL     1       1.954  -7.997  24.514  0.00  0.00    +0.005 C 
ATOM     32  C   UNL     1      -0.339  -7.989  28.730  0.00  0.00    +0.000 C 
ATOM     33  C   UNL     1      -1.033  -6.658  28.610  0.00  0.00    +0.000 C 
ATOM     34  C   UNL     1       2.202  -5.768  29.950  0.00  0.00    +0.022 C 
ATOM     35  C   UNL     1       2.280  -4.265  29.694  0.00  0.00    +0.004 C 
ATOM     36  C   UNL     1      -1.446  -3.690  28.903  0.00  0.00    +0.000 C 
ATOM     37  C   UNL     1      -1.160  -2.669  27.789  0.00  0.00    +0.000 C 
ATOM     38  C   UNL     1       0.132  -2.598  27.555  0.00  0.00    +0.000 C 
ATOM     39  C   UNL     1       0.960  -2.809  26.389  0.00  0.00    +0.000 C 
ATOM     40  C   UNL     1       1.669  -1.756  23.836  0.00  0.00    -0.028 C 
ATOM     41  C   UNL     1       1.563  -2.591  22.604  0.00  0.00    -0.028 C 
ATOM     42  C   UNL     1       2.384  -3.474  22.019  0.00  0.00    +0.056 C 
ENDROOT
BRANCH  34  43
ATOM     43  C   UNL     1       1.872  -5.997  31.400  0.00  0.00    -0.023 C 
ATOM     44  C   UNL     1       1.018  -6.934  31.748  0.00  0.00    -0.004 C 
ATOM     45  C   UNL     1       0.679  -7.175  33.156  0.00  0.00    -0.000 C 
ATOM     46  C   UNL     1       1.213  -6.460  34.120  0.00  0.00    -0.000 C 
ATOM     47  C   UNL     1       2.165  -5.398  33.826  0.00  0.00    -0.000 C 
ATOM     48  C   UNL     1       2.516  -5.141  32.423  0.00  0.00    -0.004 C 
ENDBRANCH  34  43
BRANCH   3  49
ATOM     49  O   UNL     1       4.981  -1.016  25.032  0.00  0.00    -0.383 OA
ATOM     50  H   UNL     1       5.139  -0.473  24.245  0.00  0.00    +0.210 HD
ENDBRANCH   3  49
TORSDOF 2
ENDMDL
