REMARK  Name = =
REMARK  2 active torsions:
REMARK  status: ('A' for Active; 'I' for Inactive)
REMARK    1  A    between atoms: C_1  and  C_16
REMARK    2  A    between atoms: C_16  and  C_21
REMARK                            x       y       z     vdW  Elec       q    Type
REMARK                         _______ _______ _______ _____ _____    ______ ____
ROOT
ATOM      1  C   UNL     1     -13.480 -43.135  27.852  0.00  0.00    +0.149 C 
ATOM      2  O   UNL     1     -12.671 -44.008  27.117  0.00  0.00    -0.351 OA
ATOM      3  C   UNL     1     -11.436 -44.245  27.646  0.00  0.00    +0.174 C 
ATOM      4  C   UNL     1     -11.299 -44.025  29.098  0.00  0.00    +0.174 C 
ATOM      5  O   UNL     1     -10.378 -44.888  29.707  0.00  0.00    -0.326 OA
ATOM      6  C   UNL     1     -10.773 -45.089  31.046  0.00  0.00    +0.264 C 
ATOM      7  O   UNL     1      -9.791 -45.667  31.801  0.00  0.00    -0.321 OA
ATOM      8  C   UNL     1      -8.604 -44.934  31.695  0.00  0.00    +0.209 C 
ATOM      9  C   UNL     1      -8.841 -43.676  30.928  0.00  0.00    +0.183 C 
ATOM     10  O   UNL     1      -8.088 -43.377  30.000  0.00  0.00    -0.293 OA
ATOM     11  C   UNL     1     -10.003 -42.795  31.280  0.00  0.00    +0.102 C 
ATOM     12  C   UNL     1     -11.162 -43.723  31.614  0.00  0.00    +0.179 C 
ATOM     13  O   UNL     1     -12.369 -43.291  31.027  0.00  0.00    -0.350 OA
ATOM     14  C   UNL     1     -12.552 -44.071  29.909  0.00  0.00    +0.147 C 
ATOM     15  C   UNL     1     -13.805 -43.773  29.145  0.00  0.00    +0.065 C 
ENDROOT
BRANCH   1  16
ATOM     16  C   UNL     1     -14.638 -42.782  26.999  0.00  0.00    +0.170 C 
ATOM     17  O   UNL     1     -15.826 -43.372  27.386  0.00  0.00    -0.349 OA
ATOM     18  C   UNL     1     -16.746 -42.804  26.480  0.00  0.00    +0.143 C 
ATOM     19  C   UNL     1     -16.393 -41.326  26.429  0.00  0.00    +0.035 C 
ATOM     20  C   UNL     1     -14.993 -41.311  27.047  0.00  0.00    +0.040 C 
BRANCH  16  21
ATOM     21  C   UNL     1     -14.310 -43.119  25.579  0.00  0.00    +0.184 A 
ATOM     22  N   UNL     1     -14.535 -44.350  25.068  0.00  0.00    -0.110 NA
ATOM     23  N   UNL     1     -14.117 -44.259  23.797  0.00  0.00    -0.023 NA
ATOM     24  N   UNL     1     -13.662 -43.050  23.552  0.00  0.00    -0.047 NA
ATOM     25  N   UNL     1     -13.781 -42.343  24.647  0.00  0.00    -0.240 N 
ATOM     26  H   UNL     1     -13.522 -41.400  24.758  0.00  0.00    +0.192 HD
ENDBRANCH  16  21
ENDBRANCH   1  16
TORSDOF 2
