REMARK  Name = =
REMARK  3 active torsions:
REMARK  status: ('A' for Active; 'I' for Inactive)
REMARK    1  A    between atoms: P_1  and  S_3
REMARK    2  A    between atoms: P_1  and  O_4
REMARK    3  A    between atoms: P_1  and  O_5
REMARK                            x       y       z     vdW  Elec       q    Type
REMARK                         _______ _______ _______ _____ _____    ______ ____
ROOT
ATOM      1  P   UNL     1      51.126 155.606  29.293  0.00  0.00    +0.383 P 
ATOM      2  O   UNL     1      51.398 154.762  30.535  0.00  0.00    -0.246 OA
ENDROOT
BRANCH   1   3
ATOM      3  S   UNL     1      52.355 154.956  27.686  0.00  0.00    -0.059 S 
ATOM      4  H   UNL     1      53.663 155.124  28.019  0.00  0.00    +0.114 HD
ENDBRANCH   1   3
BRANCH   1   5
ATOM      5  O   UNL     1      51.483 157.195  29.695  0.00  0.00    -0.316 OA
ATOM      6  H   UNL     1      52.418 157.263  29.945  0.00  0.00    +0.221 HD
ENDBRANCH   1   5
BRANCH   1   7
ATOM      7  O   UNL     1      49.523 155.383  28.844  0.00  0.00    -0.316 OA
ATOM      8  H   UNL     1      48.942 155.674  29.564  0.00  0.00    +0.221 HD
ENDBRANCH   1   7
TORSDOF 3
