REMARK  Name = =
REMARK  1 active torsions:
REMARK  status: ('A' for Active; 'I' for Inactive)
REMARK    1  A    between atoms: C_11  and  C_15
REMARK                            x       y       z     vdW  Elec       q    Type
REMARK                         _______ _______ _______ _____ _____    ______ ____
ROOT
ATOM      1  N   UNL     1      49.790 156.666  30.367  0.00  0.00    -0.245 NA
ATOM      2  C   UNL     1      50.318 155.691  29.627  0.00  0.00    +0.081 C 
ATOM      3  C   UNL     1      51.162 155.952  28.542  0.00  0.00    +0.021 C 
ATOM      4  C   UNL     1      51.430 157.266  28.253  0.00  0.00    +0.003 C 
ATOM      5  C   UNL     1      50.872 158.254  29.035  0.00  0.00    +0.018 C 
ATOM      6  C   UNL     1      50.050 157.948  30.095  0.00  0.00    +0.081 C 
ATOM      7  C   UNL     1      49.510 158.979  30.858  0.00  0.00    +0.019 C 
ATOM      8  C   UNL     1      49.806 160.284  30.538  0.00  0.00    +0.002 C 
ATOM      9  C   UNL     1      50.626 160.605  29.482  0.00  0.00    +0.000 C 
ATOM     10  C   UNL     1      51.156 159.584  28.733  0.00  0.00    +0.001 C 
ATOM     11  C   UNL     1      51.669 154.957  27.765  0.00  0.00    +0.036 C 
ATOM     12  C   UNL     1      51.314 153.621  28.074  0.00  0.00    +0.003 C 
ATOM     13  C   UNL     1      50.487 153.354  29.129  0.00  0.00    +0.002 C 
ATOM     14  C   UNL     1      49.985 154.368  29.912  0.00  0.00    +0.019 C 
ENDROOT
BRANCH  11  15
ATOM     15  C   UNL     1      52.686 155.148  26.732  0.00  0.00    +0.145 C 
ATOM     16  O   UNL     1      52.861 154.254  25.731  0.00  0.00    -0.453 OA
ATOM     17  C   UNL     1      53.819 154.609  24.932  0.00  0.00    +0.145 C 
ATOM     18  C   UNL     1      54.369 155.797  25.352  0.00  0.00    +0.038 C 
ATOM     19  C   UNL     1      53.619 156.105  26.502  0.00  0.00    +0.041 C 
ATOM     20  C   UNL     1      55.404 156.422  24.703  0.00  0.00    +0.003 C 
ATOM     21  C   UNL     1      55.953 155.870  23.572  0.00  0.00    +0.000 C 
ATOM     22  C   UNL     1      55.417 154.668  23.122  0.00  0.00    +0.003 C 
ATOM     23  C   UNL     1      54.382 154.053  23.782  0.00  0.00    +0.037 C 
ENDBRANCH  11  15
TORSDOF 1
