REMARK  Name = =
REMARK  0 active torsions:
REMARK  status: ('A' for Active; 'I' for Inactive)
REMARK                            x       y       z     vdW  Elec       q    Type
REMARK                         _______ _______ _______ _____ _____    ______ ____
ROOT
ATOM      1  C   UNL     1     -13.543 -43.164  27.260  0.00  0.00    +0.306 C 
ATOM      2  O   UNL     1     -13.230 -44.402  27.193  0.00  0.00    -0.265 OA
ATOM      3  N   UNL     1     -12.632 -42.303  27.938  0.00  0.00    -0.241 N 
ATOM      4  C   UNL     1     -11.427 -42.789  28.519  0.00  0.00    +0.306 C 
ATOM      5  O   UNL     1     -11.199 -44.016  28.407  0.00  0.00    -0.265 OA
ATOM      6  H   UNL     1     -12.842 -41.344  28.007  0.00  0.00    +0.158 HD
ENDROOT
TORSDOF 0
