REMARK  Name = =
REMARK  1 active torsions:
REMARK  status: ('A' for Active; 'I' for Inactive)
REMARK    1  A    between atoms: N_8  and  S_11
REMARK                            x       y       z     vdW  Elec       q    Type
REMARK                         _______ _______ _______ _____ _____    ______ ____
ROOT
ATOM      1  N   UNL     1     -13.403 -43.347  26.606  0.00  0.00    -0.247 N 
ATOM      2  C   UNL     1     -13.450 -41.951  26.299  0.00  0.00    +0.169 C 
ATOM      3  N   UNL     1     -14.373 -41.793  25.162  0.00  0.00    -0.279 NA
ATOM      4  C   UNL     1     -14.357 -43.089  24.509  0.00  0.00    +0.092 C 
ATOM      5  C   UNL     1     -14.363 -43.993  25.695  0.00  0.00    +0.113 C 
ATOM      6  C   UNL     1     -12.638 -44.022  27.559  0.00  0.00    +0.324 C 
ATOM      7  O   UNL     1     -12.803 -45.320  27.594  0.00  0.00    -0.251 OA
ATOM      8  N   UNL     1     -11.717 -43.548  28.494  0.00  0.00    -0.155 N 
ATOM      9  C   UNL     1     -11.377 -42.201  28.667  0.00  0.00    +0.320 C 
ATOM     10  O   UNL     1     -10.518 -41.850  29.554  0.00  0.00    -0.264 OA
ATOM     11  H   UNL     1     -14.045 -41.064  24.528  0.00  0.00    +0.125 HD
ENDROOT
BRANCH   8  12
ATOM     12  S   UNL     1     -10.915 -44.683  29.544  0.00  0.00    -0.019 S 
ATOM     13  O   UNL     1     -11.928 -45.397  30.437  0.00  0.00    -0.157 OA
ATOM     14  C   UNL     1     -10.314 -45.915  28.737  0.00  0.00    +0.096 C 
ATOM     15  H   UNL     1      -9.982 -43.944  30.202  0.00  0.00    +0.133 HD
ENDBRANCH   8  12
TORSDOF 1
