REMARK  Name = =
REMARK  1 active torsions:
REMARK  status: ('A' for Active; 'I' for Inactive)
REMARK    1  A    between atoms: N_1  and  N_5
REMARK                            x       y       z     vdW  Elec       q    Type
REMARK                         _______ _______ _______ _____ _____    ______ ____
ROOT
ATOM      1  N   UNL     1      52.416 155.664  27.817  0.00  0.00    -0.218 N 
ATOM      2  C   UNL     1      52.101 156.585  28.847  0.00  0.00    +0.313 C 
ATOM      3  O   UNL     1      51.081 156.347  29.544  0.00  0.00    -0.252 OA
ATOM      4  N   UNL     1      52.873 157.752  29.128  0.00  0.00    -0.312 N 
ATOM      5  H   UNL     1      53.210 155.830  27.259  0.00  0.00    +0.174 HD
ATOM      6  H   UNL     1      53.674 157.953  28.592  0.00  0.00    +0.147 HD
ATOM      7  H   UNL     1      52.604 158.356  29.858  0.00  0.00    +0.147 HD
ENDROOT
BRANCH   1   8
ATOM      8  N   UNL     1      51.642 154.529  27.564  0.00  0.00    -0.225 N 
ATOM      9  C   UNL     1      52.114 153.225  27.893  0.00  0.00    +0.316 C 
ATOM     10  O   UNL     1      53.257 153.151  28.420  0.00  0.00    -0.264 OA
ATOM     11  H   UNL     1      50.754 154.632  27.151  0.00  0.00    +0.173 HD
ENDBRANCH   1   8
TORSDOF 1
