REMARK  Name = =
REMARK  0 active torsions:
REMARK  status: ('A' for Active; 'I' for Inactive)
REMARK                            x       y       z     vdW  Elec       q    Type
REMARK                         _______ _______ _______ _____ _____    ______ ____
ROOT
ATOM      1  N   UNL     1      51.390 156.334  29.183  0.00  0.00    -0.203 NA
ATOM      2  C   UNL     1      50.757 157.348  29.667  0.00  0.00    +0.181 C 
ATOM      3  C   UNL     1      51.666 158.477  29.705  0.00  0.00    +0.115 C 
ATOM      4  C   UNL     1      51.314 159.657  30.150  0.00  0.00    +0.003 C 
ATOM      5  C   UNL     1      49.964 159.926  30.646  0.00  0.00    +0.075 C 
ATOM      6  C   UNL     1      49.093 158.759  30.585  0.00  0.00    +0.079 C 
ATOM      7  N   UNL     1      49.430 157.599  30.151  0.00  0.00    -0.228 NA
ATOM      8  N   UNL     1      52.906 157.980  29.179  0.00  0.00    -0.221 NA
ATOM      9  C   UNL     1      52.738 156.739  28.879  0.00  0.00    +0.200 C 
ENDROOT
TORSDOF 0
