REMARK  Name = =
REMARK  4 active torsions:
REMARK  status: ('A' for Active; 'I' for Inactive)
REMARK    1  A    between atoms: N_1  and  N_4
REMARK    2  A    between atoms: C_2  and  O_11
REMARK    3  A    between atoms: N_4  and  N_7
REMARK    4  A    between atoms: O_11  and  C_12
REMARK                            x       y       z     vdW  Elec       q    Type
REMARK                         _______ _______ _______ _____ _____    ______ ____
ROOT
ATOM      1  N   UNL     1      52.441 152.861  26.591  0.00  0.00    -0.179 N 
ATOM      2  C   UNL     1      53.212 152.184  25.601  0.00  0.00    +0.424 C 
ATOM      3  O   UNL     1      53.514 150.970  25.701  0.00  0.00    -0.224 OA
ATOM      4  H   UNL     1      52.215 153.814  26.494  0.00  0.00    +0.178 HD
ENDROOT
BRANCH   1   5
ATOM      5  N   UNL     1      52.021 152.138  27.692  0.00  0.00    -0.120 N 
ATOM      6  C   UNL     1      51.582 150.803  27.645  0.00  0.00    +0.338 C 
ATOM      7  O   UNL     1      51.204 150.147  28.628  0.00  0.00    -0.262 OA
BRANCH   5   8
ATOM      8  N   UNL     1      52.028 152.774  28.949  0.00  0.00    -0.198 N 
ATOM      9  C   UNL     1      51.563 154.126  28.995  0.00  0.00    +0.315 C 
ATOM     10  O   UNL     1      51.178 154.682  27.950  0.00  0.00    -0.251 OA
ATOM     11  N   UNL     1      51.558 154.796  30.245  0.00  0.00    -0.312 N 
ATOM     12  H   UNL     1      52.339 152.309  29.759  0.00  0.00    +0.176 HD
ATOM     13  H   UNL     1      51.869 154.330  31.055  0.00  0.00    +0.147 HD
ATOM     14  H   UNL     1      51.244 155.727  30.303  0.00  0.00    +0.147 HD
ENDBRANCH   5   8
ENDBRANCH   1   5
BRANCH   2  15
ATOM     15  O   UNL     1      53.676 152.842  24.460  0.00  0.00    -0.409 OA
BRANCH  15  16
ATOM     16  C   UNL     1      53.976 154.218  24.496  0.00  0.00    +0.150 C 
ATOM     17  C   UNL     1      52.982 155.066  24.930  0.00  0.00    +0.038 C 
ATOM     18  C   UNL     1      53.213 156.419  24.988  0.00  0.00    +0.003 C 
ATOM     19  C   UNL     1      54.440 156.902  24.611  0.00  0.00    +0.000 C 
ATOM     20  C   UNL     1      55.442 156.046  24.176  0.00  0.00    +0.003 C 
ATOM     21  C   UNL     1      55.209 154.687  24.116  0.00  0.00    +0.038 C 
ENDBRANCH  15  16
ENDBRANCH   2  15
TORSDOF 4
