REMARK  Name = =
REMARK  1 active torsions:
REMARK  status: ('A' for Active; 'I' for Inactive)
REMARK    1  A    between atoms: C_1  and  C_23
REMARK                            x       y       z     vdW  Elec       q    Type
REMARK                         _______ _______ _______ _____ _____    ______ ____
ROOT
ATOM      1  C   UNL     1      51.626 157.270  30.283  0.00  0.00    +0.058 C 
ATOM      2  C   UNL     1      50.239 156.989  30.734  0.00  0.00    +0.010 C 
ATOM      3  C   UNL     1      49.283 158.124  30.712  0.00  0.00    +0.005 C 
ATOM      4  C   UNL     1      49.122 158.793  32.062  0.00  0.00    +0.001 C 
ATOM      5  C   UNL     1      49.212 160.314  31.875  0.00  0.00    +0.005 C 
ATOM      6  C   UNL     1      48.282 160.923  32.890  0.00  0.00    +0.057 C 
ATOM      7  C   UNL     1      48.524 162.391  33.118  0.00  0.00    +0.120 C 
ATOM      8  O   UNL     1      47.864 162.651  31.928  0.00  0.00    -0.356 OA
ATOM      9  C   UNL     1      47.049 161.533  32.216  0.00  0.00    +0.142 C 
ATOM     10  C   UNL     1      49.965 162.767  33.191  0.00  0.00    +0.030 C 
ATOM     11  C   UNL     1      50.764 161.472  33.393  0.00  0.00    +0.003 C 
ATOM     12  C   UNL     1      50.638 160.717  32.066  0.00  0.00    +0.001 C 
ATOM     13  C   UNL     1      51.119 161.709  30.998  0.00  0.00    +0.004 C 
ATOM     14  C   UNL     1      51.697 160.926  29.811  0.00  0.00    +0.022 C 
ATOM     15  C   UNL     1      51.010 159.609  29.842  0.00  0.00    -0.048 C 
ATOM     16  C   UNL     1      51.945 158.711  30.104  0.00  0.00    -0.029 C 
ATOM     17  C   UNL     1      49.599 159.160  29.658  0.00  0.00    +0.022 C 
ENDROOT
BRANCH   1  23
ATOM     18  N   UNL     1      52.324 153.163  27.614  0.00  0.00    -0.203 NA
ATOM     19  C   UNL     1      52.307 154.417  27.901  0.00  0.00    +0.181 C 
ATOM     20  C   UNL     1      52.795 155.123  26.728  0.00  0.00    +0.115 C 
ATOM     21  C   UNL     1      52.882 156.422  26.750  0.00  0.00    +0.002 C 
ATOM     22  C   UNL     1      52.508 157.247  27.912  0.00  0.00    +0.069 C 
ATOM     23  C   UNL     1      52.019 156.470  29.073  0.00  0.00    +0.047 C 
ATOM     24  N   UNL     1      51.935 155.182  29.050  0.00  0.00    -0.233 NA
ATOM     25  N   UNL     1      53.078 154.104  25.770  0.00  0.00    -0.221 NA
ATOM     26  C   UNL     1      52.801 152.960  26.291  0.00  0.00    +0.200 C 
ENDBRANCH   1  23
TORSDOF 1
