REMARK  Name = =
REMARK  5 active torsions:
REMARK  status: ('A' for Active; 'I' for Inactive)
REMARK    1  A    between atoms: N_1  and  C_4
REMARK    2  A    between atoms: N_1  and  N_11
REMARK    3  A    between atoms: C_2  and  O_18
REMARK    4  A    between atoms: N_11  and  N_14
REMARK    5  A    between atoms: O_18  and  C_19
REMARK                            x       y       z     vdW  Elec       q    Type
REMARK                         _______ _______ _______ _____ _____    ______ ____
ROOT
ATOM      1  N   UNL     1      53.160 154.387  26.254  0.00  0.00    -0.149 N 
ATOM      2  C   UNL     1      52.422 153.264  26.720  0.00  0.00    +0.427 C 
ATOM      3  O   UNL     1      52.036 152.422  25.876  0.00  0.00    -0.224 OA
ENDROOT
BRANCH   1   4
ATOM      4  C   UNL     1      53.603 155.364  27.250  0.00  0.00    +0.151 C 
ATOM      5  C   UNL     1      53.218 156.765  26.788  0.00  0.00    +0.167 C 
ATOM      6  O   UNL     1      54.120 157.744  27.277  0.00  0.00    -0.351 OA
ATOM      7  C   UNL     1      52.773 157.676  27.696  0.00  0.00    +0.149 C 
ATOM      8  C   UNL     1      52.641 157.424  29.155  0.00  0.00    +0.058 C 
ATOM      9  C   UNL     1      52.553 155.971  29.432  0.00  0.00    -0.026 C 
ATOM     10  C   UNL     1      52.991 155.099  28.560  0.00  0.00    -0.007 C 
ENDBRANCH   1   4
BRANCH   1  11
ATOM     11  N   UNL     1      53.451 154.553  24.901  0.00  0.00    -0.116 N 
ATOM     12  C   UNL     1      53.530 153.429  24.037  0.00  0.00    +0.338 C 
ATOM     13  O   UNL     1      53.795 153.604  22.821  0.00  0.00    -0.262 OA
BRANCH  11  14
ATOM     14  N   UNL     1      53.664 155.835  24.392  0.00  0.00    -0.198 N 
ATOM     15  C   UNL     1      54.985 156.386  24.289  0.00  0.00    +0.315 C 
ATOM     16  O   UNL     1      55.921 155.620  24.693  0.00  0.00    -0.251 OA
ATOM     17  N   UNL     1      55.241 157.684  23.777  0.00  0.00    -0.312 N 
ATOM     18  H   UNL     1      52.893 156.372  24.098  0.00  0.00    +0.176 HD
ATOM     19  H   UNL     1      54.494 158.250  23.474  0.00  0.00    +0.147 HD
ATOM     20  H   UNL     1      56.165 158.019  23.725  0.00  0.00    +0.147 HD
ENDBRANCH  11  14
ENDBRANCH   1  11
BRANCH   2  21
ATOM     21  O   UNL     1      52.112 153.056  28.043  0.00  0.00    -0.409 OA
BRANCH  21  22
ATOM     22  C   UNL     1      51.507 151.915  28.544  0.00  0.00    +0.150 C 
ATOM     23  C   UNL     1      51.538 150.792  27.747  0.00  0.00    +0.038 C 
ATOM     24  C   UNL     1      50.965 149.613  28.159  0.00  0.00    +0.003 C 
ATOM     25  C   UNL     1      50.356 149.549  29.370  0.00  0.00    +0.000 C 
ATOM     26  C   UNL     1      50.308 150.664  30.196  0.00  0.00    +0.003 C 
ATOM     27  C   UNL     1      50.889 151.839  29.767  0.00  0.00    +0.038 C 
ENDBRANCH  21  22
ENDBRANCH   2  21
TORSDOF 5
