REMARK  Name = =
REMARK  8 active torsions:
REMARK  status: ('A' for Active; 'I' for Inactive)
REMARK    1  A    between atoms: N_1  and  C_4
REMARK    2  A    between atoms: N_1  and  N_19
REMARK    3  A    between atoms: C_2  and  O_26
REMARK    4  A    between atoms: C_4  and  N_11
REMARK    5  A    between atoms: N_14  and  N_15
REMARK    6  A    between atoms: C_16  and  O_18
REMARK    7  A    between atoms: N_19  and  N_22
REMARK    8  A    between atoms: O_26  and  C_27
REMARK                            x       y       z     vdW  Elec       q    Type
REMARK                         _______ _______ _______ _____ _____    ______ ____
ROOT
ATOM      1  N   UNL     1      52.359 154.862  26.712  0.00  0.00    -0.134 N 
ATOM      2  C   UNL     1      52.667 156.028  25.986  0.00  0.00    +0.429 C 
ATOM      3  O   UNL     1      52.561 157.156  26.505  0.00  0.00    -0.224 OA
ENDROOT
BRANCH   1   4
ATOM      4  C   UNL     1      51.952 154.972  28.118  0.00  0.00    +0.189 C 
ATOM      5  C   UNL     1      51.089 153.810  28.497  0.00  0.00    +0.182 C 
ATOM      6  O   UNL     1      50.913 153.548  29.924  0.00  0.00    -0.349 OA
ATOM      7  C   UNL     1      51.612 152.641  28.961  0.00  0.00    +0.150 C 
ATOM      8  C   UNL     1      53.050 152.512  29.398  0.00  0.00    +0.058 C 
ATOM      9  C   UNL     1      53.683 153.846  29.514  0.00  0.00    -0.025 C 
ATOM     10  C   UNL     1      53.211 154.955  28.954  0.00  0.00    +0.010 C 
BRANCH   4  11
ATOM     11  N   UNL     1      51.244 156.201  28.348  0.00  0.00    -0.269 N 
ATOM     12  C   UNL     1      50.908 156.695  29.623  0.00  0.00    +0.318 C 
ATOM     13  O   UNL     1      51.244 156.044  30.639  0.00  0.00    -0.251 OA
ATOM     14  N   UNL     1      50.185 157.941  29.750  0.00  0.00    -0.216 N 
ATOM     15  H   UNL     1      50.977 156.732  27.563  0.00  0.00    +0.153 HD
ATOM     16  H   UNL     1      49.922 158.438  28.941  0.00  0.00    +0.174 HD
BRANCH  14  17
ATOM     17  N   UNL     1      49.860 158.440  30.995  0.00  0.00    -0.199 N 
ATOM     18  C   UNL     1      48.577 158.962  31.284  0.00  0.00    +0.414 C 
ATOM     19  O   UNL     1      47.672 158.984  30.380  0.00  0.00    -0.225 OA
ATOM     20  H   UNL     1      50.542 158.433  31.705  0.00  0.00    +0.176 HD
BRANCH  18  21
ATOM     21  O   UNL     1      48.241 159.472  32.553  0.00  0.00    -0.465 OA
ATOM     22  H   UNL     1      48.877 159.473  33.241  0.00  0.00    +0.297 HD
ENDBRANCH  18  21
ENDBRANCH  14  17
ENDBRANCH   4  11
ENDBRANCH   1   4
BRANCH   1  23
ATOM     23  N   UNL     1      52.425 153.631  26.069  0.00  0.00    -0.115 N 
ATOM     24  C   UNL     1      51.828 152.502  26.717  0.00  0.00    +0.338 C 
ATOM     25  O   UNL     1      51.856 151.349  26.158  0.00  0.00    -0.262 OA
BRANCH  23  26
ATOM     26  N   UNL     1      53.031 153.449  24.827  0.00  0.00    -0.198 N 
ATOM     27  C   UNL     1      54.290 152.809  24.747  0.00  0.00    +0.315 C 
ATOM     28  O   UNL     1      54.846 152.415  25.792  0.00  0.00    -0.251 OA
ATOM     29  N   UNL     1      54.934 152.610  23.472  0.00  0.00    -0.312 N 
ATOM     30  H   UNL     1      52.584 153.765  24.008  0.00  0.00    +0.176 HD
ATOM     31  H   UNL     1      54.497 152.920  22.646  0.00  0.00    +0.147 HD
ATOM     32  H   UNL     1      55.811 152.164  23.428  0.00  0.00    +0.147 HD
ENDBRANCH  23  26
ENDBRANCH   1  23
BRANCH   2  33
ATOM     33  O   UNL     1      53.097 155.939  24.668  0.00  0.00    -0.409 OA
BRANCH  33  34
ATOM     34  C   UNL     1      53.964 156.875  24.136  0.00  0.00    +0.150 C 
ATOM     35  C   UNL     1      55.320 156.718  24.250  0.00  0.00    +0.038 C 
ATOM     36  C   UNL     1      56.180 157.674  23.705  0.00  0.00    +0.003 C 
ATOM     37  C   UNL     1      55.676 158.800  23.038  0.00  0.00    +0.000 C 
ATOM     38  C   UNL     1      54.316 158.916  22.947  0.00  0.00    +0.003 C 
ATOM     39  C   UNL     1      53.451 157.966  23.489  0.00  0.00    +0.038 C 
ENDBRANCH  33  34
ENDBRANCH   2  33
TORSDOF 8
