REMARK  Name = =
REMARK  0 active torsions:
REMARK  status: ('A' for Active; 'I' for Inactive)
REMARK                            x       y       z     vdW  Elec       q    Type
REMARK                         _______ _______ _______ _____ _____    ______ ____
ROOT
ATOM      1  N   UNL     1      -3.595  -5.057  31.790  0.00  0.00    -0.264 NA
ATOM      2  C   UNL     1      -3.299  -3.818  31.043  0.00  0.00    +0.100 C 
ATOM      3  C   UNL     1      -4.780  -3.596  31.005  0.00  0.00    +0.045 C 
ATOM      4  C   UNL     1      -4.651  -4.266  32.385  0.00  0.00    +0.083 C 
ATOM      5  S   UNL     1      -2.549  -4.530  29.554  0.00  0.00    -0.124 S 
ATOM      6  C   UNL     1      -2.093  -6.056  30.361  0.00  0.00    +0.076 C 
ATOM      7  C   UNL     1      -2.751  -6.099  31.473  0.00  0.00    +0.085 C 
ENDROOT
TORSDOF 0
