REMARK  Name = =
REMARK  3 active torsions:
REMARK  status: ('A' for Active; 'I' for Inactive)
REMARK    1  A    between atoms: O_1  and  C_8
REMARK    2  A    between atoms: O_1  and  S_9
REMARK    3  A    between atoms: S_9  and  N_12
REMARK                            x       y       z     vdW  Elec       q    Type
REMARK                         _______ _______ _______ _____ _____    ______ ____
ROOT
ATOM      1  O   UNL     1      -3.052  -6.991  31.520  0.00  0.00    -0.212 OA
ENDROOT
BRANCH   1   8
ATOM      2  N   UNL     1      -4.000  -4.804  32.120  0.00  0.00    -0.240 NA
ATOM      3  C   UNL     1      -3.656  -3.377  31.908  0.00  0.00    +0.109 C 
ATOM      4  C   UNL     1      -4.961  -2.964  32.555  0.00  0.00    +0.045 C 
ATOM      5  C   UNL     1      -4.814  -4.314  33.237  0.00  0.00    +0.077 C 
ATOM      6  S   UNL     1      -3.753  -3.468  30.061  0.00  0.00    -0.121 S 
ATOM      7  C   UNL     1      -3.166  -5.161  30.018  0.00  0.00    +0.108 C 
ATOM      8  C   UNL     1      -3.398  -5.660  31.207  0.00  0.00    +0.217 C 
ENDBRANCH   1   8
BRANCH   1   9
ATOM      9  S   UNL     1      -1.425  -7.459  31.742  0.00  0.00    +0.066 S 
ATOM     10  O   UNL     1      -1.399  -8.930  32.044  0.00  0.00    -0.052 OA
ATOM     11  O   UNL     1      -0.911  -6.680  32.930  0.00  0.00    -0.052 OA
BRANCH   9  12
ATOM     12  N   UNL     1      -0.474  -7.206  30.336  0.00  0.00    -0.178 N 
ATOM     13  C   UNL     1      -0.518  -8.086  29.233  0.00  0.00    +0.319 C 
ATOM     14  O   UNL     1      -1.272  -9.090  29.275  0.00  0.00    -0.264 OA
ATOM     15  H   UNL     1       0.121  -6.423  30.297  0.00  0.00    +0.177 HD
ENDBRANCH   9  12
ENDBRANCH   1   9
TORSDOF 3
