REMARK  Name = =
REMARK  5 active torsions:
REMARK  status: ('A' for Active; 'I' for Inactive)
REMARK    1  A    between atoms: C_4  and  N_8
REMARK    2  A    between atoms: C_7  and  O_14
REMARK    3  A    between atoms: N_8  and  N_12
REMARK    4  A    between atoms: O_14  and  S_15
REMARK    5  A    between atoms: S_15  and  N_18
REMARK                            x       y       z     vdW  Elec       q    Type
REMARK                         _______ _______ _______ _____ _____    ______ ____
ROOT
ATOM      1  N   UNL     1      -2.517  -4.920  30.986  0.00  0.00    -0.224 NA
ATOM      2  C   UNL     1      -3.856  -4.641  30.400  0.00  0.00    +0.112 C 
ATOM      3  C   UNL     1      -4.541  -4.846  31.692  0.00  0.00    +0.066 C 
ATOM      4  C   UNL     1      -3.272  -5.489  32.117  0.00  0.00    +0.161 C 
ATOM      5  S   UNL     1      -3.396  -2.863  30.027  0.00  0.00    -0.120 S 
ATOM      6  C   UNL     1      -1.729  -3.352  29.484  0.00  0.00    +0.108 C 
ATOM      7  C   UNL     1      -1.487  -4.477  30.130  0.00  0.00    +0.218 C 
ENDROOT
BRANCH   4   8
ATOM      8  N   UNL     1      -3.159  -6.915  32.102  0.00  0.00    -0.151 N 
ATOM      9  C   UNL     1      -1.925  -7.552  32.371  0.00  0.00    +0.318 C 
ATOM     10  O   UNL     1      -1.806  -8.805  32.365  0.00  0.00    -0.251 OA
ATOM     11  N   UNL     1      -0.739  -6.796  32.661  0.00  0.00    -0.312 N 
ATOM     12  H   UNL     1      -0.774  -5.812  32.679  0.00  0.00    +0.147 HD
ATOM     13  H   UNL     1       0.109  -7.261  32.842  0.00  0.00    +0.147 HD
BRANCH   8  14
ATOM     14  N   UNL     1      -4.276  -7.684  31.813  0.00  0.00    +0.055 NA
ATOM     15  O   UNL     1      -4.423  -8.250  30.702  0.00  0.00    -0.078 OA
ENDBRANCH   8  14
ENDBRANCH   4   8
BRANCH   7  16
ATOM     16  O   UNL     1      -0.279  -5.220  29.993  0.00  0.00    -0.212 OA
BRANCH  16  17
ATOM     17  S   UNL     1      -0.219  -6.389  28.724  0.00  0.00    +0.066 S 
ATOM     18  O   UNL     1      -1.481  -7.193  28.819  0.00  0.00    -0.052 OA
ATOM     19  O   UNL     1      -0.198  -5.573  27.443  0.00  0.00    -0.052 OA
BRANCH  17  20
ATOM     20  N   UNL     1       1.206  -7.297  28.809  0.00  0.00    -0.178 N 
ATOM     21  C   UNL     1       1.391  -8.366  27.880  0.00  0.00    +0.319 C 
ATOM     22  O   UNL     1       0.525  -8.657  26.996  0.00  0.00    -0.264 OA
ATOM     23  H   UNL     1       1.893  -7.093  29.484  0.00  0.00    +0.177 HD
ENDBRANCH  17  20
ENDBRANCH  16  17
ENDBRANCH   7  16
TORSDOF 5
