REMARK  Name = =
REMARK  8 active torsions:
REMARK  status: ('A' for Active; 'I' for Inactive)
REMARK    1  A    between atoms: C_4  and  N_8
REMARK    2  A    between atoms: C_4  and  S_14
REMARK    3  A    between atoms: C_7  and  O_17
REMARK    4  A    between atoms: N_8  and  N_12
REMARK    5  A    between atoms: S_14  and  C_15
REMARK    6  A    between atoms: C_15  and  N_16
REMARK    7  A    between atoms: O_17  and  S_18
REMARK    8  A    between atoms: S_18  and  N_21
REMARK                            x       y       z     vdW  Elec       q    Type
REMARK                         _______ _______ _______ _____ _____    ______ ____
ROOT
ATOM      1  N   UNL     1      -2.037  -6.126  31.741  0.00  0.00    -0.219 NA
ATOM      2  C   UNL     1      -2.745  -7.149  30.946  0.00  0.00    +0.114 C 
ATOM      3  C   UNL     1      -3.916  -6.251  30.751  0.00  0.00    +0.073 C 
ATOM      4  C   UNL     1      -2.881  -5.165  31.030  0.00  0.00    +0.163 C 
ATOM      5  S   UNL     1      -2.921  -8.339  32.354  0.00  0.00    -0.120 S 
ATOM      6  C   UNL     1      -1.327  -7.873  33.082  0.00  0.00    +0.108 C 
ATOM      7  C   UNL     1      -1.077  -6.676  32.610  0.00  0.00    +0.219 C 
ENDROOT
BRANCH   4   8
ATOM      8  N   UNL     1      -3.490  -4.137  31.837  0.00  0.00    -0.146 N 
ATOM      9  C   UNL     1      -4.246  -4.351  33.003  0.00  0.00    +0.319 C 
ATOM     10  O   UNL     1      -4.433  -5.509  33.433  0.00  0.00    -0.251 OA
ATOM     11  N   UNL     1      -4.800  -3.260  33.698  0.00  0.00    -0.312 N 
ATOM     12  H   UNL     1      -4.659  -2.343  33.368  0.00  0.00    +0.147 HD
ATOM     13  H   UNL     1      -5.329  -3.413  34.514  0.00  0.00    +0.147 HD
BRANCH   8  14
ATOM     14  N   UNL     1      -3.300  -2.794  31.404  0.00  0.00    +0.056 NA
ATOM     15  O   UNL     1      -4.269  -2.140  30.925  0.00  0.00    -0.078 OA
ENDBRANCH   8  14
ENDBRANCH   4   8
BRANCH   4  16
ATOM     16  S   UNL     1      -2.013  -4.564  29.560  0.00  0.00    -0.158 S 
ATOM     17  H   UNL     1      -1.634  -3.287  29.835  0.00  0.00    +0.096 HD
BRANCH  16  18
ATOM     18  C   UNL     1      -0.686  -5.321  28.974  0.00  0.00    +0.114 C 
BRANCH  18  19
ATOM     19  N   UNL     1      -0.025  -4.836  27.827  0.00  0.00    -0.313 NA
ATOM     20  H   UNL     1       0.774  -5.435  27.616  0.00  0.00    +0.120 HD
ATOM     21  H   UNL     1       0.299  -3.884  27.998  0.00  0.00    +0.120 HD
ENDBRANCH  18  19
ENDBRANCH  16  18
ENDBRANCH   4  16
BRANCH   7  22
ATOM     22  O   UNL     1       0.107  -5.954  32.951  0.00  0.00    -0.212 OA
BRANCH  22  23
ATOM     23  S   UNL     1       1.613  -6.540  32.354  0.00  0.00    +0.066 S 
ATOM     24  O   UNL     1       1.945  -7.747  33.197  0.00  0.00    -0.052 OA
ATOM     25  O   UNL     1       1.436  -7.039  30.934  0.00  0.00    -0.052 OA
BRANCH  23  26
ATOM     26  N   UNL     1       2.814  -5.337  32.429  0.00  0.00    -0.178 N 
ATOM     27  C   UNL     1       3.050  -4.628  33.635  0.00  0.00    +0.319 C 
ATOM     28  O   UNL     1       2.361  -4.893  34.667  0.00  0.00    -0.264 OA
ATOM     29  H   UNL     1       3.350  -5.131  31.629  0.00  0.00    +0.177 HD
ENDBRANCH  23  26
ENDBRANCH  22  23
ENDBRANCH   7  22
TORSDOF 8
