REMARK  Name = =
REMARK  10 active torsions:
REMARK  status: ('A' for Active; 'I' for Inactive)
REMARK    1  A    between atoms: C_4  and  N_9
REMARK    2  A    between atoms: C_4  and  S_15
REMARK    3  A    between atoms: S_5  and  C_18
REMARK    4  A    between atoms: C_7  and  O_23
REMARK    5  A    between atoms: N_9  and  N_13
REMARK    6  A    between atoms: C_16  and  N_17
REMARK    7  A    between atoms: C_19  and  C_20
REMARK    8  A    between atoms: C_20  and  O_22
REMARK    9  A    between atoms: O_23  and  S_24
REMARK   10  A    between atoms: S_24  and  N_27
REMARK                            x       y       z     vdW  Elec       q    Type
REMARK                         _______ _______ _______ _____ _____    ______ ____
ROOT
ATOM      1  N   UNL     1      -0.238  -5.342  30.738  0.00  0.00    -0.219 NA
ATOM      2  C   UNL     1      -1.071  -4.164  30.719  0.00  0.00    +0.109 C 
ATOM      3  C   UNL     1      -2.279  -4.940  30.433  0.00  0.00    +0.072 C 
ATOM      4  C   UNL     1      -1.464  -6.129  30.957  0.00  0.00    +0.166 C 
ATOM      5  S   UNL     1      -0.278  -3.231  29.562  0.00  0.00    -0.138 S 
ATOM      6  C   UNL     1       1.435  -3.964  29.929  0.00  0.00    +0.103 C 
ATOM      7  C   UNL     1       1.129  -5.067  30.552  0.00  0.00    +0.218 C 
ENDROOT
BRANCH   4   8
ATOM      8  N   UNL     1      -1.580  -7.268  30.096  0.00  0.00    -0.145 N 
ATOM      9  C   UNL     1      -2.596  -8.226  30.347  0.00  0.00    +0.319 C 
ATOM     10  O   UNL     1      -3.394  -8.071  31.334  0.00  0.00    -0.251 OA
ATOM     11  N   UNL     1      -2.799  -9.370  29.567  0.00  0.00    -0.312 N 
ATOM     12  H   UNL     1      -2.218  -9.547  28.792  0.00  0.00    +0.147 HD
ATOM     13  H   UNL     1      -3.523  -9.998  29.793  0.00  0.00    +0.147 HD
BRANCH   8  14
ATOM     14  N   UNL     1      -0.734  -7.486  29.008  0.00  0.00    +0.056 NA
ATOM     15  O   UNL     1       0.036  -8.459  28.916  0.00  0.00    -0.078 OA
ENDBRANCH   8  14
ENDBRANCH   4   8
BRANCH   4  16
ATOM     16  S   UNL     1      -1.653  -6.463  32.732  0.00  0.00    -0.137 S 
ATOM     17  C   UNL     1      -1.032  -7.842  33.338  0.00  0.00    +0.076 C 
ATOM     18  H   UNL     1      -2.987  -6.474  32.998  0.00  0.00    +0.101 HD
BRANCH  17  19
ATOM     19  N   UNL     1      -0.360  -8.771  32.518  0.00  0.00    -0.352 N 
ATOM     20  H   UNL     1       0.006  -9.597  32.908  0.00  0.00    +0.143 HD
ATOM     21  H   UNL     1      -0.257  -8.594  31.555  0.00  0.00    +0.143 HD
ENDBRANCH  17  19
ENDBRANCH   4  16
BRANCH   5  22
ATOM     22  C   UNL     1      -0.589  -2.651  28.060  0.00  0.00    +0.029 C 
ATOM     23  C   UNL     1      -1.737  -2.718  27.418  0.00  0.00    +0.088 C 
BRANCH  23  24
ATOM     24  C   UNL     1      -1.929  -2.173  26.078  0.00  0.00    +0.339 C 
ATOM     25  O   UNL     1      -1.081  -1.326  25.647  0.00  0.00    -0.245 OA
BRANCH  24  26
ATOM     26  O   UNL     1      -3.003  -2.572  25.306  0.00  0.00    -0.477 OA
ATOM     27  H   UNL     1      -3.615  -3.196  25.642  0.00  0.00    +0.295 HD
ENDBRANCH  24  26
ENDBRANCH  23  24
ENDBRANCH   5  22
BRANCH   7  28
ATOM     28  O   UNL     1       2.184  -5.918  31.004  0.00  0.00    -0.212 OA
BRANCH  28  29
ATOM     29  S   UNL     1       2.676  -5.794  32.626  0.00  0.00    +0.066 S 
ATOM     30  O   UNL     1       2.036  -6.954  33.372  0.00  0.00    -0.052 OA
ATOM     31  O   UNL     1       4.171  -5.901  32.704  0.00  0.00    -0.052 OA
BRANCH  29  32
ATOM     32  N   UNL     1       2.092  -4.334  33.296  0.00  0.00    -0.178 N 
ATOM     33  C   UNL     1       2.436  -3.903  34.603  0.00  0.00    +0.319 C 
ATOM     34  O   UNL     1       3.196  -4.589  35.326  0.00  0.00    -0.264 OA
ATOM     35  H   UNL     1       1.494  -3.770  32.754  0.00  0.00    +0.177 HD
ENDBRANCH  29  32
ENDBRANCH  28  29
ENDBRANCH   7  28
TORSDOF 10
REMARK  Name = =
REMARK  10 active torsions:
REMARK  status: ('A' for Active; 'I' for Inactive)
REMARK    1  A    between atoms: C_4  and  N_9
REMARK    2  A    between atoms: C_4  and  S_15
REMARK    3  A    between atoms: S_5  and  C_18
REMARK    4  A    between atoms: C_7  and  O_23
REMARK    5  A    between atoms: N_9  and  N_13
REMARK    6  A    between atoms: C_16  and  N_17
REMARK    7  A    between atoms: C_19  and  C_20
REMARK    8  A    between atoms: C_20  and  O_22
REMARK    9  A    between atoms: O_23  and  S_24
REMARK   10  A    between atoms: S_24  and  N_27
REMARK                            x       y       z     vdW  Elec       q    Type
REMARK                         _______ _______ _______ _____ _____    ______ ____
ROOT
ATOM      1  H   UNK     1      -0.049  -1.611  30.593  0.00  0.00    +0.000 HD
ENDROOT
TORSDOF 0
