REMARK  Name = =
REMARK  13 active torsions:
REMARK  status: ('A' for Active; 'I' for Inactive)
REMARK    1  A    between atoms: C_4  and  N_8
REMARK    2  A    between atoms: C_4  and  S_14
REMARK    3  A    between atoms: S_5  and  C_17
REMARK    4  A    between atoms: C_6  and  S_22
REMARK    5  A    between atoms: C_7  and  O_25
REMARK    6  A    between atoms: N_8  and  N_12
REMARK    7  A    between atoms: S_14  and  C_15
REMARK    8  A    between atoms: C_15  and  N_16
REMARK    9  A    between atoms: C_18  and  C_19
REMARK   10  A    between atoms: C_19  and  O_21
REMARK   11  A    between atoms: S_22  and  C_23
REMARK   12  A    between atoms: O_25  and  S_26
REMARK   13  A    between atoms: S_26  and  N_29
REMARK                            x       y       z     vdW  Elec       q    Type
REMARK                         _______ _______ _______ _____ _____    ______ ____
ROOT
ATOM      1  N   UNL     1      -0.039  -6.393  30.473  0.00  0.00    -0.250 N 
ATOM      2  C   UNL     1       0.116  -7.664  29.841  0.00  0.00    +0.119 C 
ATOM      3  C   UNL     1      -1.328  -7.800  29.602  0.00  0.00    +0.079 C 
ATOM      4  C   UNL     1      -1.461  -6.710  30.645  0.00  0.00    +0.176 C 
ATOM      5  S   UNL     1       1.083  -7.076  28.430  0.00  0.00    -0.162 S 
ATOM      6  C   UNL     1       1.971  -5.770  29.610  0.00  0.00    +0.095 C 
ATOM      7  C   UNL     1       1.133  -5.638  30.567  0.00  0.00    +0.239 C 
ATOM      8  H   UNL     1       0.502  -6.712  27.255  0.00  0.00    +0.094 HD
ENDROOT
BRANCH   4   9
ATOM      9  N   UNL     1      -1.696  -7.136  31.987  0.00  0.00    -0.143 N 
ATOM     10  C   UNL     1      -2.929  -7.607  32.472  0.00  0.00    +0.319 C 
ATOM     11  O   UNL     1      -3.052  -7.962  33.664  0.00  0.00    -0.251 OA
ATOM     12  N   UNL     1      -4.030  -7.672  31.582  0.00  0.00    -0.312 N 
ATOM     13  H   UNL     1      -3.923  -7.390  30.645  0.00  0.00    +0.147 HD
ATOM     14  H   UNL     1      -4.902  -7.999  31.901  0.00  0.00    +0.147 HD
BRANCH   9  15
ATOM     15  N   UNL     1      -0.622  -7.077  32.889  0.00  0.00    +0.056 NA
ATOM     16  O   UNL     1      -0.405  -8.001  33.705  0.00  0.00    -0.078 OA
ENDBRANCH   9  15
ENDBRANCH   4   9
BRANCH   4  17
ATOM     17  S   UNL     1      -2.605  -5.426  30.053  0.00  0.00    -0.155 S 
ATOM     18  H   UNL     1      -3.737  -6.080  29.680  0.00  0.00    +0.097 HD
BRANCH  17  19
ATOM     19  C   UNL     1      -3.093  -4.179  30.961  0.00  0.00    +0.114 C 
BRANCH  19  20
ATOM     20  N   UNL     1      -3.981  -3.217  30.443  0.00  0.00    -0.313 NA
ATOM     21  H   UNL     1      -4.173  -2.513  31.156  0.00  0.00    +0.120 HD
ATOM     22  H   UNL     1      -4.853  -3.671  30.170  0.00  0.00    +0.120 HD
ENDBRANCH  19  20
ENDBRANCH  17  19
ENDBRANCH   4  17
BRANCH   5  23
ATOM     23  C   UNL     1       2.386  -8.436  28.104  0.00  0.00    +0.023 C 
ATOM     24  C   UNL     1       2.091  -9.304  27.214  0.00  0.00    +0.087 C 
BRANCH  24  25
ATOM     25  C   UNL     1       0.875  -9.351  26.441  0.00  0.00    +0.339 C 
ATOM     26  O   UNL     1       0.537 -10.435  25.847  0.00  0.00    -0.245 OA
BRANCH  25  27
ATOM     27  O   UNL     1       0.054  -8.278  26.308  0.00  0.00    -0.477 OA
ATOM     28  H   UNL     1       0.269  -7.469  26.728  0.00  0.00    +0.295 HD
ENDBRANCH  25  27
ENDBRANCH  24  25
ENDBRANCH   5  23
BRANCH   6  29
ATOM     29  S   UNL     1       3.534  -5.129  29.162  0.00  0.00    -0.032 S 
BRANCH  29  30
ATOM     30  C   UNL     1       3.890  -5.288  27.422  0.00  0.00    +0.271 C 
ATOM     31  O   UNL     1       4.813  -5.951  27.037  0.00  0.00    -0.275 OA
ENDBRANCH  29  30
ENDBRANCH   6  29
BRANCH   7  32
ATOM     32  O   UNL     1       1.442  -4.743  31.658  0.00  0.00    -0.330 OA
BRANCH  32  33
ATOM     33  S   UNL     1       2.533  -5.274  32.855  0.00  0.00    +0.107 S 
ATOM     34  O   UNL     1       2.038  -6.568  33.482  0.00  0.00    -0.042 OA
ATOM     35  O   UNL     1       3.836  -5.628  32.189  0.00  0.00    -0.042 OA
BRANCH  33  36
ATOM     36  N   UNL     1       2.775  -4.090  34.065  0.00  0.00    -0.169 N 
ATOM     37  C   UNL     1       3.990  -4.136  34.802  0.00  0.00    +0.320 C 
ATOM     38  O   UNL     1       4.880  -5.002  34.598  0.00  0.00    -0.263 OA
ATOM     39  H   UNL     1       2.096  -3.400  34.245  0.00  0.00    +0.178 HD
ENDBRANCH  33  36
ENDBRANCH  32  33
ENDBRANCH   7  32
TORSDOF 13
