REMARK  Name = =
REMARK  4 active torsions:
REMARK  status: ('A' for Active; 'I' for Inactive)
REMARK    1  A    between atoms: O_1  and  C_2
REMARK    2  A    between atoms: O_1  and  C_15
REMARK    3  A    between atoms: C_12  and  C_18
REMARK    4  A    between atoms: C_18  and  O_20
REMARK                            x       y       z     vdW  Elec       q    Type
REMARK                         _______ _______ _______ _____ _____    ______ ____
ROOT
ATOM      1  O   UNL     1     -13.329 -41.760  27.195  0.00  0.00    -0.436 OA
ENDROOT
BRANCH   1   2
ATOM      2  C   UNL     1     -14.558 -41.958  26.634  0.00  0.00    +0.231 C 
ATOM      3  N   UNL     1     -15.635 -41.841  27.433  0.00  0.00    -0.192 NA
ATOM      4  C   UNL     1     -16.854 -42.021  26.949  0.00  0.00    +0.165 C 
ATOM      5  N   UNL     1     -17.917 -41.897  27.766  0.00  0.00    -0.225 NA
ATOM      6  C   UNL     1     -19.167 -42.067  27.333  0.00  0.00    +0.101 C 
ATOM      7  C   UNL     1     -19.363 -42.380  26.004  0.00  0.00    +0.021 C 
ATOM      8  C   UNL     1     -18.293 -42.512  25.144  0.00  0.00    +0.005 C 
ATOM      9  C   UNL     1     -16.998 -42.332  25.607  0.00  0.00    +0.036 C 
ATOM     10  C   UNL     1     -15.906 -42.457  24.776  0.00  0.00    +0.008 C 
ATOM     11  C   UNL     1     -14.645 -42.266  25.299  0.00  0.00    +0.058 C 
ENDBRANCH   1   2
BRANCH   1  15
ATOM     12  C   UNL     1     -11.163 -44.752  29.232  0.00  0.00    +0.076 C 
ATOM     13  C   UNL     1     -10.551 -43.587  28.821  0.00  0.00    +0.010 C 
ATOM     14  C   UNL     1     -11.273 -42.611  28.153  0.00  0.00    +0.038 C 
ATOM     15  C   UNL     1     -12.614 -42.750  27.869  0.00  0.00    +0.147 C 
ATOM     16  C   UNL     1     -13.220 -43.917  28.283  0.00  0.00    +0.038 C 
ATOM     17  C   UNL     1     -12.504 -44.895  28.950  0.00  0.00    +0.010 C 
BRANCH  12  18
ATOM     18  C   UNL     1     -10.427 -45.800  29.940  0.00  0.00    +0.338 C 
ATOM     19  O   UNL     1      -9.454 -46.399  29.418  0.00  0.00    -0.245 OA
BRANCH  18  20
ATOM     20  O   UNL     1     -10.815 -46.142  31.225  0.00  0.00    -0.477 OA
ATOM     21  H   UNL     1     -11.539 -45.704  31.628  0.00  0.00    +0.295 HD
ENDBRANCH  18  20
ENDBRANCH  12  18
ENDBRANCH   1  15
TORSDOF 4
