REMARK  Name = =
REMARK  0 active torsions:
REMARK  status: ('A' for Active; 'I' for Inactive)
REMARK                            x       y       z     vdW  Elec       q    Type
REMARK                         _______ _______ _______ _____ _____    ______ ____
ROOT
ATOM      1  N   UNL     1      51.730 153.974  29.468  0.00  0.00    -0.312 N 
ATOM      2  C   UNL     1      53.017 154.034  28.877  0.00  0.00    +0.048 C 
ATOM      3  C   UNL     1      54.135 153.519  29.638  0.00  0.00    +0.015 C 
ATOM      4  C   UNL     1      55.196 152.901  28.812  0.00  0.00    +0.001 C 
ATOM      5  C   UNL     1      55.215 152.892  27.427  0.00  0.00    +0.003 C 
ATOM      6  C   UNL     1      54.095 153.504  26.718  0.00  0.00    +0.038 C 
ATOM      7  C   UNL     1      54.135 153.513  25.331  0.00  0.00    +0.176 C 
ATOM      8  C   UNL     1      53.067 154.125  24.683  0.00  0.00    +0.176 C 
ATOM      9  C   UNL     1      52.034 154.687  25.400  0.00  0.00    +0.040 C 
ATOM     10  C   UNL     1      52.008 154.670  26.750  0.00  0.00    +0.006 C 
ATOM     11  C   UNL     1      53.064 154.064  27.435  0.00  0.00    +0.017 C 
ATOM     12  C   UNL     1      50.912 155.269  27.518  0.00  0.00    +0.016 C 
ATOM     13  C   UNL     1      50.685 154.685  28.862  0.00  0.00    +0.062 C 
ATOM     14  O   UNL     1      53.273 154.041  23.304  0.00  0.00    -0.435 OA
ATOM     15  C   UNL     1      54.324 153.130  23.064  0.00  0.00    +0.429 C 
ATOM     16  O   UNL     1      54.947 153.082  24.312  0.00  0.00    -0.435 OA
ATOM     17  C   UNL     1      56.255 152.305  26.743  0.00  0.00    +0.000 C 
ATOM     18  C   UNL     1      57.288 151.720  27.485  0.00  0.00    +0.000 C 
ATOM     19  C   UNL     1      57.271 151.728  28.848  0.00  0.00    +0.000 C 
ATOM     20  C   UNL     1      56.239 152.310  29.550  0.00  0.00    +0.000 C 
ATOM     21  H   UNL     1      51.574 153.446  30.284  0.00  0.00    +0.152 HD
ENDROOT
TORSDOF 0
