REMARK  Name = =
REMARK  0 active torsions:
REMARK  status: ('A' for Active; 'I' for Inactive)
REMARK                            x       y       z     vdW  Elec       q    Type
REMARK                         _______ _______ _______ _____ _____    ______ ____
ROOT
ATOM      1  N   UNL     1      51.280 155.086  28.591  0.00  0.00    -0.262 N 
ATOM      2  N   UNL     1      52.300 155.746  28.089  0.00  0.00    -0.232 N 
ATOM      3  C   UNL     1      52.389 156.935  28.699  0.00  0.00    +0.263 C 
ATOM      4  O   UNL     1      53.249 157.826  28.471  0.00  0.00    -0.269 OA
ATOM      5  C   UNL     1      51.374 157.022  29.629  0.00  0.00    +0.076 C 
ATOM      6  C   UNL     1      50.673 155.812  29.536  0.00  0.00    +0.080 C 
ATOM      7  H   UNL     1      51.002 154.184  28.311  0.00  0.00    +0.170 HD
ATOM      8  H   UNL     1      52.900 155.420  27.380  0.00  0.00    +0.173 HD
ENDROOT
TORSDOF 0
