REMARK  Name = =
REMARK  3 active torsions:
REMARK  status: ('A' for Active; 'I' for Inactive)
REMARK    1  A    between atoms: C_5  and  P_7
REMARK    2  A    between atoms: P_7  and  O_9
REMARK    3  A    between atoms: P_7  and  O_10
REMARK                            x       y       z     vdW  Elec       q    Type
REMARK                         _______ _______ _______ _____ _____    ______ ____
ROOT
ATOM      1  N   UNL     1      51.443 155.321  29.224  0.00  0.00    -0.261 N 
ATOM      2  N   UNL     1      52.590 155.889  28.966  0.00  0.00    -0.232 N 
ATOM      3  C   UNL     1      52.460 157.197  29.279  0.00  0.00    +0.270 C 
ATOM      4  O   UNL     1      53.359 158.059  29.164  0.00  0.00    -0.268 OA
ATOM      5  C   UNL     1      51.179 157.444  29.751  0.00  0.00    +0.150 C 
ATOM      6  C   UNL     1      50.550 156.207  29.700  0.00  0.00    +0.088 C 
ATOM      7  H   UNL     1      51.255 154.364  29.087  0.00  0.00    +0.170 HD
ATOM      8  H   UNL     1      53.396 155.448  28.611  0.00  0.00    +0.173 HD
ENDROOT
BRANCH   5   9
ATOM      9  P   UNL     1      50.493 158.990  30.296  0.00  0.00    +0.365 P 
ATOM     10  O   UNL     1      49.444 158.685  31.364  0.00  0.00    -0.253 OA
BRANCH   9  11
ATOM     11  O   UNL     1      51.711 159.903  31.021  0.00  0.00    -0.321 OA
ATOM     12  H   UNL     1      52.130 159.383  31.725  0.00  0.00    +0.220 HD
ENDBRANCH   9  11
BRANCH   9  13
ATOM     13  O   UNL     1      49.718 159.827  29.062  0.00  0.00    -0.321 OA
ATOM     14  H   UNL     1      50.357 160.038  28.363  0.00  0.00    +0.220 HD
ENDBRANCH   9  13
ENDBRANCH   5   9
TORSDOF 3
