REMARK  Name = =
REMARK  3 active torsions:
REMARK  status: ('A' for Active; 'I' for Inactive)
REMARK    1  A    between atoms: N_1  and  N_21
REMARK    2  A    between atoms: C_22  and  C_24
REMARK    3  A    between atoms: C_24  and  O_26
REMARK                            x       y       z     vdW  Elec       q    Type
REMARK                         _______ _______ _______ _____ _____    ______ ____
ROOT
ATOM      1  N   UNL     1      52.622 155.456  27.581  0.00  0.00    -0.238 N 
ATOM      2  C   UNL     1      53.932 155.086  27.181  0.00  0.00    +0.065 C 
ATOM      3  C   UNL     1      54.583 154.102  28.040  0.00  0.00    +0.016 C 
ATOM      4  C   UNL     1      55.519 153.195  27.350  0.00  0.00    +0.001 C 
ATOM      5  C   UNL     1      55.787 153.197  25.993  0.00  0.00    +0.003 C 
ATOM      6  C   UNL     1      55.094 154.191  25.177  0.00  0.00    +0.038 C 
ATOM      7  C   UNL     1      55.335 154.223  23.809  0.00  0.00    +0.176 C 
ATOM      8  C   UNL     1      54.665 155.179  23.035  0.00  0.00    +0.176 C 
ATOM      9  C   UNL     1      53.791 156.056  23.644  0.00  0.00    +0.036 C 
ATOM     10  C   UNL     1      53.556 156.022  24.988  0.00  0.00    -0.016 C 
ATOM     11  C   UNL     1      54.216 155.078  25.760  0.00  0.00    +0.014 C 
ATOM     12  C   UNL     1      52.637 156.949  25.616  0.00  0.00    +0.050 C 
ATOM     13  C   UNL     1      51.933 156.403  26.828  0.00  0.00    +0.117 C 
ATOM     14  O   UNL     1      55.083 154.990  21.727  0.00  0.00    -0.435 OA
ATOM     15  C   UNL     1      56.321 154.272  21.806  0.00  0.00    +0.429 C 
ATOM     16  O   UNL     1      56.133 153.487  22.972  0.00  0.00    -0.435 OA
ATOM     17  C   UNL     1      56.686 152.284  25.465  0.00  0.00    +0.000 C 
ATOM     18  C   UNL     1      57.324 151.369  26.267  0.00  0.00    +0.000 C 
ATOM     19  C   UNL     1      57.061 151.363  27.614  0.00  0.00    +0.000 C 
ATOM     20  C   UNL     1      56.171 152.267  28.134  0.00  0.00    +0.000 C 
ENDROOT
BRANCH   1  21
ATOM     21  N   UNL     1      52.305 155.265  28.883  0.00  0.00    -0.224 N 
ATOM     22  C   UNL     1      50.938 155.231  29.293  0.00  0.00    +0.337 C 
ATOM     23  O   UNL     1      49.996 155.380  28.453  0.00  0.00    -0.261 OA
ATOM     24  H   UNL     1      53.020 155.149  29.550  0.00  0.00    +0.174 HD
BRANCH  22  25
ATOM     25  C   UNL     1      50.562 155.027  30.683  0.00  0.00    +0.394 C 
ATOM     26  O   UNL     1      49.756 155.784  31.271  0.00  0.00    -0.240 OA
BRANCH  25  27
ATOM     27  O   UNL     1      51.103 153.969  31.383  0.00  0.00    -0.474 OA
ATOM     28  H   UNL     1      51.708 153.390  30.963  0.00  0.00    +0.296 HD
ENDBRANCH  25  27
ENDBRANCH  22  25
ENDBRANCH   1  21
TORSDOF 3
