REMARK  Name = =
REMARK  6 active torsions:
REMARK  status: ('A' for Active; 'I' for Inactive)
REMARK    1  A    between atoms: N_1  and  O_11
REMARK    2  A    between atoms: C_5  and  P_7
REMARK    3  A    between atoms: P_7  and  O_9
REMARK    4  A    between atoms: P_7  and  O_10
REMARK    5  A    between atoms: O_11  and  C_12
REMARK    6  A    between atoms: C_15  and  C_18
REMARK                            x       y       z     vdW  Elec       q    Type
REMARK                         _______ _______ _______ _____ _____    ______ ____
ROOT
ATOM      1  N   UNL     1      51.504 156.639  27.942  0.00  0.00    -0.115 N 
ATOM      2  N   UNL     1      52.682 157.198  28.105  0.00  0.00    -0.189 N 
ATOM      3  C   UNL     1      52.577 158.253  28.931  0.00  0.00    +0.274 C 
ATOM      4  O   UNL     1      53.482 159.046  29.333  0.00  0.00    -0.268 OA
ATOM      5  C   UNL     1      51.255 158.364  29.311  0.00  0.00    +0.157 C 
ATOM      6  C   UNL     1      50.611 157.331  28.668  0.00  0.00    +0.147 C 
ATOM      7  H   UNL     1      53.517 156.890  27.685  0.00  0.00    +0.179 HD
ENDROOT
BRANCH   5   8
ATOM      8  P   UNL     1      50.570 159.604  30.409  0.00  0.00    +0.366 P 
ATOM      9  O   UNL     1      49.715 160.536  29.562  0.00  0.00    -0.253 OA
BRANCH   8  10
ATOM     10  O   UNL     1      49.658 158.857  31.595  0.00  0.00    -0.321 OA
ATOM     11  H   UNL     1      50.226 158.270  32.118  0.00  0.00    +0.220 HD
ENDBRANCH   8  10
BRANCH   8  12
ATOM     12  O   UNL     1      51.815 160.535  31.093  0.00  0.00    -0.321 OA
ATOM     13  H   UNL     1      52.380 159.967  31.641  0.00  0.00    +0.220 HD
ENDBRANCH   8  12
ENDBRANCH   5   8
BRANCH   1  14
ATOM     14  O   UNL     1      51.286 155.538  27.151  0.00  0.00    -0.358 OA
BRANCH  14  15
ATOM     15  C   UNL     1      52.315 154.737  26.661  0.00  0.00    +0.175 C 
ATOM     16  C   UNL     1      52.582 154.665  25.316  0.00  0.00    +0.040 C 
ATOM     17  C   UNL     1      53.581 153.896  24.765  0.00  0.00    +0.003 C 
ATOM     18  C   UNL     1      54.369 153.145  25.632  0.00  0.00    +0.000 C 
ATOM     19  C   UNL     1      54.132 153.192  26.987  0.00  0.00    +0.003 C 
ATOM     20  C   UNL     1      53.114 153.981  27.498  0.00  0.00    +0.040 C 
BRANCH  18  21
ATOM     21  C   UNL     1      55.430 152.327  25.058  0.00  0.00    +0.000 C 
ATOM     22  C   UNL     1      56.045 151.361  25.689  0.00  0.00    +0.000 C 
ENDBRANCH  18  21
ENDBRANCH  14  15
ENDBRANCH   1  14
TORSDOF 6
