REMARK  Name = =
REMARK  5 active torsions:
REMARK  status: ('A' for Active; 'I' for Inactive)
REMARK    1  A    between atoms: N_1  and  C_20
REMARK    2  A    between atoms: C_9  and  C_10
REMARK    3  A    between atoms: C_21  and  O_29
REMARK    4  A    between atoms: C_24  and  C_27
REMARK    5  A    between atoms: C_25  and  O_26
REMARK                            x       y       z     vdW  Elec       q    Type
REMARK                         _______ _______ _______ _____ _____    ______ ____
ROOT
ATOM      1  N   UNL     1      53.435 153.376  27.190  0.00  0.00    -0.282 N 
ATOM      2  C   UNL     1      52.905 152.068  26.968  0.00  0.00    +0.047 C 
ATOM      3  C   UNL     1      51.635 152.080  27.547  0.00  0.00    -0.007 C 
ATOM      4  C   UNL     1      51.345 153.420  28.133  0.00  0.00    +0.049 C 
ATOM      5  C   UNL     1      52.732 153.974  28.337  0.00  0.00    +0.100 C 
ATOM      6  C   UNL     1      50.834 150.957  27.521  0.00  0.00    -0.003 C 
ATOM      7  C   UNL     1      51.313 149.821  26.910  0.00  0.00    -0.000 C 
ATOM      8  C   UNL     1      52.565 149.784  26.330  0.00  0.00    +0.001 C 
ATOM      9  C   UNL     1      53.365 150.929  26.364  0.00  0.00    +0.034 C 
ENDROOT
BRANCH   9  10
ATOM     10  C   UNL     1      54.698 150.909  25.741  0.00  0.00    +0.233 C 
ATOM     11  O   UNL     1      54.999 152.090  25.023  0.00  0.00    -0.468 OA
ATOM     12  C   UNL     1      54.360 152.379  23.835  0.00  0.00    +0.173 C 
ATOM     13  C   UNL     1      53.942 151.310  23.076  0.00  0.00    +0.172 C 
ATOM     14  C   UNL     1      53.291 151.560  21.867  0.00  0.00    +0.040 C 
ATOM     15  C   UNL     1      53.086 152.860  21.467  0.00  0.00    +0.003 C 
ATOM     16  C   UNL     1      53.499 153.940  22.216  0.00  0.00    +0.003 C 
ATOM     17  C   UNL     1      54.146 153.697  23.418  0.00  0.00    +0.040 C 
ATOM     18  O   UNL     1      54.170 150.016  23.515  0.00  0.00    -0.468 OA
ATOM     19  C   UNL     1      54.801 149.773  24.714  0.00  0.00    +0.253 C 
ENDBRANCH   9  10
BRANCH   1  20
ATOM     20  C   UNL     1      54.430 154.008  26.450  0.00  0.00    +0.120 C 
ATOM     21  C   UNL     1      55.713 153.541  26.439  0.00  0.00    +0.150 C 
ATOM     22  C   UNL     1      56.709 154.183  25.699  0.00  0.00    +0.038 C 
ATOM     23  C   UNL     1      56.360 155.299  24.983  0.00  0.00    +0.010 C 
ATOM     24  C   UNL     1      55.063 155.810  24.966  0.00  0.00    +0.077 C 
ATOM     25  C   UNL     1      54.110 155.148  25.709  0.00  0.00    +0.153 C 
BRANCH  25  26
ATOM     26  O   UNL     1      52.801 155.595  25.743  0.00  0.00    -0.504 OA
ATOM     27  H   UNL     1      52.553 156.357  25.257  0.00  0.00    +0.292 HD
ENDBRANCH  25  26
BRANCH  24  28
ATOM     28  C   UNL     1      54.772 157.001  24.180  0.00  0.00    +0.237 C 
ATOM     29  O   UNL     1      55.738 157.533  23.545  0.00  0.00    -0.283 OA
ENDBRANCH  24  28
BRANCH  21  30
ATOM     30  O   UNL     1      56.117 152.413  27.155  0.00  0.00    -0.504 OA
ATOM     31  H   UNL     1      55.495 151.938  27.671  0.00  0.00    +0.292 HD
ENDBRANCH  21  30
ENDBRANCH   1  20
TORSDOF 5
