REMARK  Name = =
REMARK  9 active torsions:
REMARK  status: ('A' for Active; 'I' for Inactive)
REMARK    1  A    between atoms: C_1  and  O_17
REMARK    2  A    between atoms: C_2  and  N_9
REMARK    3  A    between atoms: C_4  and  C_7
REMARK    4  A    between atoms: S_10  and  N_13
REMARK    5  A    between atoms: C_14  and  O_16
REMARK    6  A    between atoms: O_17  and  N_18
REMARK    7  A    between atoms: C_22  and  P_24
REMARK    8  A    between atoms: P_24  and  O_26
REMARK    9  A    between atoms: P_24  and  O_27
REMARK                            x       y       z     vdW  Elec       q    Type
REMARK                         _______ _______ _______ _____ _____    ______ ____
ROOT
ATOM      1  N   UNL     1      50.824 157.921  30.088  0.00  0.00    -0.115 N 
ATOM      2  N   UNL     1      51.379 159.117  29.994  0.00  0.00    -0.189 N 
ATOM      3  C   UNL     1      50.505 160.063  30.392  0.00  0.00    +0.274 C 
ATOM      4  O   UNL     1      50.735 161.302  30.419  0.00  0.00    -0.268 OA
ATOM      5  C   UNL     1      49.338 159.423  30.754  0.00  0.00    +0.157 C 
ATOM      6  C   UNL     1      49.572 158.073  30.552  0.00  0.00    +0.147 C 
ATOM      7  H   UNL     1      52.296 159.291  29.680  0.00  0.00    +0.179 HD
ENDROOT
BRANCH   5   8
ATOM      8  P   UNL     1      47.860 160.213  31.353  0.00  0.00    +0.366 P 
ATOM      9  O   UNL     1      47.489 159.784  32.743  0.00  0.00    -0.253 OA
BRANCH   8  10
ATOM     10  O   UNL     1      48.090 161.890  31.372  0.00  0.00    -0.321 OA
ATOM     11  H   UNL     1      48.832 162.108  31.957  0.00  0.00    +0.220 HD
ENDBRANCH   8  10
BRANCH   8  12
ATOM     12  O   UNL     1      46.550 159.905  30.313  0.00  0.00    -0.321 OA
ATOM     13  H   UNL     1      46.781 160.179  29.412  0.00  0.00    +0.220 HD
ENDBRANCH   8  12
ENDBRANCH   5   8
BRANCH   1  14
ATOM     14  O   UNL     1      51.408 156.720  29.771  0.00  0.00    -0.356 OA
BRANCH  14  15
ATOM     15  C   UNL     1      52.127 156.584  28.601  0.00  0.00    +0.189 C 
ATOM     16  C   UNL     1      53.173 157.434  28.359  0.00  0.00    +0.098 C 
ATOM     17  C   UNL     1      53.867 157.275  27.189  0.00  0.00    +0.019 C 
ATOM     18  C   UNL     1      53.536 156.280  26.252  0.00  0.00    +0.001 C 
ATOM     19  C   UNL     1      52.483 155.455  26.538  0.00  0.00    +0.003 C 
ATOM     20  C   UNL     1      51.770 155.590  27.700  0.00  0.00    +0.042 C 
BRANCH  18  21
ATOM     21  C   UNL     1      54.334 156.188  25.042  0.00  0.00    +0.000 C 
ATOM     22  C   UNL     1      54.612 155.024  24.501  0.00  0.00    +0.000 C 
ENDBRANCH  18  21
BRANCH  16  23
ATOM     23  N   UNL     1      53.505 158.438  29.290  0.00  0.00    -0.262 NA
ATOM     24  H   UNL     1      52.987 158.528  30.123  0.00  0.00    +0.170 HD
ENDBRANCH  16  23
ENDBRANCH  14  15
ENDBRANCH   1  14
TORSDOF 7
REMARK  Name = =
REMARK  9 active torsions:
REMARK  status: ('A' for Active; 'I' for Inactive)
REMARK    1  A    between atoms: C_1  and  O_17
REMARK    2  A    between atoms: C_2  and  N_9
REMARK    3  A    between atoms: C_4  and  C_7
REMARK    4  A    between atoms: S_10  and  N_13
REMARK    5  A    between atoms: C_14  and  O_16
REMARK    6  A    between atoms: O_17  and  N_18
REMARK    7  A    between atoms: C_22  and  P_24
REMARK    8  A    between atoms: P_24  and  O_26
REMARK    9  A    between atoms: P_24  and  O_27
REMARK                            x       y       z     vdW  Elec       q    Type
REMARK                         _______ _______ _______ _____ _____    ______ ____
ROOT
ATOM      1  N   UNL     1      54.641 161.017  29.538  0.00  0.00    -0.155 N 
ATOM      2  C   UNL     1      55.347 161.692  30.564  0.00  0.00    +0.417 C 
ATOM      3  O   UNL     1      56.213 161.047  31.211  0.00  0.00    -0.225 OA
ATOM      4  H   UNL     1      53.958 161.499  29.018  0.00  0.00    +0.179 HD
ENDROOT
BRANCH   1   5
ATOM      5  S   UNL     1      54.965 159.362  29.190  0.00  0.00    +0.068 S 
ATOM      6  O   UNL     1      55.671 159.170  27.884  0.00  0.00    -0.058 OA
ATOM      7  O   UNL     1      55.921 158.879  30.272  0.00  0.00    -0.058 OA
ENDBRANCH   1   5
BRANCH   2   8
ATOM      8  O   UNL     1      55.101 163.040  30.865  0.00  0.00    -0.465 OA
ATOM      9  H   UNL     1      54.456 163.518  30.382  0.00  0.00    +0.297 HD
ENDBRANCH   2   8
TORSDOF 2
