REMARK  Name = =
REMARK  12 active torsions:
REMARK  status: ('A' for Active; 'I' for Inactive)
REMARK    1  A    between atoms: C_1  and  O_21
REMARK    2  A    between atoms: C_2  and  N_13
REMARK    3  A    between atoms: C_4  and  C_11
REMARK    4  A    between atoms: C_5  and  S_7
REMARK    5  A    between atoms: S_7  and  N_10
REMARK    6  A    between atoms: N_13  and  S_14
REMARK    7  A    between atoms: S_14  and  N_17
REMARK    8  A    between atoms: C_18  and  O_20
REMARK    9  A    between atoms: O_21  and  N_22
REMARK   10  A    between atoms: C_26  and  P_28
REMARK   11  A    between atoms: P_28  and  O_30
REMARK   12  A    between atoms: P_28  and  O_31
REMARK                            x       y       z     vdW  Elec       q    Type
REMARK                         _______ _______ _______ _____ _____    ______ ____
ROOT
ATOM      1  C   UNL     1      51.778 158.800  30.143  0.00  0.00    +0.191 C 
ATOM      2  C   UNL     1      51.010 159.760  30.755  0.00  0.00    +0.103 C 
ATOM      3  C   UNL     1      51.541 160.996  31.119  0.00  0.00    +0.020 C 
ATOM      4  C   UNL     1      52.873 161.273  30.863  0.00  0.00    +0.020 C 
ATOM      5  C   UNL     1      53.662 160.310  30.245  0.00  0.00    +0.125 C 
ATOM      6  C   UNL     1      53.101 159.086  29.894  0.00  0.00    +0.061 C 
ENDROOT
BRANCH   5   7
ATOM      7  S   UNL     1      55.344 160.659  29.925  0.00  0.00    +0.057 S 
ATOM      8  O   UNL     1      55.975 161.095  31.226  0.00  0.00    -0.153 OA
ATOM      9  O   UNL     1      55.468 161.779  28.957  0.00  0.00    -0.153 OA
BRANCH   7  10
ATOM     10  N   UNL     1      56.166 159.251  29.350  0.00  0.00    -0.203 NA
ATOM     11  H   UNL     1      56.067 158.498  30.030  0.00  0.00    +0.144 HD
ATOM     12  H   UNL     1      57.155 159.464  29.220  0.00  0.00    +0.144 HD
ENDBRANCH   7  10
ENDBRANCH   5   7
BRANCH   4  13
ATOM     13  C   UNL     1      53.450 162.557  31.222  0.00  0.00    +0.001 C 
ATOM     14  C   UNL     1      52.720 163.557  31.667  0.00  0.00    +0.000 C 
ENDBRANCH   4  13
BRANCH   2  15
ATOM     15  N   UNL     1      49.640 159.491  31.021  0.00  0.00    -0.200 N 
ATOM     16  H   UNL     1      49.198 158.787  30.494  0.00  0.00    +0.175 HD
BRANCH  15  17
ATOM     17  S   UNL     1      48.703 160.317  32.205  0.00  0.00    +0.129 S 
ATOM     18  O   UNL     1      49.618 160.872  33.254  0.00  0.00    -0.135 OA
ATOM     19  O   UNL     1      47.690 159.361  32.818  0.00  0.00    -0.135 OA
BRANCH  17  20
ATOM     20  N   UNL     1      47.777 161.566  31.442  0.00  0.00    -0.138 N 
ATOM     21  C   UNL     1      46.686 161.169  30.596  0.00  0.00    +0.418 C 
ATOM     22  O   UNL     1      46.398 159.935  30.409  0.00  0.00    -0.225 OA
ATOM     23  H   UNL     1      47.991 162.516  31.583  0.00  0.00    +0.181 HD
BRANCH  21  24
ATOM     24  O   UNL     1      45.886 162.073  29.941  0.00  0.00    -0.465 OA
ATOM     25  H   UNL     1      46.043 162.992  30.035  0.00  0.00    +0.297 HD
ENDBRANCH  21  24
ENDBRANCH  17  20
ENDBRANCH  15  17
ENDBRANCH   2  15
BRANCH   1  26
ATOM     26  O   UNL     1      51.225 157.601  29.800  0.00  0.00    -0.356 OA
BRANCH  26  27
ATOM     27  N   UNL     1      51.836 156.688  28.973  0.00  0.00    -0.115 N 
ATOM     28  N   UNL     1      52.282 155.478  29.246  0.00  0.00    -0.189 N 
ATOM     29  C   UNL     1      52.825 154.889  28.170  0.00  0.00    +0.274 C 
ATOM     30  O   UNL     1      53.351 153.744  28.040  0.00  0.00    -0.268 OA
ATOM     31  C   UNL     1      52.727 155.772  27.133  0.00  0.00    +0.157 C 
ATOM     32  C   UNL     1      52.097 156.903  27.664  0.00  0.00    +0.147 C 
ATOM     33  H   UNL     1      52.224 155.057  30.134  0.00  0.00    +0.179 HD
BRANCH  31  34
ATOM     34  P   UNL     1      53.240 155.648  25.434  0.00  0.00    +0.366 P 
ATOM     35  O   UNL     1      54.743 155.744  25.402  0.00  0.00    -0.253 OA
BRANCH  34  36
ATOM     36  O   UNL     1      52.591 156.923  24.513  0.00  0.00    -0.321 OA
ATOM     37  H   UNL     1      52.875 157.771  24.889  0.00  0.00    +0.220 HD
ENDBRANCH  34  36
BRANCH  34  38
ATOM     38  O   UNL     1      52.719 154.218  24.741  0.00  0.00    -0.321 OA
ATOM     39  H   UNL     1      53.072 153.467  25.244  0.00  0.00    +0.220 HD
ENDBRANCH  34  38
ENDBRANCH  31  34
ENDBRANCH  26  27
ENDBRANCH   1  26
TORSDOF 12
