REMARK  Name = =
REMARK  13 active torsions:
REMARK  status: ('A' for Active; 'I' for Inactive)
REMARK    1  A    between atoms: C_1  and  O_21
REMARK    2  A    between atoms: C_2  and  N_13
REMARK    3  A    between atoms: C_4  and  C_11
REMARK    4  A    between atoms: C_5  and  S_7
REMARK    5  A    between atoms: S_7  and  N_10
REMARK    6  A    between atoms: N_13  and  S_14
REMARK    7  A    between atoms: S_14  and  N_17
REMARK    8  A    between atoms: C_18  and  O_20
REMARK    9  A    between atoms: O_21  and  N_22
REMARK   10  A    between atoms: C_26  and  P_28
REMARK   11  A    between atoms: P_28  and  O_30
REMARK   12  A    between atoms: P_28  and  O_31
REMARK   13  A    between atoms: O_31  and  C_32
REMARK                            x       y       z     vdW  Elec       q    Type
REMARK                         _______ _______ _______ _____ _____    ______ ____
ROOT
ATOM      1  C   UNL     1      51.880 161.197  30.674  0.00  0.00    +0.191 C 
ATOM      2  C   UNL     1      51.875 159.880  30.277  0.00  0.00    +0.103 C 
ATOM      3  C   UNL     1      50.751 159.109  30.589  0.00  0.00    +0.020 C 
ATOM      4  C   UNL     1      49.682 159.656  31.275  0.00  0.00    +0.020 C 
ATOM      5  C   UNL     1      49.669 160.969  31.680  0.00  0.00    +0.125 C 
ATOM      6  C   UNL     1      50.761 161.722  31.378  0.00  0.00    +0.061 C 
ENDROOT
BRANCH   5   7
ATOM      7  S   UNL     1      48.303 161.676  32.546  0.00  0.00    +0.057 S 
ATOM      8  O   UNL     1      48.045 163.051  32.023  0.00  0.00    -0.153 OA
ATOM      9  O   UNL     1      47.130 160.759  32.307  0.00  0.00    -0.153 OA
BRANCH   7  10
ATOM     10  N   UNL     1      48.616 161.713  34.241  0.00  0.00    -0.203 NA
ATOM     11  H   UNL     1      49.408 162.329  34.427  0.00  0.00    +0.144 HD
ATOM     12  H   UNL     1      48.834 160.771  34.567  0.00  0.00    +0.144 HD
ENDBRANCH   7  10
ENDBRANCH   5   7
BRANCH   4  13
ATOM     13  C   UNL     1      48.516 158.834  31.586  0.00  0.00    +0.001 C 
ATOM     14  C   UNL     1      47.981 158.130  30.583  0.00  0.00    +0.000 C 
ENDBRANCH   4  13
BRANCH   2  15
ATOM     15  N   UNL     1      52.960 159.335  29.560  0.00  0.00    -0.200 N 
ATOM     16  H   UNL     1      53.835 159.784  29.607  0.00  0.00    +0.175 HD
BRANCH  15  17
ATOM     17  S   UNL     1      52.805 157.913  28.607  0.00  0.00    +0.129 S 
ATOM     18  O   UNL     1      54.109 157.612  27.899  0.00  0.00    -0.135 OA
ATOM     19  O   UNL     1      51.688 158.051  27.652  0.00  0.00    -0.135 OA
BRANCH  17  20
ATOM     20  N   UNL     1      52.503 156.511  29.607  0.00  0.00    -0.138 N 
ATOM     21  C   UNL     1      52.127 155.275  29.005  0.00  0.00    +0.418 C 
ATOM     22  O   UNL     1      52.031 155.246  27.768  0.00  0.00    -0.225 OA
ATOM     23  H   UNL     1      52.593 156.575  30.585  0.00  0.00    +0.181 HD
BRANCH  21  24
ATOM     24  O   UNL     1      51.864 154.115  29.715  0.00  0.00    -0.465 OA
ATOM     25  H   UNL     1      51.930 154.113  30.650  0.00  0.00    +0.297 HD
ENDBRANCH  21  24
ENDBRANCH  17  20
ENDBRANCH  15  17
ENDBRANCH   2  15
BRANCH   1  26
ATOM     26  O   UNL     1      52.910 162.048  30.433  0.00  0.00    -0.356 OA
BRANCH  26  27
ATOM     27  N   UNL     1      54.166 162.080  30.874  0.00  0.00    -0.115 N 
ATOM     28  N   UNL     1      55.289 162.189  30.130  0.00  0.00    -0.189 N 
ATOM     29  C   UNL     1      56.374 162.220  30.880  0.00  0.00    +0.274 C 
ATOM     30  O   UNL     1      57.598 162.315  30.517  0.00  0.00    -0.268 OA
ATOM     31  C   UNL     1      55.988 162.130  32.194  0.00  0.00    +0.157 C 
ATOM     32  C   UNL     1      54.621 162.045  32.167  0.00  0.00    +0.147 C 
ATOM     33  H   UNL     1      55.297 162.239  29.147  0.00  0.00    +0.179 HD
BRANCH  31  34
ATOM     34  P   UNL     1      57.091 162.132  33.598  0.00  0.00    +0.369 P 
ATOM     35  O   UNL     1      56.426 161.358  34.711  0.00  0.00    -0.253 OA
BRANCH  34  36
ATOM     36  O   UNL     1      58.614 161.513  33.229  0.00  0.00    -0.320 OA
ATOM     37  H   UNL     1      59.010 162.033  32.512  0.00  0.00    +0.220 HD
ENDBRANCH  34  36
BRANCH  34  38
ATOM     38  O   UNL     1      57.308 163.731  34.098  0.00  0.00    -0.294 OA
BRANCH  38  39
ATOM     39  C   UNL     1      58.616 163.980  34.455  0.00  0.00    +0.124 C 
ATOM     40  C   UNL     1      58.951 165.429  34.434  0.00  0.00    +0.030 C 
ATOM     41  C   UNL     1      59.807 165.711  35.404  0.00  0.00    +0.003 C 
ATOM     42  C   UNL     1      60.129 164.460  36.175  0.00  0.00    +0.003 C 
ATOM     43  C   UNL     1      58.910 163.582  35.868  0.00  0.00    +0.030 C 
ENDBRANCH  38  39
ENDBRANCH  34  38
ENDBRANCH  31  34
ENDBRANCH  26  27
ENDBRANCH   1  26
TORSDOF 13
