REMARK  Name = =
REMARK  0 active torsions:
REMARK  status: ('A' for Active; 'I' for Inactive)
REMARK                            x       y       z     vdW  Elec       q    Type
REMARK                         _______ _______ _______ _____ _____    ______ ____
ROOT
ATOM      1  N   UNL     1      -3.114  -3.934  31.108  0.00  0.00    -0.295 NA
ATOM      2  C   UNL     1      -3.503  -5.195  31.708  0.00  0.00    +0.088 C 
ATOM      3  C   UNL     1      -2.455  -6.258  31.569  0.00  0.00    +0.106 C 
ATOM      4  N   UNL     1      -1.935  -6.399  30.240  0.00  0.00    -0.215 NA
ATOM      5  C   UNL     1      -1.495  -5.072  29.802  0.00  0.00    +0.106 C 
ATOM      6  C   UNL     1      -2.758  -4.239  29.717  0.00  0.00    +0.088 C 
ATOM      7  H   UNL     1      -2.312  -3.540  31.600  0.00  0.00    +0.123 HD
ENDROOT
TORSDOF 0
