REMARK  Name = =
REMARK  1 active torsions:
REMARK  status: ('A' for Active; 'I' for Inactive)
REMARK    1  A    between atoms: C_3  and  C_7
REMARK                            x       y       z     vdW  Elec       q    Type
REMARK                         _______ _______ _______ _____ _____    ______ ____
ROOT
ATOM      1  N   UNL     1      -3.678  -3.165  30.434  0.00  0.00    -0.295 NA
ATOM      2  C   UNL     1      -3.443  -4.136  31.412  0.00  0.00    +0.089 C 
ATOM      3  C   UNL     1      -2.335  -5.096  31.167  0.00  0.00    +0.116 C 
ATOM      4  N   UNL     1      -2.088  -5.350  29.761  0.00  0.00    -0.214 NA
ATOM      5  C   UNL     1      -1.728  -4.043  29.207  0.00  0.00    +0.106 C 
ATOM      6  C   UNL     1      -2.942  -3.188  29.243  0.00  0.00    +0.088 C 
ATOM      7  H   UNL     1      -3.507  -2.259  30.870  0.00  0.00    +0.123 HD
ENDROOT
BRANCH   3   8
ATOM      8  C   UNL     1      -2.610  -6.396  31.880  0.00  0.00    +0.132 C 
ATOM      9  O   UNL     1      -2.914  -6.172  33.222  0.00  0.00    -0.355 OA
ATOM     10  C   UNL     1      -3.646  -7.277  33.653  0.00  0.00    +0.142 C 
ATOM     11  C   UNL     1      -3.081  -8.581  33.230  0.00  0.00    +0.032 C 
ATOM     12  C   UNL     1      -1.705  -8.539  32.677  0.00  0.00    +0.005 C 
ATOM     13  C   UNL     1      -1.403  -7.309  31.860  0.00  0.00    +0.031 C 
ENDBRANCH   3   8
TORSDOF 1
