REMARK  Name = =
REMARK  4 active torsions:
REMARK  status: ('A' for Active; 'I' for Inactive)
REMARK    1  A    between atoms: C_1  and  C_9
REMARK    2  A    between atoms: C_5  and  N_13
REMARK    3  A    between atoms: C_14  and  C_16
REMARK    4  A    between atoms: C_17  and  O_22
REMARK                            x       y       z     vdW  Elec       q    Type
REMARK                         _______ _______ _______ _____ _____    ______ ____
ROOT
ATOM      1  C   UNL     1      -2.837  -5.149  30.920  0.00  0.00    +0.134 C 
ATOM      2  O   UNL     1      -2.828  -5.053  29.527  0.00  0.00    -0.355 OA
ATOM      3  C   UNL     1      -2.289  -3.791  29.227  0.00  0.00    +0.144 C 
ATOM      4  C   UNL     1      -3.335  -2.776  29.626  0.00  0.00    +0.052 C 
ATOM      5  C   UNL     1      -3.731  -2.883  31.068  0.00  0.00    +0.077 C 
ATOM      6  C   UNL     1      -3.951  -4.304  31.513  0.00  0.00    +0.051 C 
ENDROOT
BRANCH   1   9
ATOM      7  N   UNL     1      -2.411  -7.889  33.388  0.00  0.00    -0.295 NA
ATOM      8  C   UNL     1      -2.888  -6.653  32.840  0.00  0.00    +0.089 C 
ATOM      9  C   UNL     1      -2.971  -6.596  31.367  0.00  0.00    +0.116 C 
ATOM     10  N   UNL     1      -1.982  -7.359  30.663  0.00  0.00    -0.214 NA
ATOM     11  C   UNL     1      -1.797  -8.682  31.231  0.00  0.00    +0.106 C 
ATOM     12  C   UNL     1      -1.313  -8.468  32.652  0.00  0.00    +0.088 C 
ATOM     13  H   UNL     1      -3.182  -8.557  33.394  0.00  0.00    +0.123 HD
ENDBRANCH   1   9
BRANCH   5  14
ATOM     14  N   UNL     1      -4.938  -2.070  31.238  0.00  0.00    -0.302 N 
ATOM     15  C   UNL     1      -4.909  -0.662  31.196  0.00  0.00    +0.249 C 
ATOM     16  O   UNL     1      -3.754  -0.165  30.997  0.00  0.00    -0.270 OA
ATOM     17  H   UNL     1      -5.799  -2.523  31.387  0.00  0.00    +0.150 HD
BRANCH  15  18
ATOM     18  C   UNL     1      -6.039   0.230  31.351  0.00  0.00    +0.087 C 
ATOM     19  C   UNL     1      -7.117   0.028  32.176  0.00  0.00    +0.138 C 
ATOM     20  C   UNL     1      -8.167   0.956  32.257  0.00  0.00    +0.037 C 
ATOM     21  C   UNL     1      -8.163   2.113  31.511  0.00  0.00    +0.003 C 
ATOM     22  C   UNL     1      -7.081   2.319  30.683  0.00  0.00    +0.000 C 
ATOM     23  C   UNL     1      -6.047   1.406  30.603  0.00  0.00    +0.008 C 
BRANCH  19  24
ATOM     24  O   UNL     1      -7.183  -1.111  32.947  0.00  0.00    -0.505 OA
ATOM     25  H   UNL     1      -6.493  -1.744  32.908  0.00  0.00    +0.292 HD
ENDBRANCH  19  24
ENDBRANCH  15  18
ENDBRANCH   5  14
TORSDOF 4
