REMARK  Name = =
REMARK  5 active torsions:
REMARK  status: ('A' for Active; 'I' for Inactive)
REMARK    1  A    between atoms: N_1  and  C_8
REMARK    2  A    between atoms: C_2  and  C_16
REMARK    3  A    between atoms: C_4  and  C_12
REMARK    4  A    between atoms: C_17  and  O_30
REMARK    5  A    between atoms: C_20  and  C_22
REMARK                            x       y       z     vdW  Elec       q    Type
REMARK                         _______ _______ _______ _____ _____    ______ ____
ROOT
ATOM      1  N   UNL     1      -9.955  -0.869  28.915  0.00  0.00    -0.302 N 
ATOM      2  C   UNL     1     -11.344  -0.906  29.136  0.00  0.00    +0.249 C 
ATOM      3  O   UNL     1     -11.701  -0.371  30.249  0.00  0.00    -0.270 OA
ATOM      4  H   UNL     1      -9.605  -1.261  28.083  0.00  0.00    +0.150 HD
ENDROOT
BRANCH   1   9
ATOM      5  C   UNL     1      -8.040  -0.209  32.076  0.00  0.00    +0.134 C 
ATOM      6  O   UNL     1      -7.786   1.109  31.919  0.00  0.00    -0.355 OA
ATOM      7  C   UNL     1      -7.996   1.715  30.733  0.00  0.00    +0.144 C 
ATOM      8  C   UNL     1      -9.175   1.227  29.926  0.00  0.00    +0.052 C 
ATOM      9  C   UNL     1      -9.014  -0.285  29.847  0.00  0.00    +0.077 C 
ATOM     10  C   UNL     1      -9.154  -0.789  31.238  0.00  0.00    +0.051 C 
BRANCH   5  13
ATOM     11  N   UNL     1      -5.974  -3.214  31.158  0.00  0.00    -0.295 NA
ATOM     12  C   UNL     1      -7.179  -2.486  31.518  0.00  0.00    +0.089 C 
ATOM     13  C   UNL     1      -6.813  -1.095  32.055  0.00  0.00    +0.116 C 
ATOM     14  N   UNL     1      -6.188  -1.283  33.322  0.00  0.00    -0.214 NA
ATOM     15  C   UNL     1      -5.399  -2.475  33.384  0.00  0.00    +0.106 C 
ATOM     16  C   UNL     1      -4.864  -2.804  32.033  0.00  0.00    +0.088 C 
ATOM     17  H   UNL     1      -5.733  -3.011  30.188  0.00  0.00    +0.123 HD
ENDBRANCH   5  13
ENDBRANCH   1   9
BRANCH   2  18
ATOM     18  C   UNL     1     -12.351  -1.475  28.248  0.00  0.00    +0.087 C 
ATOM     19  C   UNL     1     -12.279  -2.687  27.624  0.00  0.00    +0.138 C 
ATOM     20  C   UNL     1     -13.274  -3.163  26.791  0.00  0.00    +0.037 C 
ATOM     21  C   UNL     1     -14.419  -2.391  26.555  0.00  0.00    +0.008 C 
ATOM     22  C   UNL     1     -14.533  -1.165  27.162  0.00  0.00    +0.054 C 
ATOM     23  C   UNL     1     -13.488  -0.734  28.000  0.00  0.00    +0.012 C 
BRANCH  22  24
ATOM     24  C   UNL     1     -15.682  -0.304  26.960  0.00  0.00    +0.249 C 
ATOM     25  O   UNL     1     -16.590  -0.442  27.894  0.00  0.00    -0.270 OA
ATOM     26  N   UNL     1     -15.985   0.604  25.996  0.00  0.00    -0.273 N 
ATOM     27  C   UNL     1     -15.233   1.007  24.851  0.00  0.00    +0.113 C 
ATOM     28  C   UNL     1     -16.014   2.138  24.112  0.00  0.00    +0.110 C 
ATOM     29  N   UNL     1     -17.322   1.717  23.744  0.00  0.00    -0.214 NA
ATOM     30  C   UNL     1     -18.018   1.034  24.812  0.00  0.00    +0.110 C 
ATOM     31  C   UNL     1     -17.295   1.310  26.108  0.00  0.00    +0.113 C 
ENDBRANCH  22  24
BRANCH  19  32
ATOM     32  O   UNL     1     -11.158  -3.485  27.831  0.00  0.00    -0.505 OA
ATOM     33  H   UNL     1     -10.468  -3.187  28.391  0.00  0.00    +0.292 HD
ENDBRANCH  19  32
ENDBRANCH   2  18
TORSDOF 5
