REMARK  Name = =
REMARK  5 active torsions:
REMARK  status: ('A' for Active; 'I' for Inactive)
REMARK    1  A    between atoms: C_1  and  O_9
REMARK    2  A    between atoms: C_2  and  O_8
REMARK    3  A    between atoms: C_5  and  O_7
REMARK    4  A    between atoms: O_9  and  N_10
REMARK    5  A    between atoms: N_10  and  S_11
REMARK                            x       y       z     vdW  Elec       q    Type
REMARK                         _______ _______ _______ _____ _____    ______ ____
ROOT
ATOM      1  C   UNL     1      53.905 152.597  26.313  0.00  0.00    +0.203 C 
ATOM      2  C   UNL     1      54.292 153.232  25.152  0.00  0.00    +0.170 C 
ATOM      3  C   UNL     1      54.339 152.540  23.954  0.00  0.00    +0.043 C 
ATOM      4  C   UNL     1      53.998 151.188  23.896  0.00  0.00    +0.040 C 
ATOM      5  C   UNL     1      53.611 150.554  25.061  0.00  0.00    +0.137 C 
ATOM      6  C   UNL     1      53.568 151.261  26.253  0.00  0.00    +0.079 C 
ENDROOT
BRANCH   5   7
ATOM      7  O   UNL     1      53.267 149.193  25.005  0.00  0.00    -0.505 OA
ATOM      8  H   UNL     1      53.303 148.734  24.189  0.00  0.00    +0.292 HD
ENDBRANCH   5   7
BRANCH   2   9
ATOM      9  O   UNL     1      54.641 154.597  25.185  0.00  0.00    -0.503 OA
ATOM     10  H   UNL     1      54.610 155.069  25.994  0.00  0.00    +0.292 HD
ENDBRANCH   2   9
BRANCH   1  11
ATOM     11  O   UNL     1      53.853 153.272  27.517  0.00  0.00    -0.382 OA
BRANCH  11  12
ATOM     12  N   UNL     1      53.100 154.377  27.769  0.00  0.00    -0.027 NA
ATOM     13  H   UNL     1      52.942 154.870  26.890  0.00  0.00    +0.195 HD
BRANCH  12  14
ATOM     14  S   UNL     1      51.568 154.004  28.473  0.00  0.00    +0.050 S 
ATOM     15  O   UNL     1      51.475 152.557  28.797  0.00  0.00    -0.158 OA
ATOM     16  O   UNL     1      51.447 154.819  29.742  0.00  0.00    -0.158 OA
ATOM     17  H   UNL     1      50.567 154.299  27.601  0.00  0.00    +0.233 HD
ENDBRANCH  12  14
ENDBRANCH  11  12
ENDBRANCH   1  11
TORSDOF 5
