REMARK  Name = =
REMARK  4 active torsions:
REMARK  status: ('A' for Active; 'I' for Inactive)
REMARK    1  A    between atoms: N_1  and  S_9
REMARK    2  A    between atoms: C_2  and  C_4
REMARK    3  A    between atoms: S_9  and  C_10
REMARK    4  A    between atoms: C_10  and  N_11
REMARK                            x       y       z     vdW  Elec       q    Type
REMARK                         _______ _______ _______ _____ _____    ______ ____
ROOT
ATOM      1  N   UNL     1     -10.143 -43.654  31.732  0.00  0.00    -0.234 NA
ATOM      2  C   UNL     1     -10.949 -42.505  31.458  0.00  0.00    +0.111 C 
ATOM      3  C   UNL     1     -10.330 -42.680  32.828  0.00  0.00    +0.102 C 
ENDROOT
BRANCH   2   4
ATOM      4  C   UNL     1     -12.425 -42.711  31.389  0.00  0.00    +0.132 C 
ATOM      5  O   UNL     1     -12.864 -43.279  30.212  0.00  0.00    -0.355 OA
ATOM      6  C   UNL     1     -13.964 -44.049  30.454  0.00  0.00    +0.142 C 
ATOM      7  C   UNL     1     -14.337 -43.923  31.916  0.00  0.00    +0.035 C 
ATOM      8  C   UNL     1     -12.950 -43.621  32.502  0.00  0.00    +0.034 C 
ENDBRANCH   2   4
BRANCH   1   9
ATOM      9  S   UNL     1      -8.484 -43.752  31.132  0.00  0.00    -0.129 S 
ATOM     10  H   UNL     1      -8.536 -43.512  29.794  0.00  0.00    +0.110 HD
BRANCH   9  11
ATOM     11  C   UNL     1      -7.613 -45.136  31.333  0.00  0.00    +0.126 C 
BRANCH  11  12
ATOM     12  N   UNL     1      -6.280 -45.203  30.846  0.00  0.00    -0.312 NA
ATOM     13  H   UNL     1      -5.889 -46.122  31.052  0.00  0.00    +0.120 HD
ATOM     14  H   UNL     1      -5.716 -44.484  31.299  0.00  0.00    +0.120 HD
ENDBRANCH  11  12
ENDBRANCH   9  11
ENDBRANCH   1   9
TORSDOF 4
