REMARK  Name = =
REMARK  10 active torsions:
REMARK  status: ('A' for Active; 'I' for Inactive)
REMARK    1  A    between atoms: C_1  and  C_8
REMARK    2  A    between atoms: C_1  and  C_16
REMARK    3  A    between atoms: C_2  and  C_13
REMARK    4  A    between atoms: C_9  and  O_12
REMARK    5  A    between atoms: C_13  and  O_15
REMARK    6  A    between atoms: C_16  and  C_18
REMARK    7  A    between atoms: C_18  and  N_19
REMARK    8  A    between atoms: N_19  and  N_20
REMARK    9  A    between atoms: N_23  and  N_24
REMARK   10  A    between atoms: C_25  and  O_27
REMARK                            x       y       z     vdW  Elec       q    Type
REMARK                         _______ _______ _______ _____ _____    ______ ____
ROOT
ATOM      1  C   UNL     1      48.919 158.707  30.148  0.00  0.00    +0.045 C 
ATOM      2  C   UNL     1      48.639 158.920  31.416  0.00  0.00    +0.085 C 
ENDROOT
BRANCH   1   8
ATOM      3  C   UNL     1      52.003 156.700  29.460  0.00  0.00    -0.026 C 
ATOM      4  C   UNL     1      51.175 157.783  29.730  0.00  0.00    -0.023 C 
ATOM      5  C   UNL     1      52.034 158.957  29.925  0.00  0.00    +0.026 C 
ATOM      6  C   UNL     1      53.317 158.613  29.199  0.00  0.00    +0.009 C 
ATOM      7  C   UNL     1      53.438 157.114  29.446  0.00  0.00    +0.026 C 
ATOM      8  C   UNL     1      49.809 157.648  29.774  0.00  0.00    +0.032 C 
ATOM      9  C   UNL     1      49.292 156.366  29.539  0.00  0.00    +0.133 C 
ATOM     10  C   UNL     1      50.098 155.285  29.269  0.00  0.00    +0.036 C 
ATOM     11  C   UNL     1      51.454 155.458  29.231  0.00  0.00    -0.001 C 
BRANCH   9  12
ATOM     12  O   UNL     1      47.916 156.213  29.602  0.00  0.00    -0.506 OA
ATOM     13  H   UNL     1      47.370 156.952  29.786  0.00  0.00    +0.292 HD
ENDBRANCH   9  12
ENDBRANCH   1   8
BRANCH   2  14
ATOM     14  C   UNL     1      49.081 158.219  32.588  0.00  0.00    +0.338 C 
ATOM     15  O   UNL     1      49.309 158.844  33.689  0.00  0.00    -0.245 OA
BRANCH  14  16
ATOM     16  O   UNL     1      49.290 156.855  32.667  0.00  0.00    -0.477 OA
ATOM     17  H   UNL     1      49.149 156.315  31.914  0.00  0.00    +0.295 HD
ENDBRANCH  14  16
ENDBRANCH   2  14
BRANCH   1  18
ATOM     18  C   UNL     1      48.307 159.608  29.135  0.00  0.00    +0.191 C 
ATOM     19  O   UNL     1      47.574 159.148  28.256  0.00  0.00    -0.290 OA
BRANCH  18  20
ATOM     20  C   UNL     1      48.604 161.029  29.227  0.00  0.00    +0.157 C 
BRANCH  20  21
ATOM     21  N   UNL     1      50.009 161.384  29.092  0.00  0.00    -0.221 NA
ATOM     22  H   UNL     1      50.093 162.242  28.546  0.00  0.00    +0.146 HD
BRANCH  21  23
ATOM     23  N   UNL     1      50.566 161.585  30.373  0.00  0.00    -0.233 N 
ATOM     24  C   UNL     1      49.829 161.545  31.576  0.00  0.00    +0.330 C 
ATOM     25  O   UNL     1      48.600 161.325  31.534  0.00  0.00    -0.250 OA
ATOM     26  N   UNL     1      50.491 161.755  32.824  0.00  0.00    -0.215 N 
ATOM     27  H   UNL     1      51.532 161.765  30.431  0.00  0.00    +0.171 HD
ATOM     28  H   UNL     1      51.460 161.927  32.817  0.00  0.00    +0.175 HD
BRANCH  26  29
ATOM     29  N   UNL     1      49.826 161.728  34.058  0.00  0.00    -0.198 N 
ATOM     30  C   UNL     1      48.521 162.276  34.172  0.00  0.00    +0.414 C 
ATOM     31  O   UNL     1      47.997 162.771  33.158  0.00  0.00    -0.225 OA
ATOM     32  H   UNL     1      50.263 161.329  34.845  0.00  0.00    +0.176 HD
BRANCH  30  33
ATOM     33  O   UNL     1      47.828 162.271  35.366  0.00  0.00    -0.465 OA
ATOM     34  H   UNL     1      48.218 161.899  36.133  0.00  0.00    +0.297 HD
ENDBRANCH  30  33
ENDBRANCH  26  29
ENDBRANCH  21  23
ENDBRANCH  20  21
ENDBRANCH  18  20
ENDBRANCH   1  18
TORSDOF 10
