REMARK  Name = =
REMARK  1 active torsions:
REMARK  status: ('A' for Active; 'I' for Inactive)
REMARK    1  A    between atoms: C_6  and  C_8
REMARK                            x       y       z     vdW  Elec       q    Type
REMARK                         _______ _______ _______ _____ _____    ______ ____
ROOT
ATOM      1  N   UNL     1      52.430 155.876  27.606  0.00  0.00    -0.276 N 
ATOM      2  C   UNL     1      51.729 154.648  27.289  0.00  0.00    +0.094 C 
ATOM      3  C   UNL     1      50.975 154.246  28.507  0.00  0.00    +0.023 C 
ATOM      4  C   UNL     1      51.573 155.066  29.626  0.00  0.00    +0.023 C 
ATOM      5  C   UNL     1      52.005 156.317  28.917  0.00  0.00    +0.094 C 
ATOM      6  C   UNL     1      53.366 156.521  26.764  0.00  0.00    +0.249 C 
ATOM      7  O   UNL     1      53.928 157.592  27.126  0.00  0.00    -0.270 OA
ENDROOT
BRANCH   6   8
ATOM      8  C   UNL     1      53.734 156.000  25.452  0.00  0.00    +0.058 C 
ATOM      9  C   UNL     1      54.597 156.584  24.662  0.00  0.00    +0.005 C 
ENDBRANCH   6   8
TORSDOF 1
