REMARK  Name = =
REMARK  0 active torsions:
REMARK  status: ('A' for Active; 'I' for Inactive)
REMARK                            x       y       z     vdW  Elec       q    Type
REMARK                         _______ _______ _______ _____ _____    ______ ____
ROOT
ATOM      1  C   UNL     1      51.242 156.648  29.457  0.00  0.00    +0.003 C 
ATOM      2  C   UNL     1      52.011 156.240  28.386  0.00  0.00    +0.018 C 
ATOM      3  C   UNL     1      52.874 157.157  27.812  0.00  0.00    +0.081 C 
ATOM      4  N   UNL     1      52.932 158.404  28.315  0.00  0.00    -0.244 NA
ATOM      5  C   UNL     1      52.197 158.832  29.357  0.00  0.00    +0.099 C 
ATOM      6  C   UNL     1      51.331 157.931  29.943  0.00  0.00    +0.021 C 
ATOM      7  C   UNL     1      53.632 156.730  26.744  0.00  0.00    +0.019 C 
ATOM      8  C   UNL     1      53.545 155.431  26.251  0.00  0.00    +0.001 C 
ATOM      9  C   UNL     1      52.686 154.528  26.826  0.00  0.00    +0.000 C 
ATOM     10  C   UNL     1      51.920 154.951  27.901  0.00  0.00    +0.001 C 
ATOM     11  C   UNL     1      52.604 153.238  26.332  0.00  0.00    +0.000 C 
ATOM     12  C   UNL     1      53.359 152.804  25.263  0.00  0.00    +0.000 C 
ATOM     13  C   UNL     1      54.219 153.717  24.691  0.00  0.00    +0.000 C 
ATOM     14  C   UNL     1      54.311 155.016  25.178  0.00  0.00    +0.000 C 
ENDROOT
TORSDOF 0
