REMARK  Name = =
REMARK  0 active torsions:
REMARK  status: ('A' for Active; 'I' for Inactive)
REMARK                            x       y       z     vdW  Elec       q    Type
REMARK                         _______ _______ _______ _____ _____    ______ ____
ROOT
ATOM      1  C   UNL     1      50.231 155.395  30.139  0.00  0.00    +0.031 C 
ATOM      2  C   UNL     1      51.238 156.202  29.390  0.00  0.00    -0.019 C 
ATOM      3  C   UNL     1      51.905 155.616  28.339  0.00  0.00    +0.014 C 
ATOM      4  C   UNL     1      52.832 156.372  27.656  0.00  0.00    +0.081 C 
ATOM      5  N   UNL     1      53.082 157.655  28.008  0.00  0.00    -0.244 NA
ATOM      6  C   UNL     1      52.435 158.235  29.035  0.00  0.00    +0.099 C 
ATOM      7  C   UNL     1      51.507 157.508  29.732  0.00  0.00    +0.016 C 
ATOM      8  C   UNL     1      53.502 155.785  26.603  0.00  0.00    +0.019 C 
ATOM      9  C   UNL     1      53.272 154.484  26.218  0.00  0.00    +0.001 C 
ATOM     10  C   UNL     1      52.332 153.775  26.937  0.00  0.00    +0.000 C 
ATOM     11  C   UNL     1      51.632 154.304  28.000  0.00  0.00    +0.001 C 
ATOM     12  C   UNL     1      52.097 152.466  26.556  0.00  0.00    +0.000 C 
ATOM     13  C   UNL     1      52.781 151.895  25.493  0.00  0.00    +0.000 C 
ATOM     14  C   UNL     1      53.720 152.619  24.781  0.00  0.00    +0.000 C 
ATOM     15  C   UNL     1      53.962 153.918  25.149  0.00  0.00    +0.000 C 
ENDROOT
TORSDOF 0
