REMARK  Name = =
REMARK  3 active torsions:
REMARK  status: ('A' for Active; 'I' for Inactive)
REMARK    1  A    between atoms: C_6  and  C_8
REMARK    2  A    between atoms: C_8  and  C_10
REMARK    3  A    between atoms: C_11  and  C_12
REMARK                            x       y       z     vdW  Elec       q    Type
REMARK                         _______ _______ _______ _____ _____    ______ ____
ROOT
ATOM      1  N   UNL     1      52.742 154.758  27.028  0.00  0.00    -0.276 N 
ATOM      2  C   UNL     1      51.657 155.510  27.741  0.00  0.00    +0.094 C 
ATOM      3  C   UNL     1      52.049 155.234  29.176  0.00  0.00    +0.023 C 
ATOM      4  C   UNL     1      52.161 153.709  29.099  0.00  0.00    +0.023 C 
ATOM      5  C   UNL     1      52.992 153.605  27.797  0.00  0.00    +0.094 C 
ATOM      6  C   UNL     1      53.323 155.223  25.830  0.00  0.00    +0.249 C 
ATOM      7  O   UNL     1      52.846 156.367  25.420  0.00  0.00    -0.270 OA
ENDROOT
BRANCH   6   8
ATOM      8  C   UNL     1      54.331 154.656  25.007  0.00  0.00    +0.054 C 
ATOM      9  C   UNL     1      55.124 155.405  24.230  0.00  0.00    +0.005 C 
BRANCH   8  10
ATOM     10  C   UNL     1      54.583 153.223  24.942  0.00  0.00    +0.015 C 
ATOM     11  C   UNL     1      53.872 152.287  24.398  0.00  0.00    +0.078 C 
BRANCH  11  12
ATOM     12  C   UNL     1      54.352 150.916  24.472  0.00  0.00    +0.101 C 
ATOM     13  N   UNL     1      54.714 149.819  24.530  0.00  0.00    -0.191 NA
ENDBRANCH  11  12
ENDBRANCH   8  10
ENDBRANCH   6   8
TORSDOF 3
