REMARK  Name = =
REMARK  5 active torsions:
REMARK  status: ('A' for Active; 'I' for Inactive)
REMARK    1  A    between atoms: C_1  and  C_8
REMARK    2  A    between atoms: C_1  and  C_10
REMARK    3  A    between atoms: C_10  and  C_14
REMARK    4  A    between atoms: C_11  and  C_12
REMARK    5  A    between atoms: C_15  and  C_16
REMARK                            x       y       z     vdW  Elec       q    Type
REMARK                         _______ _______ _______ _____ _____    ______ ____
ROOT
ATOM      1  C   UNL     1      53.285 155.040  26.276  0.00  0.00    +0.054 C 
ATOM      2  C   UNL     1      53.621 156.227  25.807  0.00  0.00    +0.005 C 
ENDROOT
BRANCH   1   8
ATOM      3  N   UNL     1      52.395 156.006  28.515  0.00  0.00    -0.276 N 
ATOM      4  C   UNL     1      52.682 157.339  28.722  0.00  0.00    +0.094 C 
ATOM      5  C   UNL     1      51.318 157.887  29.278  0.00  0.00    +0.023 C 
ATOM      6  C   UNL     1      50.765 156.676  29.975  0.00  0.00    +0.023 C 
ATOM      7  C   UNL     1      51.813 155.608  29.845  0.00  0.00    +0.094 C 
ATOM      8  C   UNL     1      52.542 155.016  27.550  0.00  0.00    +0.249 C 
ATOM      9  O   UNL     1      51.938 153.881  27.790  0.00  0.00    -0.270 OA
ENDBRANCH   1   8
BRANCH   1  10
ATOM     10  C   UNL     1      53.650 153.849  25.562  0.00  0.00    +0.015 C 
ATOM     11  C   UNL     1      53.398 152.643  26.116  0.00  0.00    +0.078 C 
BRANCH  11  12
ATOM     12  C   UNL     1      53.785 151.439  25.360  0.00  0.00    +0.101 C 
ATOM     13  N   UNL     1      54.075 150.481  24.770  0.00  0.00    -0.191 NA
ENDBRANCH  11  12
BRANCH  10  14
ATOM     14  C   UNL     1      54.281 153.785  24.279  0.00  0.00    +0.004 C 
ATOM     15  C   UNL     1      54.824 154.554  23.411  0.00  0.00    +0.045 C 
BRANCH  15  16
ATOM     16  C   UNL     1      55.355 153.900  22.160  0.00  0.00    +0.234 C 
ATOM     17  O   UNL     1      55.990 154.601  21.357  0.00  0.00    -0.283 OA
ENDBRANCH  15  16
ENDBRANCH  10  14
ENDBRANCH   1  10
TORSDOF 5
