REMARK  Name = =
REMARK  6 active torsions:
REMARK  status: ('A' for Active; 'I' for Inactive)
REMARK    1  A    between atoms: N_1  and  N_11
REMARK    2  A    between atoms: N_1  and  O_18
REMARK    3  A    between atoms: C_2  and  C_4
REMARK    4  A    between atoms: C_7  and  O_10
REMARK    5  A    between atoms: N_11  and  C_12
REMARK    6  A    between atoms: O_18  and  C_19
REMARK                            x       y       z     vdW  Elec       q    Type
REMARK                         _______ _______ _______ _____ _____    ______ ____
ROOT
ATOM      1  N   UNL     1      52.681 158.010  28.849  0.00  0.00    -0.042 N 
ATOM      2  C   UNL     1      51.477 157.319  28.976  0.00  0.00    +0.299 C 
ATOM      3  O   UNL     1      51.451 156.080  28.575  0.00  0.00    -0.265 OA
ENDROOT
BRANCH   2   4
ATOM      4  C   UNL     1      50.212 157.781  29.504  0.00  0.00    +0.058 C 
ATOM      5  C   UNL     1      49.011 157.403  28.904  0.00  0.00    +0.008 C 
ATOM      6  C   UNL     1      47.785 157.822  29.345  0.00  0.00    +0.037 C 
ATOM      7  C   UNL     1      47.677 158.652  30.416  0.00  0.00    +0.134 C 
ATOM      8  C   UNL     1      48.833 159.060  31.050  0.00  0.00    +0.037 C 
ATOM      9  C   UNL     1      50.076 158.624  30.591  0.00  0.00    +0.008 C 
BRANCH   7  10
ATOM     10  O   UNL     1      46.467 159.125  30.926  0.00  0.00    -0.506 OA
ATOM     11  H   UNL     1      45.659 158.872  30.525  0.00  0.00    +0.292 HD
ENDBRANCH   7  10
ENDBRANCH   2   4
BRANCH   1  12
ATOM     12  N   UNL     1      53.744 157.277  28.191  0.00  0.00    -0.228 N 
ATOM     13  H   UNL     1      54.688 157.474  28.390  0.00  0.00    +0.173 HD
BRANCH  12  14
ATOM     14  C   UNL     1      53.399 156.274  27.258  0.00  0.00    +0.064 C 
ATOM     15  C   UNL     1      53.657 154.950  27.533  0.00  0.00    +0.016 C 
ATOM     16  C   UNL     1      53.331 153.934  26.671  0.00  0.00    +0.001 C 
ATOM     17  C   UNL     1      52.720 154.238  25.473  0.00  0.00    +0.000 C 
ATOM     18  C   UNL     1      52.446 155.550  25.164  0.00  0.00    +0.001 C 
ATOM     19  C   UNL     1      52.789 156.563  26.060  0.00  0.00    +0.016 C 
ENDBRANCH  12  14
ENDBRANCH   1  12
BRANCH   1  20
ATOM     20  O   UNL     1      53.040 159.249  29.190  0.00  0.00    -0.363 OA
BRANCH  20  21
ATOM     21  C   UNL     1      52.863 159.991  30.318  0.00  0.00    +0.172 C 
ATOM     22  C   UNL     1      53.697 161.118  30.449  0.00  0.00    +0.037 C 
ATOM     23  C   UNL     1      53.551 161.899  31.561  0.00  0.00    +0.003 C 
ATOM     24  C   UNL     1      52.625 161.610  32.538  0.00  0.00    +0.000 C 
ATOM     25  C   UNL     1      51.826 160.504  32.386  0.00  0.00    +0.003 C 
ATOM     26  C   UNL     1      51.937 159.685  31.281  0.00  0.00    +0.040 C 
ATOM     27  C   UNL     1      54.395 163.009  31.666  0.00  0.00    +0.000 C 
ATOM     28  C   UNL     1      55.334 163.318  30.708  0.00  0.00    +0.000 C 
ATOM     29  C   UNL     1      55.452 162.503  29.593  0.00  0.00    +0.000 C 
ATOM     30  C   UNL     1      54.627 161.397  29.468  0.00  0.00    +0.003 C 
ENDBRANCH  20  21
ENDBRANCH   1  20
TORSDOF 6
