REMARK  Name = =
REMARK  2 active torsions:
REMARK  status: ('A' for Active; 'I' for Inactive)
REMARK    1  A    between atoms: C_1  and  C_15
REMARK    2  A    between atoms: C_15  and  C_16
REMARK                            x       y       z     vdW  Elec       q    Type
REMARK                         _______ _______ _______ _____ _____    ______ ____
ROOT
ATOM      1  C   UNL     1      51.306 156.737  29.156  0.00  0.00    -0.015 C 
ATOM      2  C   UNL     1      51.723 155.618  28.420  0.00  0.00    +0.014 C 
ATOM      3  C   UNL     1      52.658 155.838  27.431  0.00  0.00    +0.081 C 
ATOM      4  N   UNL     1      53.158 157.064  27.169  0.00  0.00    -0.244 NA
ATOM      5  C   UNL     1      52.744 158.122  27.885  0.00  0.00    +0.099 C 
ATOM      6  C   UNL     1      51.809 157.994  28.898  0.00  0.00    +0.017 C 
ATOM      7  C   UNL     1      53.075 154.724  26.698  0.00  0.00    +0.019 C 
ATOM      8  C   UNL     1      52.593 153.453  26.931  0.00  0.00    +0.001 C 
ATOM      9  C   UNL     1      51.658 153.259  27.926  0.00  0.00    +0.000 C 
ATOM     10  C   UNL     1      51.229 154.353  28.667  0.00  0.00    +0.001 C 
ATOM     11  C   UNL     1      51.180 151.986  28.155  0.00  0.00    +0.000 C 
ATOM     12  C   UNL     1      51.616 150.901  27.408  0.00  0.00    +0.000 C 
ATOM     13  C   UNL     1      52.546 151.083  26.414  0.00  0.00    +0.000 C 
ATOM     14  C   UNL     1      53.017 152.362  26.197  0.00  0.00    +0.000 C 
ENDROOT
BRANCH   1  15
ATOM     15  C   UNL     1      50.303 156.447  30.209  0.00  0.00    +0.054 C 
BRANCH  15  16
ATOM     16  C   UNL     1      49.246 157.488  30.178  0.00  0.00    +0.006 C 
ATOM     17  C   UNL     1      49.076 158.466  31.067  0.00  0.00    +0.052 C 
ATOM     18  C   UNL     1      47.924 159.245  30.641  0.00  0.00    +0.161 C 
ATOM     19  N   UNL     1      47.549 160.247  31.327  0.00  0.00    -0.226 NA
ATOM     20  C   UNL     1      48.182 160.699  32.533  0.00  0.00    +0.252 C 
ATOM     21  N   UNL     1      49.311 159.899  32.911  0.00  0.00    -0.243 NA
ATOM     22  C   UNL     1      49.756 158.876  32.279  0.00  0.00    +0.098 C 
ATOM     23  N   UNL     1      47.473 158.608  29.436  0.00  0.00    -0.226 NA
ATOM     24  C   UNL     1      48.214 157.603  29.155  0.00  0.00    +0.097 C 
ENDBRANCH  15  16
ENDBRANCH   1  15
TORSDOF 2
