REMARK  Name = =
REMARK  6 active torsions:
REMARK  status: ('A' for Active; 'I' for Inactive)
REMARK    1  A    between atoms: C_1  and  C_15
REMARK    2  A    between atoms: C_14  and  O_25
REMARK    3  A    between atoms: C_15  and  C_16
REMARK    4  A    between atoms: O_25  and  P_26
REMARK    5  A    between atoms: P_26  and  O_28
REMARK    6  A    between atoms: P_26  and  O_29
REMARK                            x       y       z     vdW  Elec       q    Type
REMARK                         _______ _______ _______ _____ _____    ______ ____
ROOT
ATOM      1  C   UNL     1      51.608 156.132  28.683  0.00  0.00    -0.015 C 
ATOM      2  C   UNL     1      51.432 157.345  29.319  0.00  0.00    +0.014 C 
ATOM      3  C   UNL     1      50.193 157.612  29.909  0.00  0.00    +0.081 C 
ATOM      4  N   UNL     1      49.195 156.713  29.860  0.00  0.00    -0.244 NA
ATOM      5  C   UNL     1      49.382 155.516  29.230  0.00  0.00    +0.099 C 
ATOM      6  C   UNL     1      50.578 155.221  28.642  0.00  0.00    +0.017 C 
ATOM      7  C   UNL     1      50.036 158.843  30.558  0.00  0.00    +0.022 C 
ATOM      8  C   UNL     1      51.040 159.781  30.634  0.00  0.00    +0.036 C 
ATOM      9  C   UNL     1      52.246 159.478  30.041  0.00  0.00    +0.003 C 
ATOM     10  C   UNL     1      52.444 158.268  29.387  0.00  0.00    +0.001 C 
ATOM     11  C   UNL     1      53.294 160.408  30.099  0.00  0.00    +0.000 C 
ATOM     12  C   UNL     1      53.125 161.612  30.740  0.00  0.00    +0.003 C 
ATOM     13  C   UNL     1      51.936 161.902  31.321  0.00  0.00    +0.037 C 
ATOM     14  C   UNL     1      50.834 160.989  31.291  0.00  0.00    +0.149 C 
ENDROOT
BRANCH   1  15
ATOM     15  C   UNL     1      52.863 155.821  28.016  0.00  0.00    +0.054 C 
BRANCH  15  16
ATOM     16  C   UNL     1      52.856 154.439  27.469  0.00  0.00    +0.006 C 
ATOM     17  C   UNL     1      53.257 154.044  26.283  0.00  0.00    +0.052 C 
ATOM     18  C   UNL     1      53.068 152.594  26.174  0.00  0.00    +0.161 C 
ATOM     19  N   UNL     1      53.387 151.934  25.104  0.00  0.00    -0.226 NA
ATOM     20  C   UNL     1      53.952 152.572  23.942  0.00  0.00    +0.252 C 
ATOM     21  N   UNL     1      54.130 153.986  24.070  0.00  0.00    -0.243 NA
ATOM     22  C   UNL     1      53.832 154.689  25.104  0.00  0.00    +0.098 C 
ATOM     23  N   UNL     1      52.509 152.200  27.436  0.00  0.00    -0.226 NA
ATOM     24  C   UNL     1      52.388 153.246  28.174  0.00  0.00    +0.097 C 
ENDBRANCH  15  16
ENDBRANCH   1  15
BRANCH  14  25
ATOM     25  O   UNL     1      49.712 161.323  31.868  0.00  0.00    -0.403 OA
BRANCH  25  26
ATOM     26  P   UNL     1      48.515 161.113  32.910  0.00  0.00    +0.528 P 
ATOM     27  O   UNL     1      48.856 160.296  34.171  0.00  0.00    -0.216 OA
BRANCH  26  28
ATOM     28  O   UNL     1      47.195 160.219  32.218  0.00  0.00    -0.293 OA
ATOM     29  H   UNL     1      46.899 160.657  31.404  0.00  0.00    +0.223 HD
ENDBRANCH  26  28
BRANCH  26  30
ATOM     30  O   UNL     1      47.842 162.618  33.402  0.00  0.00    -0.293 OA
ATOM     31  H   UNL     1      48.535 163.168  33.800  0.00  0.00    +0.223 HD
ENDBRANCH  26  30
ENDBRANCH  25  26
ENDBRANCH  14  25
TORSDOF 6
