REMARK  Name = =
REMARK  9 active torsions:
REMARK  status: ('A' for Active; 'I' for Inactive)
REMARK    1  A    between atoms: C_1  and  C_3
REMARK    2  A    between atoms: C_1  and  C_14
REMARK    3  A    between atoms: C_2  and  C_12
REMARK    4  A    between atoms: C_3  and  C_10
REMARK    5  A    between atoms: C_15  and  C_16
REMARK    6  A    between atoms: C_15  and  S_18
REMARK    7  A    between atoms: S_18  and  P_19
REMARK    8  A    between atoms: P_19  and  O_21
REMARK    9  A    between atoms: P_19  and  O_22
REMARK                            x       y       z     vdW  Elec       q    Type
REMARK                         _______ _______ _______ _____ _____    ______ ____
ROOT
ATOM      1  C   UNL     1      52.477 153.976  27.137  0.00  0.00    +0.015 C 
ATOM      2  C   UNL     1      52.234 152.871  27.804  0.00  0.00    +0.078 C 
ENDROOT
BRANCH   1   3
ATOM      3  C   UNL     1      52.217 155.326  27.621  0.00  0.00    +0.054 C 
ATOM      4  C   UNL     1      53.159 156.229  27.426  0.00  0.00    +0.005 C 
BRANCH   3  10
ATOM      5  N   UNL     1      50.970 156.884  29.282  0.00  0.00    -0.276 N 
ATOM      6  C   UNL     1      51.765 157.999  29.567  0.00  0.00    +0.094 C 
ATOM      7  C   UNL     1      50.959 158.858  30.555  0.00  0.00    +0.023 C 
ATOM      8  C   UNL     1      49.553 158.579  30.086  0.00  0.00    +0.023 C 
ATOM      9  C   UNL     1      49.662 157.046  30.011  0.00  0.00    +0.094 C 
ATOM     10  C   UNL     1      51.131 155.730  28.486  0.00  0.00    +0.249 C 
ATOM     11  O   UNL     1      50.122 154.930  28.569  0.00  0.00    -0.270 OA
ENDBRANCH   3  10
ENDBRANCH   1   3
BRANCH   2  12
ATOM     12  C   UNL     1      51.727 152.498  29.007  0.00  0.00    +0.101 C 
ATOM     13  N   UNL     1      51.275 152.158  30.045  0.00  0.00    -0.191 NA
ENDBRANCH   2  12
BRANCH   1  14
ATOM     14  C   UNL     1      53.141 153.705  25.850  0.00  0.00    +0.011 C 
ATOM     15  C   UNL     1      53.819 154.082  24.899  0.00  0.00    +0.078 C 
BRANCH  15  16
ATOM     16  C   UNL     1      54.661 155.219  24.619  0.00  0.00    +0.241 C 
ATOM     17  O   UNL     1      55.426 155.261  23.588  0.00  0.00    -0.283 OA
ENDBRANCH  15  16
BRANCH  15  18
ATOM     18  S   UNL     1      54.106 152.743  23.576  0.00  0.00    -0.001 S 
BRANCH  18  19
ATOM     19  P   UNL     1      54.207 150.874  24.523  0.00  0.00    +0.391 P 
ATOM     20  O   UNL     1      53.165 150.766  25.612  0.00  0.00    -0.246 OA
BRANCH  19  21
ATOM     21  O   UNL     1      53.889 149.654  23.376  0.00  0.00    -0.316 OA
ATOM     22  H   UNL     1      54.546 149.701  22.664  0.00  0.00    +0.221 HD
ENDBRANCH  19  21
BRANCH  19  23
ATOM     23  O   UNL     1      55.734 150.610  25.224  0.00  0.00    -0.316 OA
ATOM     24  H   UNL     1      55.915 151.304  25.877  0.00  0.00    +0.221 HD
ENDBRANCH  19  23
ENDBRANCH  18  19
ENDBRANCH  15  18
ENDBRANCH   1  14
TORSDOF 9
