REMARK  Name = =
REMARK  9 active torsions:
REMARK  status: ('A' for Active; 'I' for Inactive)
REMARK    1  A    between atoms: N_1  and  N_11
REMARK    2  A    between atoms: N_1  and  O_21
REMARK    3  A    between atoms: C_2  and  C_4
REMARK    4  A    between atoms: C_7  and  O_10
REMARK    5  A    between atoms: N_11  and  C_12
REMARK    6  A    between atoms: C_13  and  S_18
REMARK    7  A    between atoms: S_18  and  S_19
REMARK    8  A    between atoms: S_19  and  S_20
REMARK    9  A    between atoms: O_21  and  C_22
REMARK                            x       y       z     vdW  Elec       q    Type
REMARK                         _______ _______ _______ _____ _____    ______ ____
ROOT
ATOM      1  N   UNL     1      51.636 159.314  29.413  0.00  0.00    -0.042 N 
ATOM      2  C   UNL     1      52.911 159.134  29.954  0.00  0.00    +0.299 C 
ATOM      3  O   UNL     1      53.285 157.910  30.120  0.00  0.00    -0.265 OA
ENDROOT
BRANCH   2   4
ATOM      4  C   UNL     1      53.860 160.154  30.357  0.00  0.00    +0.058 C 
ATOM      5  C   UNL     1      55.040 160.323  29.624  0.00  0.00    +0.008 C 
ATOM      6  C   UNL     1      55.911 161.325  29.899  0.00  0.00    +0.037 C 
ATOM      7  C   UNL     1      55.664 162.239  30.927  0.00  0.00    +0.134 C 
ATOM      8  C   UNL     1      54.524 162.095  31.651  0.00  0.00    +0.037 C 
ATOM      9  C   UNL     1      53.625 161.053  31.367  0.00  0.00    +0.008 C 
BRANCH   7  10
ATOM     10  O   UNL     1      56.625 163.203  31.110  0.00  0.00    -0.506 OA
ATOM     11  H   UNL     1      57.381 163.221  30.557  0.00  0.00    +0.292 HD
ENDBRANCH   7  10
ENDBRANCH   2   4
BRANCH   1  12
ATOM     12  N   UNL     1      50.977 160.537  29.481  0.00  0.00    -0.227 N 
ATOM     13  H   UNL     1      50.985 161.173  28.729  0.00  0.00    +0.173 HD
BRANCH  12  14
ATOM     14  C   UNL     1      50.273 160.828  30.726  0.00  0.00    +0.071 C 
ATOM     15  C   UNL     1      48.949 160.582  30.862  0.00  0.00    +0.051 C 
ATOM     16  C   UNL     1      48.338 160.837  32.082  0.00  0.00    +0.008 C 
ATOM     17  C   UNL     1      49.076 161.348  33.172  0.00  0.00    +0.001 C 
ATOM     18  C   UNL     1      50.412 161.597  33.037  0.00  0.00    +0.001 C 
ATOM     19  C   UNL     1      50.982 161.323  31.788  0.00  0.00    +0.016 C 
BRANCH  15  20
ATOM     20  S   UNL     1      47.946 160.023  29.506  0.00  0.00    -0.043 S 
BRANCH  20  21
ATOM     21  S   UNL     1      47.168 158.072  29.885  0.00  0.00    -0.022 S 
BRANCH  21  22
ATOM     22  S   UNL     1      48.459 156.543  29.183  0.00  0.00    -0.099 S 
ATOM     23  H   UNL     1      47.911 155.328  29.452  0.00  0.00    +0.115 HD
ENDBRANCH  21  22
ENDBRANCH  20  21
ENDBRANCH  15  20
ENDBRANCH  12  14
ENDBRANCH   1  12
BRANCH   1  24
ATOM     24  O   UNL     1      50.856 158.273  28.930  0.00  0.00    -0.363 OA
BRANCH  24  25
ATOM     25  C   UNL     1      51.352 156.976  28.979  0.00  0.00    +0.172 C 
ATOM     26  C   UNL     1      52.114 156.516  27.923  0.00  0.00    +0.037 C 
ATOM     27  C   UNL     1      52.614 155.260  27.937  0.00  0.00    +0.003 C 
ATOM     28  C   UNL     1      52.360 154.425  29.027  0.00  0.00    +0.000 C 
ATOM     29  C   UNL     1      51.591 154.899  30.083  0.00  0.00    +0.003 C 
ATOM     30  C   UNL     1      51.088 156.174  30.058  0.00  0.00    +0.040 C 
ATOM     31  C   UNL     1      53.389 154.778  26.893  0.00  0.00    +0.000 C 
ATOM     32  C   UNL     1      53.664 155.584  25.804  0.00  0.00    +0.000 C 
ATOM     33  C   UNL     1      53.157 156.862  25.782  0.00  0.00    +0.000 C 
ATOM     34  C   UNL     1      52.379 157.350  26.828  0.00  0.00    +0.003 C 
ENDBRANCH  24  25
ENDBRANCH   1  24
TORSDOF 9
