REMARK  Name = =
REMARK  14 active torsions:
REMARK  status: ('A' for Active; 'I' for Inactive)
REMARK    1  A    between atoms: C_1  and  C_8
REMARK    2  A    between atoms: C_1  and  C_16
REMARK    3  A    between atoms: C_4  and  C_10
REMARK    4  A    between atoms: N_11  and  N_12
REMARK    5  A    between atoms: N_12  and  C_13
REMARK    6  A    between atoms: C_13  and  N_15
REMARK    7  A    between atoms: C_16  and  C_17
REMARK    8  A    between atoms: C_17  and  C_18
REMARK    9  A    between atoms: C_20  and  C_21
REMARK   10  A    between atoms: C_21  and  C_22
REMARK   11  A    between atoms: C_21  and  S_24
REMARK   12  A    between atoms: S_24  and  P_25
REMARK   13  A    between atoms: P_25  and  O_27
REMARK   14  A    between atoms: P_25  and  O_28
REMARK                            x       y       z     vdW  Elec       q    Type
REMARK                         _______ _______ _______ _____ _____    ______ ____
ROOT
ATOM      1  C   UNL     1      52.744 155.899  28.041  0.00  0.00    +0.050 C 
ATOM      2  C   UNL     1      53.454 156.799  27.473  0.00  0.00    +0.004 C 
ENDROOT
BRANCH   1   8
ATOM      3  N   UNL     1      51.733 157.648  29.704  0.00  0.00    -0.272 N 
ATOM      4  C   UNL     1      50.558 158.177  30.434  0.00  0.00    +0.119 C 
ATOM      5  C   UNL     1      50.601 159.642  29.960  0.00  0.00    +0.028 C 
ATOM      6  C   UNL     1      52.071 159.893  29.571  0.00  0.00    +0.024 C 
ATOM      7  C   UNL     1      52.712 158.626  30.039  0.00  0.00    +0.094 C 
ATOM      8  C   UNL     1      51.759 156.430  29.028  0.00  0.00    +0.249 C 
ATOM      9  O   UNL     1      50.777 155.645  29.316  0.00  0.00    -0.270 OA
BRANCH   4  10
ATOM     10  C   UNL     1      49.293 157.546  30.080  0.00  0.00    +0.111 C 
ATOM     11  N   UNL     1      48.274 158.329  29.912  0.00  0.00    -0.181 NA
BRANCH  11  12
ATOM     12  N   UNL     1      48.334 159.727  30.055  0.00  0.00    -0.218 N 
ATOM     13  H   UNL     1      48.621 160.264  29.281  0.00  0.00    +0.176 HD
BRANCH  12  14
ATOM     14  C   UNL     1      48.003 160.400  31.254  0.00  0.00    +0.147 C 
ATOM     15  S   UNL     1      47.442 159.571  32.532  0.00  0.00    -0.017 S 
BRANCH  14  16
ATOM     16  N   UNL     1      48.158 161.798  31.343  0.00  0.00    -0.339 N 
ATOM     17  H   UNL     1      48.498 162.306  30.571  0.00  0.00    +0.144 HD
ATOM     18  H   UNL     1      47.926 162.267  32.177  0.00  0.00    +0.144 HD
ENDBRANCH  14  16
ENDBRANCH  12  14
ENDBRANCH  11  12
ENDBRANCH   4  10
ENDBRANCH   1   8
BRANCH   1  19
ATOM     19  C   UNL     1      52.615 154.494  27.557  0.00  0.00    -0.006 C 
ATOM     20  C   UNL     1      53.075 153.858  26.395  0.00  0.00    -0.010 C 
BRANCH  19  21
ATOM     21  C   UNL     1      51.966 153.700  28.448  0.00  0.00    +0.132 C 
BRANCH  21  22
ATOM     22  C   UNL     1      51.656 152.379  28.331  0.00  0.00    +0.078 C 
ATOM     23  N   UNL     1      51.396 151.239  28.213  0.00  0.00    -0.196 NA
ENDBRANCH  21  22
ENDBRANCH  19  21
BRANCH  20  24
ATOM     24  C   UNL     1      53.640 154.203  25.281  0.00  0.00    +0.145 C 
BRANCH  24  25
ATOM     25  C   UNL     1      53.733 155.539  24.689  0.00  0.00    +0.223 C 
ATOM     26  O   UNL     1      54.413 155.773  23.637  0.00  0.00    -0.287 OA
ENDBRANCH  24  25
BRANCH  24  27
ATOM     27  S   UNL     1      54.091 152.883  24.065  0.00  0.00    -0.020 S 
BRANCH  27  28
ATOM     28  P   UNL     1      54.496 151.102  25.129  0.00  0.00    +0.387 P 
ATOM     29  O   UNL     1      55.365 151.381  26.346  0.00  0.00    -0.246 OA
BRANCH  28  30
ATOM     30  O   UNL     1      55.286 149.993  24.087  0.00  0.00    -0.316 OA
ATOM     31  H   UNL     1      54.726 149.820  23.314  0.00  0.00    +0.221 HD
ENDBRANCH  28  30
BRANCH  28  32
ATOM     32  O   UNL     1      53.045 150.456  25.655  0.00  0.00    -0.316 OA
ATOM     33  H   UNL     1      52.604 151.088  26.244  0.00  0.00    +0.221 HD
ENDBRANCH  28  32
ENDBRANCH  27  28
ENDBRANCH  24  27
ENDBRANCH  20  24
ENDBRANCH   1  19
TORSDOF 14
