MODEL 1
REMARK VINA RESULT:    -9.735      0.000      0.000
REMARK INTER + INTRA:         -15.241
REMARK INTER:                 -14.288
REMARK INTRA:                  -0.953
REMARK UNBOUND:                -0.953
REMARK  Name = =
REMARK  8 active torsions:
REMARK  status: ('A' for Active; 'I' for Inactive)
REMARK    1  A    between atoms: C_1  and  S_7
REMARK    2  A    between atoms: C_6  and  N_14
REMARK    3  A    between atoms: S_7  and  N_10
REMARK    4  A    between atoms: N_14  and  C_15
REMARK    5  A    between atoms: C_15  and  N_17
REMARK    6  A    between atoms: N_17  and  N_18
REMARK    7  A    between atoms: N_18  and  C_19
REMARK    8  A    between atoms: C_19  and  C_21
REMARK                            x       y       z     vdW  Elec       q    Type
REMARK                         _______ _______ _______ _____ _____    ______ ____
ROOT
ATOM      1  C   UNL     1      53.668 154.440  25.760  0.00  0.00    +0.139 C 
ATOM      2  C   UNL     1      54.566 154.432  24.687  0.00  0.00    +0.021 C 
ATOM      3  C   UNL     1      55.015 155.601  24.137  0.00  0.00    +0.001 C 
ATOM      4  C   UNL     1      54.567 156.787  24.660  0.00  0.00    +0.001 C 
ATOM      5  C   UNL     1      53.675 156.770  25.727  0.00  0.00    +0.016 C 
ATOM      6  C   UNL     1      53.188 155.615  26.320  0.00  0.00    +0.069 C 
ENDROOT
BRANCH   1   7
ATOM      7  S   UNL     1      53.152 152.899  26.361  0.00  0.00    +0.078 S 
ATOM      8  O   UNL     1      53.633 152.693  27.800  0.00  0.00    -0.150 OA
ATOM      9  O   UNL     1      51.679 152.670  26.307  0.00  0.00    -0.150 OA
BRANCH   7  10
ATOM     10  N   UNL     1      53.920 151.667  25.427  0.00  0.00    -0.169 N 
ATOM     11  C   UNL     1      53.523 150.303  25.416  0.00  0.00    +0.316 C 
ATOM     12  O   UNL     1      52.533 149.981  26.150  0.00  0.00    -0.251 OA
ATOM     13  N   UNL     1      54.175 149.319  24.636  0.00  0.00    -0.312 N 
ATOM     14  H   UNL     1      54.685 151.927  24.864  0.00  0.00    +0.178 HD
ATOM     15  H   UNL     1      54.941 149.567  24.069  0.00  0.00    +0.147 HD
ATOM     16  H   UNL     1      53.863 148.385  24.661  0.00  0.00    +0.147 HD
ENDBRANCH   7  10
ENDBRANCH   1   7
BRANCH   6  17
ATOM     17  N   UNL     1      52.318 155.560  27.400  0.00  0.00    -0.294 N 
ATOM     18  H   UNL     1      51.615 154.889  27.240  0.00  0.00    +0.154 HD
BRANCH  17  19
ATOM     19  C   UNL     1      52.138 156.156  28.622  0.00  0.00    +0.153 C 
ATOM     20  S   UNL     1      51.346 155.136  29.747  0.00  0.00    -0.017 S 
BRANCH  19  21
ATOM     21  N   UNL     1      52.433 157.398  29.175  0.00  0.00    -0.224 N 
ATOM     22  H   UNL     1      53.021 157.346  29.963  0.00  0.00    +0.174 HD
BRANCH  21  23
ATOM     23  N   UNL     1      52.076 158.671  28.850  0.00  0.00    -0.108 NA
BRANCH  23  24
ATOM     24  C   UNL     1      51.709 159.538  29.868  0.00  0.00    +0.283 C 
ATOM     25  O   UNL     1      52.519 160.330  30.471  0.00  0.00    -0.267 OA
BRANCH  24  26
ATOM     26  C   UNL     1      50.327 159.603  30.321  0.00  0.00    +0.057 C 
ATOM     27  C   UNL     1      49.526 158.499  30.514  0.00  0.00    +0.007 C 
ATOM     28  C   UNL     1      48.225 158.580  30.940  0.00  0.00    +0.030 C 
ATOM     29  C   UNL     1      47.665 159.803  31.194  0.00  0.00    +0.140 C 
ATOM     30  C   UNL     1      48.431 160.952  31.013  0.00  0.00    +0.030 C 
ATOM     31  C   UNL     1      49.738 160.842  30.586  0.00  0.00    +0.007 C 
ATOM     32  F   UNL     1      46.372 159.921  31.618  0.00  0.00    -0.204 F 
ENDBRANCH  24  26
ENDBRANCH  23  24
ENDBRANCH  21  23
ENDBRANCH  19  21
ENDBRANCH  17  19
ENDBRANCH   6  17
TORSDOF 8
ENDMDL
