REMARK  Name = =
REMARK  3 active torsions:
REMARK  status: ('A' for Active; 'I' for Inactive)
REMARK    1  A    between atoms: P_1  and  N_3
REMARK    2  A    between atoms: P_1  and  N_4
REMARK    3  A    between atoms: P_1  and  O_5
REMARK                            x       y       z     vdW  Elec       q    Type
REMARK                         _______ _______ _______ _____ _____    ______ ____
ROOT
ATOM      1  P   UNL     1      -3.143  -3.673  30.639  0.00  0.00    +0.335 P 
ATOM      2  O   UNL     1      -3.779  -3.288  31.933  0.00  0.00    -0.255 OA
ENDROOT
BRANCH   1   3
ATOM      3  N   UNL     1      -4.316  -4.268  29.525  0.00  0.00    -0.247 NA
ATOM      4  H   UNL     1      -4.805  -5.062  29.938  0.00  0.00    +0.129 HD
ATOM      5  H   UNL     1      -3.851  -4.564  28.667  0.00  0.00    +0.129 HD
ENDBRANCH   1   3
BRANCH   1   6
ATOM      6  N   UNL     1      -1.882  -4.841  30.988  0.00  0.00    -0.247 NA
ATOM      7  H   UNL     1      -2.292  -5.661  31.435  0.00  0.00    +0.129 HD
ATOM      8  H   UNL     1      -1.194  -4.422  31.613  0.00  0.00    +0.129 HD
ENDBRANCH   1   6
BRANCH   1   9
ATOM      9  O   UNL     1      -2.356  -2.347  29.897  0.00  0.00    -0.322 OA
ATOM     10  H   UNL     1      -1.687  -1.989  30.501  0.00  0.00    +0.220 HD
ENDBRANCH   1   9
TORSDOF 3
