REMARK  Name = =
REMARK  4 active torsions:
REMARK  status: ('A' for Active; 'I' for Inactive)
REMARK    1  A    between atoms: N_1  and  C_3
REMARK    2  A    between atoms: N_1  and  P_9
REMARK    3  A    between atoms: P_9  and  N_11
REMARK    4  A    between atoms: P_9  and  O_12
REMARK                            x       y       z     vdW  Elec       q    Type
REMARK                         _______ _______ _______ _____ _____    ______ ____
ROOT
ATOM      1  N   UNL     1      -4.399  -2.455  32.338  0.00  0.00    -0.213 NA
ATOM      2  H   UNL     1      -4.748  -3.083  33.062  0.00  0.00    +0.134 HD
ENDROOT
BRANCH   1   4
ATOM      3  N   UNL     1      -6.407  -1.248  32.873  0.00  0.00    -0.263 NA
ATOM      4  C   UNL     1      -5.499  -1.716  31.808  0.00  0.00    +0.099 C 
ATOM      5  C   UNL     1      -6.670  -2.555  31.392  0.00  0.00    +0.048 C 
ATOM      6  C   UNL     1      -6.848  -2.616  32.921  0.00  0.00    +0.076 C 
ATOM      7  C   UNL     1      -5.202  -0.478  31.031  0.00  0.00    +0.032 C 
ATOM      8  C   UNL     1      -5.469   0.617  31.996  0.00  0.00    +0.020 C 
ATOM      9  C   UNL     1      -6.153   0.126  33.017  0.00  0.00    +0.073 C 
ENDBRANCH   1   4
BRANCH   1  10
ATOM     10  P   UNL     1      -3.583  -3.392  31.145  0.00  0.00    +0.339 P 
ATOM     11  O   UNL     1      -4.480  -3.771  29.979  0.00  0.00    -0.255 OA
BRANCH  10  12
ATOM     12  N   UNL     1      -2.984  -4.883  31.828  0.00  0.00    -0.247 NA
ATOM     13  H   UNL     1      -3.763  -5.419  32.210  0.00  0.00    +0.129 HD
ATOM     14  H   UNL     1      -2.318  -4.673  32.572  0.00  0.00    +0.129 HD
ENDBRANCH  10  12
BRANCH  10  15
ATOM     15  O   UNL     1      -2.243  -2.551  30.529  0.00  0.00    -0.322 OA
ATOM     16  H   UNL     1      -1.799  -3.096  29.860  0.00  0.00    +0.220 HD
ENDBRANCH  10  15
ENDBRANCH   1  10
TORSDOF 4
