REMARK  Name = =
REMARK  4 active torsions:
REMARK  status: ('A' for Active; 'I' for Inactive)
REMARK    1  A    between atoms: C_2  and  N_14
REMARK    2  A    between atoms: N_14  and  P_15
REMARK    3  A    between atoms: P_15  and  N_17
REMARK    4  A    between atoms: P_15  and  O_18
REMARK                            x       y       z     vdW  Elec       q    Type
REMARK                         _______ _______ _______ _____ _____    ______ ____
ROOT
ATOM      1  N   UNL     1      -6.749  -5.229  21.418  0.00  0.00    -0.265 NA
ATOM      2  C   UNL     1      -6.312  -5.744  20.123  0.00  0.00    +0.099 C 
ATOM      3  C   UNL     1      -4.921  -5.396  20.451  0.00  0.00    +0.048 C 
ATOM      4  C   UNL     1      -5.385  -5.370  21.882  0.00  0.00    +0.076 C 
ATOM      5  C   UNL     1      -6.720  -7.215  20.166  0.00  0.00    +0.032 C 
ATOM      6  C   UNL     1      -8.036  -7.106  20.923  0.00  0.00    +0.017 C 
ATOM      7  C   UNL     1      -7.593  -6.210  22.040  0.00  0.00    +0.053 C 
ATOM      8  C   UNL     1      -6.990  -6.933  23.215  0.00  0.00    +0.023 C 
ATOM      9  C   UNL     1      -8.170  -7.360  24.073  0.00  0.00    +0.066 C 
ATOM     10  C   UNL     1      -9.277  -6.453  23.712  0.00  0.00    +0.152 C 
ATOM     11  O   UNL     1     -10.210  -6.099  24.360  0.00  0.00    -0.296 OA
ATOM     12  C   UNL     1      -8.981  -6.048  22.310  0.00  0.00    +0.071 C 
ATOM     13  C   UNL     1      -9.191  -7.196  21.422  0.00  0.00    +0.010 C 
ENDROOT
BRANCH   2  14
ATOM     14  N   UNL     1      -6.841  -4.984  19.026  0.00  0.00    -0.213 NA
ATOM     15  H   UNL     1      -7.637  -5.496  18.644  0.00  0.00    +0.134 HD
BRANCH  14  16
ATOM     16  P   UNL     1      -7.370  -3.393  19.412  0.00  0.00    +0.339 P 
ATOM     17  O   UNL     1      -8.714  -3.530  20.138  0.00  0.00    -0.255 OA
BRANCH  16  18
ATOM     18  N   UNL     1      -7.620  -2.347  18.065  0.00  0.00    -0.247 NA
ATOM     19  H   UNL     1      -8.237  -2.801  17.392  0.00  0.00    +0.129 HD
ATOM     20  H   UNL     1      -6.724  -2.144  17.621  0.00  0.00    +0.129 HD
ENDBRANCH  16  18
BRANCH  16  21
ATOM     21  O   UNL     1      -6.344  -2.605  20.501  0.00  0.00    -0.322 OA
ATOM     22  H   UNL     1      -6.188  -3.176  21.270  0.00  0.00    +0.220 HD
ENDBRANCH  16  21
ENDBRANCH  14  16
ENDBRANCH   2  14
TORSDOF 4
