REMARK  Name = =
REMARK  7 active torsions:
REMARK  status: ('A' for Active; 'I' for Inactive)
REMARK    1  A    between atoms: C_1  and  C_26
REMARK    2  A    between atoms: C_2  and  C_7
REMARK    3  A    between atoms: C_3  and  O_35
REMARK    4  A    between atoms: C_4  and  O_34
REMARK    5  A    between atoms: C_5  and  O_33
REMARK    6  A    between atoms: C_13  and  O_25
REMARK    7  A    between atoms: C_16  and  C_18
REMARK                            x       y       z     vdW  Elec       q    Type
REMARK                         _______ _______ _______ _____ _____    ______ ____
ROOT
ATOM      1  C   UNL     1      -3.699  -3.310  31.273  0.00  0.00    -0.015 C 
ATOM      2  C   UNL     1      -4.405  -2.194  30.890  0.00  0.00    +0.034 C 
ATOM      3  C   UNL     1      -3.763  -1.226  30.144  0.00  0.00    +0.170 C 
ATOM      4  C   UNL     1      -2.441  -1.338  29.771  0.00  0.00    +0.202 C 
ATOM      5  C   UNL     1      -1.722  -2.454  30.149  0.00  0.00    +0.170 C 
ATOM      6  C   UNL     1      -2.373  -3.424  30.900  0.00  0.00    +0.036 C 
ENDROOT
BRANCH   2   7
ATOM      7  C   UNL     1      -5.791  -2.068  31.308  0.00  0.00    +0.019 C 
ATOM      8  C   UNL     1      -6.720  -3.010  31.662  0.00  0.00    +0.072 C 
ATOM      9  N   UNL     1      -7.912  -2.417  31.981  0.00  0.00    -0.233 N 
ATOM     10  C   UNL     1      -7.778  -1.091  31.838  0.00  0.00    +0.059 C 
ATOM     11  C   UNL     1      -6.462  -0.859  31.420  0.00  0.00    +0.018 C 
ATOM     12  C   UNL     1      -6.055   0.420  31.192  0.00  0.00    +0.038 C 
ATOM     13  C   UNL     1      -6.927   1.490  31.369  0.00  0.00    +0.134 C 
ATOM     14  C   UNL     1      -8.216   1.235  31.781  0.00  0.00    +0.038 C 
ATOM     15  C   UNL     1      -8.656  -0.048  32.019  0.00  0.00    +0.018 C 
ATOM     16  C   UNL     1      -9.069  -3.101  32.385  0.00  0.00    +0.257 C 
ATOM     17  O   UNL     1      -9.029  -4.392  32.449  0.00  0.00    -0.269 OA
BRANCH  16  18
ATOM     18  C   UNL     1     -10.345  -2.543  32.752  0.00  0.00    +0.054 C 
ATOM     19  C   UNL     1     -10.625  -2.304  34.079  0.00  0.00    +0.005 C 
ATOM     20  C   UNL     1     -11.859  -1.766  34.467  0.00  0.00    +0.012 C 
ATOM     21  C   UNL     1     -12.806  -1.474  33.508  0.00  0.00    +0.058 C 
ATOM     22  C   UNL     1     -12.494  -1.724  32.193  0.00  0.00    +0.012 C 
ATOM     23  C   UNL     1     -11.271  -2.259  31.784  0.00  0.00    +0.005 C 
ATOM     24 CL   UNL     1     -14.365  -0.795  33.973  0.00  0.00    -0.082 Cl
ENDBRANCH  16  18
BRANCH  13  25
ATOM     25  O   UNL     1      -6.448   2.763  31.121  0.00  0.00    -0.506 OA
ATOM     26  H   UNL     1      -5.562   2.884  30.842  0.00  0.00    +0.292 HD
ENDBRANCH  13  25
ENDBRANCH   2   7
BRANCH   1  27
ATOM     27  C   UNL     1      -4.312  -4.400  32.050  0.00  0.00    +0.038 C 
ATOM     28  C   UNL     1      -3.481  -4.652  33.275  0.00  0.00    +0.073 C 
ATOM     29  N   UNL     1      -4.151  -5.491  34.238  0.00  0.00    -0.297 NA
ATOM     30  C   UNL     1      -5.096  -6.394  33.620  0.00  0.00    +0.069 C 
ATOM     31  C   UNL     1      -4.351  -7.453  32.872  0.00  0.00    +0.017 C 
ATOM     32  C   UNL     1      -3.659  -6.824  31.695  0.00  0.00    +0.002 C 
ATOM     33  C   UNL     1      -4.398  -5.620  31.166  0.00  0.00    +0.006 C 
ATOM     34  H   UNL     1      -4.651  -4.896  34.899  0.00  0.00    +0.123 HD
ENDBRANCH   1  27
BRANCH   5  35
ATOM     35  O   UNL     1      -0.391  -2.649  29.820  0.00  0.00    -0.503 OA
ATOM     36  H   UNL     1       0.066  -2.006  29.314  0.00  0.00    +0.292 HD
ENDBRANCH   5  35
BRANCH   4  37
ATOM     37  O   UNL     1      -1.784  -0.374  29.022  0.00  0.00    -0.501 OA
ATOM     38  H   UNL     1      -2.240   0.397  28.747  0.00  0.00    +0.292 HD
ENDBRANCH   4  37
BRANCH   3  39
ATOM     39  O   UNL     1      -4.445  -0.089  29.741  0.00  0.00    -0.503 OA
ATOM     40  H   UNL     1      -5.345   0.025  29.974  0.00  0.00    +0.292 HD
ENDBRANCH   3  39
TORSDOF 7
