REMARK  Name = =
REMARK  6 active torsions:
REMARK  status: ('A' for Active; 'I' for Inactive)
REMARK    1  A    between atoms: C_2  and  N_16
REMARK    2  A    between atoms: C_3  and  N_14
REMARK    3  A    between atoms: N_14  and  O_15
REMARK    4  A    between atoms: N_16  and  P_17
REMARK    5  A    between atoms: P_17  and  N_19
REMARK    6  A    between atoms: P_17  and  O_20
REMARK                            x       y       z     vdW  Elec       q    Type
REMARK                         _______ _______ _______ _____ _____    ______ ____
ROOT
ATOM      1  N   UNL     1      -5.955  -6.600  22.653  0.00  0.00    -0.259 NA
ATOM      2  C   UNL     1      -5.754  -5.788  21.458  0.00  0.00    +0.114 C 
ATOM      3  C   UNL     1      -4.550  -6.622  21.155  0.00  0.00    +0.123 C 
ATOM      4  C   UNL     1      -5.251  -7.656  22.005  0.00  0.00    +0.094 C 
ATOM      5  C   UNL     1      -6.951  -5.935  20.571  0.00  0.00    +0.033 C 
ATOM      6  C   UNL     1      -7.756  -7.001  21.266  0.00  0.00    +0.021 C 
ATOM      7  C   UNL     1      -7.375  -6.704  22.705  0.00  0.00    +0.072 C 
ATOM      8  C   UNL     1      -8.032  -5.482  23.281  0.00  0.00    -0.009 C 
ATOM      9  C   UNL     1      -9.285  -5.969  23.977  0.00  0.00    +0.034 C 
ATOM     10  C   UNL     1      -9.254  -7.447  23.970  0.00  0.00    +0.174 C 
ATOM     11  O   UNL     1     -10.032  -8.169  24.529  0.00  0.00    -0.291 OA
ATOM     12  C   UNL     1      -8.101  -7.870  23.160  0.00  0.00    +0.079 C 
ATOM     13  C   UNL     1      -8.518  -7.960  21.721  0.00  0.00    +0.011 C 
ENDROOT
BRANCH   3  14
ATOM     14  N   UNL     1      -4.301  -7.011  19.800  0.00  0.00    -0.191 NA
ATOM     15  H   UNL     1      -4.270  -6.162  19.235  0.00  0.00    +0.154 HD
BRANCH  14  16
ATOM     16  O   UNL     1      -3.186  -7.686  19.571  0.00  0.00    -0.314 OA
ATOM     17  H   UNL     1      -3.188  -8.501  20.097  0.00  0.00    +0.236 HD
ENDBRANCH  14  16
ENDBRANCH   3  14
BRANCH   2  18
ATOM     18  N   UNL     1      -5.397  -4.406  21.765  0.00  0.00    -0.212 NA
ATOM     19  H   UNL     1      -4.467  -4.396  22.184  0.00  0.00    +0.135 HD
BRANCH  18  20
ATOM     20  P   UNL     1      -5.384  -3.392  20.375  0.00  0.00    +0.339 P 
ATOM     21  O   UNL     1      -6.762  -2.804  20.082  0.00  0.00    -0.255 OA
BRANCH  20  22
ATOM     22  N   UNL     1      -4.338  -2.004  20.708  0.00  0.00    -0.247 NA
ATOM     23  H   UNL     1      -4.698  -1.493  21.514  0.00  0.00    +0.129 HD
ATOM     24  H   UNL     1      -4.321  -1.388  19.895  0.00  0.00    +0.129 HD
ENDBRANCH  20  22
BRANCH  20  25
ATOM     25  O   UNL     1      -4.748  -4.187  19.051  0.00  0.00    -0.322 OA
ATOM     26  H   UNL     1      -4.753  -3.593  18.284  0.00  0.00    +0.220 HD
ENDBRANCH  20  25
ENDBRANCH  18  20
ENDBRANCH   2  18
TORSDOF 6
