REMARK  Name = =
REMARK  7 active torsions:
REMARK  status: ('A' for Active; 'I' for Inactive)
REMARK    1  A    between atoms: C_2  and  N_18
REMARK    2  A    between atoms: C_3  and  C_14
REMARK    3  A    between atoms: C_3  and  N_16
REMARK    4  A    between atoms: N_16  and  O_17
REMARK    5  A    between atoms: N_18  and  P_19
REMARK    6  A    between atoms: P_19  and  N_21
REMARK    7  A    between atoms: P_19  and  O_22
REMARK                            x       y       z     vdW  Elec       q    Type
REMARK                         _______ _______ _______ _____ _____    ______ ____
ROOT
ATOM      1  N   UNL     1     -11.964  -3.398  19.319  0.00  0.00    -0.263 NA
ATOM      2  C   UNL     1     -10.777  -3.776  20.099  0.00  0.00    +0.113 C 
ATOM      3  C   UNL     1     -10.718  -2.415  20.726  0.00  0.00    +0.106 C 
ATOM      4  C   UNL     1     -11.853  -2.060  19.820  0.00  0.00    +0.092 C 
ATOM      5  C   UNL     1     -11.239  -4.837  21.039  0.00  0.00    +0.033 C 
ATOM      6  C   UNL     1     -12.354  -5.445  20.260  0.00  0.00    +0.017 C 
ATOM      7  C   UNL     1     -13.050  -4.148  19.814  0.00  0.00    +0.053 C 
ATOM      8  C   UNL     1     -13.876  -3.616  20.944  0.00  0.00    +0.023 C 
ATOM      9  C   UNL     1     -15.029  -4.645  20.988  0.00  0.00    +0.066 C 
ATOM     10  C   UNL     1     -15.308  -4.704  19.502  0.00  0.00    +0.152 C 
ATOM     11  O   UNL     1     -16.393  -4.589  19.023  0.00  0.00    -0.296 OA
ATOM     12  C   UNL     1     -13.946  -4.922  18.932  0.00  0.00    +0.071 C 
ATOM     13  C   UNL     1     -13.305  -6.083  19.614  0.00  0.00    +0.010 C 
ENDROOT
BRANCH   3  14
ATOM     14  C   UNL     1      -9.469  -1.596  20.442  0.00  0.00    +0.021 C 
ATOM     15  C   UNL     1      -9.695  -0.126  20.605  0.00  0.00    +0.002 C 
ENDBRANCH   3  14
BRANCH   3  16
ATOM     16  N   UNL     1     -10.976  -2.372  22.145  0.00  0.00    -0.192 NA
ATOM     17  H   UNL     1     -11.561  -3.169  22.396  0.00  0.00    +0.154 HD
BRANCH  16  18
ATOM     18  O   UNL     1      -9.843  -2.420  22.875  0.00  0.00    -0.314 OA
ATOM     19  H   UNL     1      -9.278  -1.666  22.645  0.00  0.00    +0.236 HD
ENDBRANCH  16  18
ENDBRANCH   3  16
BRANCH   2  20
ATOM     20  N   UNL     1      -9.611  -4.029  19.324  0.00  0.00    -0.212 NA
ATOM     21  H   UNL     1      -9.127  -4.820  19.750  0.00  0.00    +0.135 HD
BRANCH  20  22
ATOM     22  P   UNL     1      -9.824  -4.391  17.672  0.00  0.00    +0.339 P 
ATOM     23  O   UNL     1     -10.689  -5.555  17.360  0.00  0.00    -0.255 OA
BRANCH  22  24
ATOM     24  N   UNL     1      -8.254  -4.687  16.946  0.00  0.00    -0.247 NA
ATOM     25  H   UNL     1      -7.829  -5.508  17.378  0.00  0.00    +0.129 HD
ATOM     26  H   UNL     1      -7.653  -3.876  17.093  0.00  0.00    +0.129 HD
ENDBRANCH  22  24
BRANCH  22  27
ATOM     27  O   UNL     1     -10.456  -3.006  16.890  0.00  0.00    -0.322 OA
ATOM     28  H   UNL     1     -11.329  -2.798  17.257  0.00  0.00    +0.220 HD
ENDBRANCH  22  27
ENDBRANCH  20  22
ENDBRANCH   2  20
TORSDOF 7
