REMARK  Name = =
REMARK  9 active torsions:
REMARK  status: ('A' for Active; 'I' for Inactive)
REMARK    1  A    between atoms: C_2  and  N_18
REMARK    2  A    between atoms: C_3  and  C_14
REMARK    3  A    between atoms: C_3  and  N_16
REMARK    4  A    between atoms: N_16  and  O_17
REMARK    5  A    between atoms: N_18  and  P_19
REMARK    6  A    between atoms: N_18  and  C_23
REMARK    7  A    between atoms: P_19  and  N_21
REMARK    8  A    between atoms: P_19  and  O_22
REMARK    9  A    between atoms: C_24  and  C_25
REMARK                            x       y       z     vdW  Elec       q    Type
REMARK                         _______ _______ _______ _____ _____    ______ ____
ROOT
ATOM      1  N   UNL     1     -11.059  -4.849  22.203  0.00  0.00    -0.260 NA
ATOM      2  C   UNL     1     -11.221  -6.325  22.020  0.00  0.00    +0.129 C 
ATOM      3  C   UNL     1     -11.568  -6.413  23.422  0.00  0.00    +0.109 C 
ATOM      4  C   UNL     1     -12.115  -5.015  23.216  0.00  0.00    +0.093 C 
ATOM      5  C   UNL     1     -12.253  -6.403  20.928  0.00  0.00    +0.037 C 
ATOM      6  C   UNL     1     -11.745  -5.297  20.016  0.00  0.00    +0.017 C 
ATOM      7  C   UNL     1     -11.571  -4.208  21.032  0.00  0.00    +0.054 C 
ATOM      8  C   UNL     1     -12.788  -3.350  21.237  0.00  0.00    +0.023 C 
ATOM      9  C   UNL     1     -12.404  -2.000  20.694  0.00  0.00    +0.066 C 
ATOM     10  C   UNL     1     -11.277  -2.186  19.760  0.00  0.00    +0.152 C 
ATOM     11  O   UNL     1     -10.790  -1.448  18.935  0.00  0.00    -0.296 OA
ATOM     12  C   UNL     1     -10.793  -3.569  20.028  0.00  0.00    +0.071 C 
ATOM     13  C   UNL     1     -11.406  -4.505  19.080  0.00  0.00    +0.010 C 
ENDROOT
BRANCH   3  14
ATOM     14  C   UNL     1     -10.357  -6.347  24.328  0.00  0.00    +0.021 C 
ATOM     15  C   UNL     1     -10.377  -7.676  25.107  0.00  0.00    +0.002 C 
ENDBRANCH   3  14
BRANCH   3  16
ATOM     16  N   UNL     1     -12.458  -7.384  23.918  0.00  0.00    -0.192 NA
ATOM     17  H   UNL     1     -11.995  -7.830  24.710  0.00  0.00    +0.154 HD
BRANCH  16  18
ATOM     18  O   UNL     1     -13.640  -7.034  24.323  0.00  0.00    -0.314 OA
ATOM     19  H   UNL     1     -14.116  -6.603  23.596  0.00  0.00    +0.236 HD
ENDBRANCH  16  18
ENDBRANCH   3  16
BRANCH   2  20
ATOM     20  N   UNL     1      -9.918  -6.822  21.620  0.00  0.00    -0.224 N 
BRANCH  20  21
ATOM     21  P   UNL     1      -9.834  -8.563  21.314  0.00  0.00    +0.359 P 
ATOM     22  O   UNL     1     -11.204  -9.191  21.424  0.00  0.00    -0.250 OA
BRANCH  21  23
ATOM     23  N   UNL     1      -9.193  -8.809  19.687  0.00  0.00    -0.244 NA
ATOM     24  H   UNL     1      -9.815  -8.372  19.007  0.00  0.00    +0.129 HD
ATOM     25  H   UNL     1      -9.127  -9.809  19.495  0.00  0.00    +0.129 HD
ENDBRANCH  21  23
BRANCH  21  26
ATOM     26  O   UNL     1      -8.756  -9.309  22.373  0.00  0.00    -0.319 OA
ATOM     27  H   UNL     1      -9.070  -9.199  23.284  0.00  0.00    +0.220 HD
ENDBRANCH  21  26
ENDBRANCH  20  21
BRANCH  20  28
ATOM     28  C   UNL     1      -8.787  -5.981  21.473  0.00  0.00    +0.074 C 
ATOM     29  C   UNL     1      -7.582  -6.341  21.865  0.00  0.00    +0.062 C 
BRANCH  29  30
ATOM     30  C   UNL     1      -6.454  -5.435  21.688  0.00  0.00    +0.236 C 
ATOM     31  O   UNL     1      -5.268  -5.820  21.761  0.00  0.00    -0.283 OA
ENDBRANCH  29  30
ENDBRANCH  20  28
ENDBRANCH   2  20
TORSDOF 9
