REMARK  Name = =
REMARK  12 active torsions:
REMARK  status: ('A' for Active; 'I' for Inactive)
REMARK    1  A    between atoms: C_2  and  N_18
REMARK    2  A    between atoms: C_3  and  C_14
REMARK    3  A    between atoms: C_3  and  N_16
REMARK    4  A    between atoms: N_16  and  O_17
REMARK    5  A    between atoms: N_18  and  P_19
REMARK    6  A    between atoms: N_18  and  C_23
REMARK    7  A    between atoms: P_19  and  N_21
REMARK    8  A    between atoms: P_19  and  O_22
REMARK    9  A    between atoms: C_23  and  C_24
REMARK   10  A    between atoms: C_23  and  N_25
REMARK   11  A    between atoms: N_25  and  O_28
REMARK   12  A    between atoms: C_26  and  O_29
REMARK                            x       y       z     vdW  Elec       q    Type
REMARK                         _______ _______ _______ _____ _____    ______ ____
ROOT
ATOM      1  N   UNL     1     -11.038  -3.986  20.286  0.00  0.00    -0.263 NA
ATOM      2  C   UNL     1     -11.807  -4.998  21.042  0.00  0.00    +0.118 C 
ATOM      3  C   UNL     1     -11.769  -4.176  22.300  0.00  0.00    +0.106 C 
ATOM      4  C   UNL     1     -11.533  -3.026  21.284  0.00  0.00    +0.092 C 
ATOM      5  C   UNL     1     -13.150  -4.959  20.335  0.00  0.00    +0.033 C 
ATOM      6  C   UNL     1     -12.702  -4.890  18.860  0.00  0.00    +0.017 C 
ATOM      7  C   UNL     1     -11.706  -3.762  19.042  0.00  0.00    +0.053 C 
ATOM      8  C   UNL     1     -12.335  -2.392  18.889  0.00  0.00    +0.023 C 
ATOM      9  C   UNL     1     -12.213  -2.000  17.431  0.00  0.00    +0.066 C 
ATOM     10  C   UNL     1     -11.205  -2.919  16.849  0.00  0.00    +0.152 C 
ATOM     11  O   UNL     1     -10.549  -2.692  15.876  0.00  0.00    -0.296 OA
ATOM     12  C   UNL     1     -11.244  -4.113  17.758  0.00  0.00    +0.071 C 
ATOM     13  C   UNL     1     -12.458  -4.916  17.642  0.00  0.00    +0.010 C 
ENDROOT
BRANCH   3  14
ATOM     14  C   UNL     1     -13.035  -3.992  23.035  0.00  0.00    +0.021 C 
ATOM     15  C   UNL     1     -13.488  -2.555  23.017  0.00  0.00    +0.002 C 
ENDBRANCH   3  14
BRANCH   3  16
ATOM     16  N   UNL     1     -10.594  -4.268  23.088  0.00  0.00    -0.192 NA
ATOM     17  H   UNL     1      -9.845  -3.817  22.562  0.00  0.00    +0.154 HD
BRANCH  16  18
ATOM     18  O   UNL     1     -10.592  -3.737  24.299  0.00  0.00    -0.314 OA
ATOM     19  H   UNL     1     -11.294  -4.143  24.831  0.00  0.00    +0.236 HD
ENDBRANCH  16  18
ENDBRANCH   3  16
BRANCH   2  20
ATOM     20  N   UNL     1     -11.165  -6.251  21.112  0.00  0.00    -0.166 NA
BRANCH  20  21
ATOM     21  P   UNL     1     -11.913  -7.740  21.597  0.00  0.00    +0.344 P 
ATOM     22  O   UNL     1     -12.990  -8.010  20.516  0.00  0.00    -0.255 OA
BRANCH  21  23
ATOM     23  N   UNL     1     -10.786  -9.084  21.610  0.00  0.00    -0.246 NA
ATOM     24  H   UNL     1     -10.312  -9.139  20.709  0.00  0.00    +0.129 HD
ATOM     25  H   UNL     1     -11.294  -9.952  21.780  0.00  0.00    +0.129 HD
ENDBRANCH  21  23
BRANCH  21  26
ATOM     26  O   UNL     1     -12.678  -7.663  23.072  0.00  0.00    -0.321 OA
ATOM     27  H   UNL     1     -13.304  -6.922  23.073  0.00  0.00    +0.220 HD
ENDBRANCH  21  26
ENDBRANCH  20  21
BRANCH  20  28
ATOM     28  C   UNL     1      -9.789  -6.453  20.647  0.00  0.00    +0.201 C 
BRANCH  28  29
ATOM     29  C   UNL     1      -9.700  -7.133  19.548  0.00  0.00    +0.058 C 
ATOM     30  C   UNL     1      -8.447  -7.450  18.912  0.00  0.00    +0.233 C 
ATOM     31  O   UNL     1      -8.429  -8.120  17.807  0.00  0.00    -0.283 OA
ENDBRANCH  28  29
BRANCH  28  32
ATOM     32  N   UNL     1      -8.749  -5.914  21.390  0.00  0.00    -0.119 N 
ATOM     33  C   UNL     1      -8.416  -6.380  22.716  0.00  0.00    +0.426 C 
ATOM     34  O   UNL     1      -9.100  -7.310  23.184  0.00  0.00    -0.224 OA
BRANCH  32  35
ATOM     35  O   UNL     1      -7.926  -4.894  20.989  0.00  0.00    -0.288 OA
ATOM     36  H   UNL     1      -8.178  -4.607  20.097  0.00  0.00    +0.242 HD
ENDBRANCH  32  35
BRANCH  33  37
ATOM     37  O   UNL     1      -7.399  -5.862  23.485  0.00  0.00    -0.465 OA
ATOM     38  H   UNL     1      -6.871  -5.162  23.154  0.00  0.00    +0.297 HD
ENDBRANCH  33  37
ENDBRANCH  28  32
ENDBRANCH  20  28
ENDBRANCH   2  20
TORSDOF 12
