REMARK  Name = =
REMARK  13 active torsions:
REMARK  status: ('A' for Active; 'I' for Inactive)
REMARK    1  A    between atoms: C_2  and  N_19
REMARK    2  A    between atoms: C_3  and  C_14
REMARK    3  A    between atoms: C_3  and  N_16
REMARK    4  A    between atoms: N_16  and  N_17
REMARK    5  A    between atoms: N_16  and  O_18
REMARK    6  A    between atoms: N_19  and  P_20
REMARK    7  A    between atoms: N_19  and  C_24
REMARK    8  A    between atoms: P_20  and  N_22
REMARK    9  A    between atoms: P_20  and  O_23
REMARK   10  A    between atoms: C_24  and  N_26
REMARK   11  A    between atoms: C_25  and  C_31
REMARK   12  A    between atoms: N_26  and  O_29
REMARK   13  A    between atoms: C_27  and  O_30
REMARK                            x       y       z     vdW  Elec       q    Type
REMARK                         _______ _______ _______ _____ _____    ______ ____
ROOT
ATOM      1  N   UNL     1     -10.909  -4.289  22.099  0.00  0.00    -0.260 NA
ATOM      2  C   UNL     1     -11.388  -5.241  21.117  0.00  0.00    +0.132 C 
ATOM      3  C   UNL     1     -12.734  -5.091  21.687  0.00  0.00    +0.127 C 
ATOM      4  C   UNL     1     -12.235  -3.690  22.065  0.00  0.00    +0.095 C 
ATOM      5  C   UNL     1     -11.081  -4.607  19.785  0.00  0.00    +0.037 C 
ATOM      6  C   UNL     1     -10.795  -3.155  20.120  0.00  0.00    +0.017 C 
ATOM      7  C   UNL     1     -10.034  -3.368  21.412  0.00  0.00    +0.054 C 
ATOM      8  C   UNL     1      -8.594  -3.698  21.289  0.00  0.00    +0.023 C 
ATOM      9  C   UNL     1      -7.814  -2.522  21.900  0.00  0.00    +0.066 C 
ATOM     10  C   UNL     1      -8.694  -1.377  21.610  0.00  0.00    +0.152 C 
ATOM     11  O   UNL     1      -8.449  -0.201  21.414  0.00  0.00    -0.296 OA
ATOM     12  C   UNL     1     -10.090  -1.929  21.592  0.00  0.00    +0.071 C 
ATOM     13  C   UNL     1     -10.620  -1.867  20.225  0.00  0.00    +0.010 C 
ENDROOT
BRANCH   3  14
ATOM     14  C   UNL     1     -12.881  -5.873  22.967  0.00  0.00    +0.023 C 
ATOM     15  C   UNL     1     -13.902  -6.965  22.948  0.00  0.00    +0.002 C 
ENDBRANCH   3  14
BRANCH   3  16
ATOM     16  N   UNL     1     -13.895  -5.115  20.895  0.00  0.00    -0.115 NA
BRANCH  16  17
ATOM     17  N   UNL     1     -13.826  -4.389  19.702  0.00  0.00    -0.244 NA
ATOM     18  H   UNL     1     -14.712  -4.469  19.203  0.00  0.00    +0.139 HD
ATOM     19  H   UNL     1     -13.074  -4.760  19.121  0.00  0.00    +0.139 HD
ENDBRANCH  16  17
BRANCH  16  20
ATOM     20  O   UNL     1     -14.906  -4.477  21.583  0.00  0.00    -0.297 OA
ATOM     21  H   UNL     1     -15.037  -4.911  22.441  0.00  0.00    +0.238 HD
ENDBRANCH  16  20
ENDBRANCH   3  16
BRANCH   2  22
ATOM     22  N   UNL     1     -10.914  -6.590  21.167  0.00  0.00    -0.211 N 
BRANCH  22  23
ATOM     23  P   UNL     1     -11.493  -7.759  20.007  0.00  0.00    +0.360 P 
ATOM     24  O   UNL     1     -12.696  -7.344  19.240  0.00  0.00    -0.250 OA
BRANCH  23  25
ATOM     25  N   UNL     1     -11.855  -9.304  20.752  0.00  0.00    -0.244 NA
ATOM     26  H   UNL     1     -12.601  -9.185  21.437  0.00  0.00    +0.129 HD
ATOM     27  H   UNL     1     -11.020  -9.661  21.217  0.00  0.00    +0.129 HD
ENDBRANCH  23  25
BRANCH  23  28
ATOM     28  O   UNL     1     -10.237  -7.955  18.852  0.00  0.00    -0.319 OA
ATOM     29  H   UNL     1     -10.512  -8.599  18.181  0.00  0.00    +0.220 HD
ENDBRANCH  23  28
ENDBRANCH  22  23
BRANCH  22  30
ATOM     30  C   UNL     1      -9.922  -7.102  22.086  0.00  0.00    +0.146 C 
ATOM     31  C   UNL     1     -10.190  -7.105  23.368  0.00  0.00    +0.078 C 
BRANCH  30  32
ATOM     32  N   UNL     1      -8.722  -7.664  21.588  0.00  0.00    -0.101 N 
ATOM     33  C   UNL     1      -8.478  -9.058  21.532  0.00  0.00    +0.429 C 
ATOM     34  O   UNL     1      -7.379  -9.467  21.098  0.00  0.00    -0.224 OA
BRANCH  32  35
ATOM     35  O   UNL     1      -7.718  -6.845  21.137  0.00  0.00    -0.284 OA
ATOM     36  H   UNL     1      -7.993  -5.919  21.222  0.00  0.00    +0.242 HD
ENDBRANCH  32  35
BRANCH  33  37
ATOM     37  O   UNL     1      -9.401 -10.005  21.936  0.00  0.00    -0.465 OA
ATOM     38  H   UNL     1     -10.235  -9.735  22.267  0.00  0.00    +0.297 HD
ENDBRANCH  33  37
ENDBRANCH  30  32
BRANCH  31  39
ATOM     39  C   UNL     1      -9.233  -7.596  24.335  0.00  0.00    +0.237 C 
ATOM     40  O   UNL     1      -8.191  -7.021  24.693  0.00  0.00    -0.283 OA
ENDBRANCH  31  39
ENDBRANCH  22  30
ENDBRANCH   2  22
TORSDOF 13
