REMARK  Name = =
REMARK  15 active torsions:
REMARK  status: ('A' for Active; 'I' for Inactive)
REMARK    1  A    between atoms: C_2  and  N_26
REMARK    2  A    between atoms: C_3  and  C_14
REMARK    3  A    between atoms: C_3  and  N_16
REMARK    4  A    between atoms: N_16  and  N_17
REMARK    5  A    between atoms: N_16  and  O_18
REMARK    6  A    between atoms: O_18  and  S_19
REMARK    7  A    between atoms: S_19  and  N_22
REMARK    8  A    between atoms: N_26  and  P_27
REMARK    9  A    between atoms: N_26  and  C_31
REMARK   10  A    between atoms: P_27  and  N_29
REMARK   11  A    between atoms: P_27  and  O_30
REMARK   12  A    between atoms: C_31  and  N_33
REMARK   13  A    between atoms: C_32  and  C_38
REMARK   14  A    between atoms: N_33  and  O_36
REMARK   15  A    between atoms: C_34  and  O_37
REMARK                            x       y       z     vdW  Elec       q    Type
REMARK                         _______ _______ _______ _____ _____    ______ ____
ROOT
ATOM      1  N   UNL     1     -10.976  -5.143  21.986  0.00  0.00    -0.260 NA
ATOM      2  C   UNL     1      -9.559  -5.476  22.093  0.00  0.00    +0.132 C 
ATOM      3  C   UNL     1      -9.260  -4.421  21.121  0.00  0.00    +0.130 C 
ATOM      4  C   UNL     1     -10.560  -3.790  21.649  0.00  0.00    +0.095 C 
ATOM      5  C   UNL     1      -9.303  -5.312  23.547  0.00  0.00    +0.037 C 
ATOM      6  C   UNL     1     -10.614  -5.873  24.106  0.00  0.00    +0.017 C 
ATOM      7  C   UNL     1     -11.573  -5.064  23.270  0.00  0.00    +0.054 C 
ATOM      8  C   UNL     1     -11.781  -3.658  23.833  0.00  0.00    +0.023 C 
ATOM      9  C   UNL     1     -12.897  -3.805  24.885  0.00  0.00    +0.066 C 
ATOM     10  C   UNL     1     -13.652  -4.955  24.350  0.00  0.00    +0.152 C 
ATOM     11  O   UNL     1     -14.846  -5.120  24.398  0.00  0.00    -0.296 OA
ATOM     12  C   UNL     1     -12.670  -5.866  23.745  0.00  0.00    +0.071 C 
ATOM     13  C   UNL     1     -11.657  -6.416  24.684  0.00  0.00    +0.010 C 
ENDROOT
BRANCH   3  14
ATOM     14  C   UNL     1      -9.485  -4.633  19.670  0.00  0.00    +0.023 C 
ATOM     15  C   UNL     1      -8.529  -5.409  18.876  0.00  0.00    +0.002 C 
ENDBRANCH   3  14
BRANCH   3  16
ATOM     16  N   UNL     1      -8.175  -3.476  21.388  0.00  0.00    -0.086 NA
BRANCH  16  17
ATOM     17  N   UNL     1      -7.695  -2.950  20.210  0.00  0.00    -0.242 NA
ATOM     18  H   UNL     1      -7.348  -3.704  19.617  0.00  0.00    +0.139 HD
ATOM     19  H   UNL     1      -6.936  -2.300  20.412  0.00  0.00    +0.139 HD
ENDBRANCH  16  17
BRANCH  16  20
ATOM     20  O   UNL     1      -8.616  -2.455  22.126  0.00  0.00    -0.130 OA
BRANCH  20  21
ATOM     21  S   UNL     1      -7.387  -1.442  22.636  0.00  0.00    +0.083 S 
ATOM     22  O   UNL     1      -7.369  -0.247  21.742  0.00  0.00    -0.051 OA
ATOM     23  O   UNL     1      -7.723  -0.981  24.025  0.00  0.00    -0.051 OA
BRANCH  21  24
ATOM     24  N   UNL     1      -5.861  -2.250  22.616  0.00  0.00    -0.168 N 
ATOM     25  C   UNL     1      -4.658  -1.498  22.552  0.00  0.00    +0.316 C 
ATOM     26  O   UNL     1      -4.717  -0.249  22.509  0.00  0.00    -0.251 OA
ATOM     27  N   UNL     1      -3.414  -2.195  22.536  0.00  0.00    -0.312 N 
ATOM     28  H   UNL     1      -5.825  -3.233  22.649  0.00  0.00    +0.178 HD
ATOM     29  H   UNL     1      -3.400  -3.179  22.571  0.00  0.00    +0.147 HD
ATOM     30  H   UNL     1      -2.569  -1.692  22.490  0.00  0.00    +0.147 HD
ENDBRANCH  21  24
ENDBRANCH  20  21
ENDBRANCH  16  20
ENDBRANCH   3  16
BRANCH   2  31
ATOM     31  N   UNL     1      -9.220  -6.833  21.727  0.00  0.00    -0.211 N 
BRANCH  31  32
ATOM     32  P   UNL     1     -10.393  -7.922  21.002  0.00  0.00    +0.360 P 
ATOM     33  O   UNL     1      -9.697  -8.758  19.959  0.00  0.00    -0.250 OA
BRANCH  32  34
ATOM     34  N   UNL     1     -11.037  -9.034  22.181  0.00  0.00    -0.244 NA
ATOM     35  H   UNL     1     -10.271  -9.538  22.627  0.00  0.00    +0.129 HD
ATOM     36  H   UNL     1     -11.658  -9.698  21.718  0.00  0.00    +0.129 HD
ENDBRANCH  32  34
BRANCH  32  37
ATOM     37  O   UNL     1     -11.606  -7.040  20.212  0.00  0.00    -0.319 OA
ATOM     38  H   UNL     1     -11.201  -6.438  19.569  0.00  0.00    +0.220 HD
ENDBRANCH  32  37
ENDBRANCH  31  32
BRANCH  31  39
ATOM     39  C   UNL     1      -7.916  -7.318  21.953  0.00  0.00    +0.146 C 
ATOM     40  C   UNL     1      -6.805  -6.602  21.951  0.00  0.00    +0.078 C 
BRANCH  39  41
ATOM     41  N   UNL     1      -7.685  -8.700  22.324  0.00  0.00    -0.101 N 
ATOM     42  C   UNL     1      -7.853  -9.075  23.679  0.00  0.00    +0.429 C 
ATOM     43  O   UNL     1      -8.215  -8.222  24.532  0.00  0.00    -0.224 OA
BRANCH  41  44
ATOM     44  O   UNL     1      -7.291  -9.565  21.412  0.00  0.00    -0.284 OA
ATOM     45  H   UNL     1      -7.235  -9.123  20.550  0.00  0.00    +0.242 HD
ENDBRANCH  41  44
BRANCH  42  46
ATOM     46  O   UNL     1      -7.630 -10.371  24.122  0.00  0.00    -0.465 OA
ATOM     47  H   UNL     1      -7.360 -11.033  23.517  0.00  0.00    +0.297 HD
ENDBRANCH  42  46
ENDBRANCH  39  41
BRANCH  40  48
ATOM     48  C   UNL     1      -5.465  -7.076  22.171  0.00  0.00    +0.237 C 
ATOM     49  O   UNL     1      -4.740  -7.486  21.257  0.00  0.00    -0.283 OA
ENDBRANCH  40  48
ENDBRANCH  31  39
ENDBRANCH   2  31
TORSDOF 15
