REMARK  Name = =
REMARK  1 active torsions:
REMARK  status: ('A' for Active; 'I' for Inactive)
REMARK    1  A    between atoms: C_1  and  C_14
REMARK                            x       y       z     vdW  Elec       q    Type
REMARK                         _______ _______ _______ _____ _____    ______ ____
ROOT
ATOM      1  C   UNL     1      -5.218  -2.693  31.706  0.00  0.00    +0.076 C 
ATOM      2  N   UNL     1      -4.433  -1.825  31.052  0.00  0.00    -0.183 NA
ATOM      3  N   UNL     1      -3.378  -2.141  30.354  0.00  0.00    -0.203 N 
ATOM      4  C   UNL     1      -3.016  -3.431  30.259  0.00  0.00    +0.265 C 
ATOM      5  O   UNL     1      -1.998  -3.696  29.580  0.00  0.00    -0.268 OA
ATOM      6  C   UNL     1      -3.760  -4.400  30.896  0.00  0.00    +0.061 C 
ATOM      7  C   UNL     1      -4.869  -4.030  31.626  0.00  0.00    +0.021 C 
ATOM      8  H   UNL     1      -2.853  -1.442  29.902  0.00  0.00    +0.178 HD
ENDROOT
BRANCH   1  15
ATOM      9  C   UNL     1      -6.282  -0.797  32.905  0.00  0.00    +0.025 C 
ATOM     10  C   UNL     1      -6.555   0.193  31.828  0.00  0.00    +0.089 C 
ATOM     11  N   UNL     1      -7.748  -0.094  31.065  0.00  0.00    -0.218 NA
ATOM     12  C   UNL     1      -8.804  -0.379  32.043  0.00  0.00    +0.089 C 
ATOM     13  C   UNL     1      -8.865  -1.860  32.208  0.00  0.00    +0.019 C 
ATOM     14  C   UNL     1      -7.627  -2.532  31.681  0.00  0.00    +0.007 C 
ATOM     15  C   UNL     1      -6.399  -2.231  32.474  0.00  0.00    +0.043 C 
ENDBRANCH   1  15
TORSDOF 1
