REMARK  Name = =
REMARK  2 active torsions:
REMARK  status: ('A' for Active; 'I' for Inactive)
REMARK    1  A    between atoms: C_1  and  C_14
REMARK    2  A    between atoms: C_7  and  N_15
REMARK                            x       y       z     vdW  Elec       q    Type
REMARK                         _______ _______ _______ _____ _____    ______ ____
ROOT
ATOM      1  C   UNL     1      -5.708  -2.058  31.668  0.00  0.00    +0.098 C 
ATOM      2  N   UNL     1      -6.458  -2.950  32.365  0.00  0.00    -0.182 NA
ATOM      3  N   UNL     1      -7.598  -2.597  32.915  0.00  0.00    -0.203 N 
ATOM      4  C   UNL     1      -8.078  -1.366  32.823  0.00  0.00    +0.266 C 
ATOM      5  O   UNL     1      -9.182  -1.077  33.352  0.00  0.00    -0.268 OA
ATOM      6  C   UNL     1      -7.380  -0.400  32.143  0.00  0.00    +0.085 C 
ATOM      7  C   UNL     1      -6.183  -0.795  31.578  0.00  0.00    +0.162 C 
ATOM      8  H   UNL     1      -8.114  -3.272  33.413  0.00  0.00    +0.178 HD
ENDROOT
BRANCH   1  15
ATOM      9  C   UNL     1      -5.052  -3.988  30.447  0.00  0.00    +0.025 C 
ATOM     10  C   UNL     1      -3.913  -4.884  30.119  0.00  0.00    +0.089 C 
ATOM     11  N   UNL     1      -2.907  -4.373  29.246  0.00  0.00    -0.218 NA
ATOM     12  C   UNL     1      -1.756  -3.916  30.017  0.00  0.00    +0.089 C 
ATOM     13  C   UNL     1      -2.140  -2.582  30.607  0.00  0.00    +0.019 C 
ATOM     14  C   UNL     1      -3.294  -2.837  31.592  0.00  0.00    +0.008 C 
ATOM     15  C   UNL     1      -4.572  -2.537  30.832  0.00  0.00    +0.045 C 
ENDBRANCH   1  15
BRANCH   7  16
ATOM     16  N   UNL     1      -5.371   0.231  30.972  0.00  0.00    +0.059 N 
ATOM     17  O   UNL     1      -4.021   0.084  31.042  0.00  0.00    -0.126 OA
ATOM     18  O   UNL     1      -5.914   1.197  30.476  0.00  0.00    -0.126 OA
ENDBRANCH   7  16
TORSDOF 2
