MODEL 1
REMARK VINA RESULT:    -9.232      0.000      0.000
REMARK INTER + INTRA:         -12.215
REMARK INTER:                 -11.391
REMARK INTRA:                  -0.823
REMARK UNBOUND:                -0.823
REMARK  Name = =
REMARK  4 active torsions:
REMARK  status: ('A' for Active; 'I' for Inactive)
REMARK    1  A    between atoms: C_1  and  C_20
REMARK    2  A    between atoms: C_5  and  N_26
REMARK    3  A    between atoms: C_12  and  S_33
REMARK    4  A    between atoms: S_33  and  N_36
REMARK                            x       y       z     vdW  Elec       q    Type
REMARK                         _______ _______ _______ _____ _____    ______ ____
ROOT
ATOM      1  C   UNL     1       0.219  -5.718  29.414  0.00  0.00    +0.022 C 
ATOM      2  C   UNL     1      -0.556  -4.575  29.492  0.00  0.00    +0.103 C 
ATOM      3  C   UNL     1      -0.164  -3.433  28.828  0.00  0.00    +0.229 C 
ATOM      4  C   UNL     1       0.992  -3.400  28.081  0.00  0.00    +0.040 C 
ATOM      5  C   UNL     1       1.779  -4.539  27.993  0.00  0.00    +0.076 C 
ATOM      6  C   UNL     1       1.373  -5.672  28.662  0.00  0.00    +0.018 C 
ATOM      7  O   UNL     1      -0.873  -2.306  28.870  0.00  0.00    -0.471 OA
ATOM      8  C   UNL     1      -1.987  -2.269  29.565  0.00  0.00    +0.142 C 
ATOM      9  C   UNL     1      -2.710  -1.099  29.600  0.00  0.00    +0.136 C 
ATOM     10  C   UNL     1      -3.901  -1.045  30.338  0.00  0.00    +0.199 C 
ATOM     11  O   UNL     1      -4.520   0.047  30.336  0.00  0.00    -0.289 OA
ATOM     12  C   UNL     1      -4.368  -2.139  31.032  0.00  0.00    +0.162 C 
ATOM     13  C   UNL     1      -3.635  -3.333  30.999  0.00  0.00    +0.045 C 
ATOM     14  C   UNL     1      -2.465  -3.438  30.293  0.00  0.00    +0.113 C 
ATOM     15  N   UNL     1      -1.714  -4.552  30.219  0.00  0.00    -0.243 NA
ENDROOT
BRANCH   1  20
ATOM     16  C   UNL     1      -1.337  -8.973  30.111  0.00  0.00    +0.015 C 
ATOM     17  C   UNL     1      -1.011  -9.166  31.442  0.00  0.00    +0.041 C 
ATOM     18  C   UNL     1      -0.276  -8.217  32.123  0.00  0.00    +0.176 C 
ATOM     19  C   UNL     1       0.120  -7.083  31.437  0.00  0.00    +0.177 C 
ATOM     20  C   UNL     1      -0.208  -6.901  30.110  0.00  0.00    +0.049 C 
ATOM     21  C   UNL     1      -0.945  -7.843  29.419  0.00  0.00    +0.061 C 
ATOM     22 CL   UNL     1      -1.380  -7.635  27.722  0.00  0.00    -0.082 Cl
ATOM     23  O   UNL     1       0.830  -6.337  32.381  0.00  0.00    -0.435 OA
ATOM     24  C   UNL     1       0.411  -6.731  33.685  0.00  0.00    +0.429 C 
ATOM     25  O   UNL     1       0.194  -8.131  33.439  0.00  0.00    -0.435 OA
ENDBRANCH   1  20
BRANCH   5  26
ATOM     26  N   UNL     1       2.967  -4.468  27.215  0.00  0.00    -0.159 N 
ATOM     27  N   UNL     1       4.177  -4.300  27.869  0.00  0.00    -0.175 NA
ATOM     28  C   UNL     1       5.304  -4.228  27.270  0.00  0.00    +0.092 C 
ATOM     29  C   UNL     1       5.405  -4.322  25.799  0.00  0.00    +0.058 C 
ATOM     30  C   UNL     1       4.119  -3.995  25.078  0.00  0.00    +0.094 C 
ATOM     31  C   UNL     1       2.960  -4.564  25.795  0.00  0.00    +0.249 C 
ATOM     32  O   UNL     1       1.996  -5.114  25.239  0.00  0.00    -0.273 OA
ENDBRANCH   5  26
BRANCH  12  33
ATOM     33  S   UNL     1      -5.847  -1.998  31.924  0.00  0.00    +0.079 S 
ATOM     34  O   UNL     1      -7.055  -2.221  31.068  0.00  0.00    -0.150 OA
ATOM     35  O   UNL     1      -5.928  -2.964  33.067  0.00  0.00    -0.150 OA
BRANCH  33  36
ATOM     36  N   UNL     1      -5.920  -0.393  32.597  0.00  0.00    -0.178 N 
ATOM     37  C   UNL     1      -7.200   0.141  32.846  0.00  0.00    +0.319 C 
ATOM     38  O   UNL     1      -8.232  -0.533  32.588  0.00  0.00    -0.264 OA
ATOM     39  H   UNL     1      -5.102   0.118  32.794  0.00  0.00    +0.177 HD
ENDBRANCH  33  36
ENDBRANCH  12  33
TORSDOF 4
ENDMDL
