REMARK  Name = =
REMARK  0 active torsions:
REMARK  status: ('A' for Active; 'I' for Inactive)
REMARK                            x       y       z     vdW  Elec       q    Type
REMARK                         _______ _______ _______ _____ _____    ______ ____
ROOT
ATOM      1  C   UNL     1      -3.501  -3.093  30.452  0.00  0.00    +0.109 C 
ATOM      2  N   UNL     1      -3.027  -2.961  31.622  0.00  0.00    -0.295 NA
ATOM      3  H   UNL     1      -3.634  -2.875  32.392  0.00  0.00    +0.187 HD
ENDROOT
TORSDOF 0
