REMARK  Name = =
REMARK  1 active torsions:
REMARK  status: ('A' for Active; 'I' for Inactive)
REMARK    1  A    between atoms: S_1  and  N_7
REMARK                            x       y       z     vdW  Elec       q    Type
REMARK                         _______ _______ _______ _____ _____    ______ ____
ROOT
ATOM      1  S   UNL     1      -2.052  -4.502  29.094  0.00  0.00    -0.078 S 
ATOM      2  C   UNL     1      -3.602  -4.431  30.145  0.00  0.00    +0.133 C 
ATOM      3  N   UNL     1      -3.824  -3.229  30.281  0.00  0.00    -0.235 NA
ATOM      4  C   UNL     1      -3.018  -2.273  29.723  0.00  0.00    +0.106 C 
ATOM      5  C   UNL     1      -1.989  -2.568  29.029  0.00  0.00    +0.056 C 
ATOM      6  H   UNL     1      -2.003  -5.212  27.935  0.00  0.00    +0.116 HD
ENDROOT
BRANCH   1   8
ATOM      7  C   UNL     1       0.316  -4.564  30.243  0.00  0.00    +0.127 C 
ATOM      8  N   UNL     1      -0.772  -5.155  30.017  0.00  0.00    -0.224 NA
ENDBRANCH   1   8
TORSDOF 1
