REMARK  Name = =
REMARK  2 active torsions:
REMARK  status: ('A' for Active; 'I' for Inactive)
REMARK    1  A    between atoms: C_1  and  S_11
REMARK    2  A    between atoms: S_11  and  N_17
REMARK                            x       y       z     vdW  Elec       q    Type
REMARK                         _______ _______ _______ _____ _____    ______ ____
ROOT
ATOM      1  C   UNL     1       2.491  -1.381  23.877  0.00  0.00    +0.038 C 
ATOM      2  C   UNL     1       1.186  -1.061  23.810  0.00  0.00    +0.103 C 
ATOM      3  N   UNL     1       0.641  -0.622  22.666  0.00  0.00    -0.227 NA
ATOM      4  C   UNL     1       1.412  -0.500  21.565  0.00  0.00    +0.151 C 
ATOM      5  N   UNL     1       0.885  -0.066  20.425  0.00  0.00    -0.173 NA
ATOM      6  C   UNL     1       1.622   0.067  19.314  0.00  0.00    +0.187 C 
ATOM      7  N   UNL     1       2.914  -0.243  19.352  0.00  0.00    -0.225 NA
ATOM      8  C   UNL     1       3.504  -0.686  20.474  0.00  0.00    +0.099 C 
ATOM      9  C   UNL     1       2.752  -0.820  21.603  0.00  0.00    +0.035 C 
ATOM     10  C   UNL     1       3.294  -1.269  22.790  0.00  0.00    +0.066 C 
ENDROOT
BRANCH   1  11
ATOM     11  S   UNL     1       3.223  -1.977  25.469  0.00  0.00    -0.040 S 
ATOM     12  C   UNL     1       2.151  -3.594  25.996  0.00  0.00    +0.140 C 
ATOM     13  N   UNL     1       1.535  -3.111  26.890  0.00  0.00    -0.234 NA
ATOM     14  C   UNL     1       1.573  -1.845  27.379  0.00  0.00    +0.107 C 
ATOM     15  C   UNL     1       2.376  -1.004  26.827  0.00  0.00    +0.063 C 
BRANCH  11  17
ATOM     16  C   UNL     1       5.747  -2.022  26.230  0.00  0.00    +0.127 C 
ATOM     17  N   UNL     1       4.710  -2.200  25.573  0.00  0.00    -0.217 NA
ENDBRANCH  11  17
ENDBRANCH   1  11
TORSDOF 2
