REMARK  Name = =
REMARK  3 active torsions:
REMARK  status: ('A' for Active; 'I' for Inactive)
REMARK    1  A    between atoms: S_1  and  C_6
REMARK    2  A    between atoms: S_1  and  N_25
REMARK    3  A    between atoms: C_5  and  N_16
REMARK                            x       y       z     vdW  Elec       q    Type
REMARK                         _______ _______ _______ _____ _____    ______ ____
ROOT
ATOM      1  S   UNL     1       0.355  -8.791  27.707  0.00  0.00    -0.050 S 
ATOM      2  C   UNL     1      -0.586  -9.037  29.240  0.00  0.00    +0.136 C 
ATOM      3  N   UNL     1      -0.169  -8.124  29.967  0.00  0.00    -0.233 NA
ATOM      4  C   UNL     1       0.778  -7.226  29.561  0.00  0.00    +0.121 C 
ATOM      5  C   UNL     1       1.252  -7.357  28.342  0.00  0.00    +0.111 C 
ENDROOT
BRANCH   1   6
ATOM      6  C   UNL     1       1.092 -10.102  26.975  0.00  0.00    +0.052 C 
ATOM      7  C   UNL     1       2.459 -10.215  26.870  0.00  0.00    +0.107 C 
ATOM      8  N   UNL     1       3.089 -11.249  26.291  0.00  0.00    -0.224 NA
ATOM      9  C   UNL     1       2.352 -12.266  25.766  0.00  0.00    +0.166 C 
ATOM     10  N   UNL     1       2.953 -13.318  25.178  0.00  0.00    -0.205 NA
ATOM     11  C   UNL     1       2.239 -14.321  24.659  0.00  0.00    +0.200 C 
ATOM     12  N   UNL     1       0.901 -14.279  24.725  0.00  0.00    -0.222 NA
ATOM     13  C   UNL     1       0.230 -13.269  25.293  0.00  0.00    +0.104 C 
ATOM     14  C   UNL     1       0.974 -12.235  25.827  0.00  0.00    +0.056 C 
ATOM     15  C   UNL     1       0.354 -11.143  26.437  0.00  0.00    +0.013 C 
ENDBRANCH   1   6
BRANCH   5  16
ATOM     16  N   UNL     1       2.214  -6.584  27.686  0.00  0.00    -0.199 N 
ATOM     17  C   UNL     1       3.604  -6.913  27.608  0.00  0.00    +0.253 C 
ATOM     18  O   UNL     1       3.977  -8.037  28.022  0.00  0.00    -0.273 OA
ATOM     19  C   UNL     1       4.530  -5.898  27.040  0.00  0.00    +0.175 C 
ATOM     20  N   UNL     1       3.930  -5.390  25.836  0.00  0.00    -0.199 NA
ATOM     21  C   UNL     1       2.701  -4.687  26.041  0.00  0.00    +0.175 C 
ATOM     22  C   UNL     1       1.814  -5.380  27.041  0.00  0.00    +0.253 C 
ATOM     23  O   UNL     1       0.702  -4.842  27.278  0.00  0.00    -0.273 OA
ENDBRANCH   5  16
BRANCH   1  25
ATOM     24  C   UNL     1      -1.982  -8.716  26.482  0.00  0.00    +0.121 C 
ATOM     25  N   UNL     1      -0.973  -7.964  26.521  0.00  0.00    -0.165 NA
ENDBRANCH   1  25
TORSDOF 3
