REMARK  Name = =
REMARK  4 active torsions:
REMARK  status: ('A' for Active; 'I' for Inactive)
REMARK    1  A    between atoms: S_1  and  C_6
REMARK    2  A    between atoms: S_1  and  N_25
REMARK    3  A    between atoms: C_5  and  N_16
REMARK    4  A    between atoms: C_24  and  C_27
REMARK                            x       y       z     vdW  Elec       q    Type
REMARK                         _______ _______ _______ _____ _____    ______ ____
ROOT
ATOM      1  S   UNL     1       0.953  -1.321  21.689  0.00  0.00    -0.027 S 
ATOM      2  C   UNL     1       1.731  -2.998  21.069  0.00  0.00    +0.141 C 
ATOM      3  N   UNL     1       2.478  -2.536  20.226  0.00  0.00    -0.233 NA
ATOM      4  C   UNL     1       2.624  -1.227  19.907  0.00  0.00    +0.122 C 
ATOM      5  C   UNL     1       1.894  -0.353  20.562  0.00  0.00    +0.116 C 
ENDROOT
BRANCH   1   6
ATOM      6  C   UNL     1       1.460  -1.141  23.437  0.00  0.00    +0.039 C 
ATOM      7  C   UNL     1       1.590   0.081  23.931  0.00  0.00    +0.103 C 
ATOM      8  N   UNL     1       1.952   0.212  25.252  0.00  0.00    -0.227 NA
ATOM      9  C   UNL     1       2.171  -0.847  26.033  0.00  0.00    +0.151 C 
ATOM     10  N   UNL     1       2.525  -0.744  27.328  0.00  0.00    -0.173 NA
ATOM     11  C   UNL     1       2.734  -1.864  28.070  0.00  0.00    +0.187 C 
ATOM     12  N   UNL     1       2.599  -3.099  27.556  0.00  0.00    -0.225 NA
ATOM     13  C   UNL     1       2.246  -3.260  26.264  0.00  0.00    +0.099 C 
ATOM     14  C   UNL     1       2.034  -2.122  25.513  0.00  0.00    +0.035 C 
ATOM     15  C   UNL     1       1.674  -2.261  24.196  0.00  0.00    +0.066 C 
ENDBRANCH   1   6
BRANCH   5  16
ATOM     16  N   UNL     1       1.889   1.036  20.353  0.00  0.00    -0.198 N 
ATOM     17  C   UNL     1       2.850   1.946  20.886  0.00  0.00    +0.253 C 
ATOM     18  O   UNL     1       3.660   1.574  21.720  0.00  0.00    -0.273 OA
ATOM     19  C   UNL     1       2.814   3.326  20.390  0.00  0.00    +0.175 C 
ATOM     20  N   UNL     1       1.463   3.807  20.539  0.00  0.00    -0.199 NA
ATOM     21  C   UNL     1       0.479   3.078  19.820  0.00  0.00    +0.175 C 
ATOM     22  C   UNL     1       0.886   1.678  19.534  0.00  0.00    +0.253 C 
ATOM     23  O   UNL     1       0.353   1.069  18.577  0.00  0.00    -0.273 OA
ENDBRANCH   5  16
BRANCH   1  25
ATOM     24  C   UNL     1      -1.521  -1.519  22.450  0.00  0.00    +0.109 C 
ATOM     25  N   UNL     1      -0.764  -1.438  21.437  0.00  0.00    -0.218 NA
BRANCH  24  27
ATOM     26  C   UNL     1      -3.575  -2.775  22.064  0.00  0.00    +0.047 C 
ATOM     27  C   UNL     1      -2.991  -1.622  22.333  0.00  0.00    +0.062 C 
ATOM     28  C   UNL     1      -3.796  -0.412  22.520  0.00  0.00    +0.197 C 
ATOM     29  O   UNL     1      -3.259   0.706  22.779  0.00  0.00    -0.287 OA
ATOM     30  C   UNL     1      -5.254  -0.474  22.413  0.00  0.00    +0.045 C 
ATOM     31  C   UNL     1      -5.821  -1.628  22.145  0.00  0.00    +0.045 C 
ATOM     32  C   UNL     1      -5.029  -2.829  21.958  0.00  0.00    +0.196 C 
ATOM     33  O   UNL     1      -5.604  -3.907  21.705  0.00  0.00    -0.287 OA
ENDBRANCH  24  27
ENDBRANCH   1  25
TORSDOF 4
