REMARK  Name = =
REMARK  6 active torsions:
REMARK  status: ('A' for Active; 'I' for Inactive)
REMARK    1  A    between atoms: S_1  and  C_6
REMARK    2  A    between atoms: S_1  and  C_24
REMARK    3  A    between atoms: S_1  and  N_31
REMARK    4  A    between atoms: C_5  and  N_16
REMARK    5  A    between atoms: C_30  and  N_31
REMARK    6  A    between atoms: C_30  and  C_33
REMARK                            x       y       z     vdW  Elec       q    Type
REMARK                         _______ _______ _______ _____ _____    ______ ____
ROOT
ATOM      1  S   UNL     1       0.352  -1.774  20.764  0.00  0.00    -0.117 S 
ATOM      2  C   UNL     1      -0.448  -3.303  20.974  0.00  0.00    +0.120 C 
ATOM      3  N   UNL     1      -1.556  -3.644  21.037  0.00  0.00    -0.235 NA
ATOM      4  C   UNL     1      -2.320  -2.580  20.906  0.00  0.00    +0.120 C 
ATOM      5  C   UNL     1      -1.560  -1.623  20.763  0.00  0.00    +0.097 C 
ATOM      6  H   UNL     1       1.307  -2.403  21.499  0.00  0.00    +0.101 HD
ENDROOT
BRANCH   1   7
ATOM      7  C   UNL     1       0.896   0.009  20.380  0.00  0.00    +0.019 C 
ATOM      8  C   UNL     1       1.604   0.806  21.212  0.00  0.00    +0.102 C 
ATOM      9  N   UNL     1       2.069   2.063  20.896  0.00  0.00    -0.225 NA
ATOM     10  C   UNL     1       1.781   2.479  19.685  0.00  0.00    +0.161 C 
ATOM     11  N   UNL     1       2.219   3.703  19.339  0.00  0.00    -0.207 NA
ATOM     12  C   UNL     1       1.967   4.220  18.097  0.00  0.00    +0.187 C 
ATOM     13  N   UNL     1       1.264   3.510  17.176  0.00  0.00    -0.191 NA
ATOM     14  C   UNL     1       0.799   2.262  17.483  0.00  0.00    +0.087 C 
ATOM     15  C   UNL     1       1.096   1.838  18.729  0.00  0.00    +0.035 C 
ATOM     16  C   UNL     1       0.672   0.572  19.155  0.00  0.00    +0.064 C 
ENDBRANCH   1   7
BRANCH   5  17
ATOM     17  N   UNL     1      -2.389  -0.417  20.635  0.00  0.00    -0.200 N 
ATOM     18  C   UNL     1      -2.547   0.360  21.811  0.00  0.00    +0.253 C 
ATOM     19  O   UNL     1      -2.256  -0.067  22.952  0.00  0.00    -0.273 OA
ATOM     20  C   UNL     1      -3.085   1.769  21.737  0.00  0.00    +0.175 C 
ATOM     21  N   UNL     1      -3.979   1.949  20.641  0.00  0.00    -0.199 NA
ATOM     22  C   UNL     1      -3.497   1.397  19.376  0.00  0.00    +0.175 C 
ATOM     23  C   UNL     1      -3.130  -0.026  19.528  0.00  0.00    +0.253 C 
ATOM     24  O   UNL     1      -3.467  -0.885  18.694  0.00  0.00    -0.273 OA
ENDBRANCH   5  17
BRANCH   1  25
ATOM     25  C   UNL     1       1.431  -2.482  19.440  0.00  0.00    +0.015 C 
ATOM     26  C   UNL     1       2.652  -2.685  19.394  0.00  0.00    +0.120 C 
ATOM     27  N   UNL     1       3.434  -3.253  18.304  0.00  0.00    -0.328 N 
ATOM     28  C   UNL     1       2.727  -3.632  17.151  0.00  0.00    +0.058 C 
ATOM     29  C   UNL     1       1.440  -3.452  17.136  0.00  0.00    +0.016 C 
ATOM     30  C   UNL     1       0.675  -2.897  18.189  0.00  0.00    +0.004 C 
ATOM     31  H   UNL     1       4.410  -3.366  18.372  0.00  0.00    +0.147 HD
ENDBRANCH   1  25
BRANCH   1  32
ATOM     32  N   UNL     1       1.377  -2.266  22.558  0.00  0.00    -0.178 NA
BRANCH  32  33
ATOM     33  C   UNL     1       2.588  -2.027  22.423  0.00  0.00    +0.129 C 
BRANCH  33  35
ATOM     34  C   UNL     1       4.343  -1.561  23.949  0.00  0.00    +0.042 C 
ATOM     35  C   UNL     1       3.347  -2.344  23.617  0.00  0.00    +0.038 C 
ATOM     36  C   UNL     1       3.061  -3.489  24.472  0.00  0.00    +0.193 C 
ATOM     37  O   UNL     1       2.112  -4.247  24.171  0.00  0.00    -0.287 OA
ATOM     38  C   UNL     1       3.844  -3.769  25.659  0.00  0.00    +0.045 C 
ATOM     39  C   UNL     1       4.858  -2.938  25.960  0.00  0.00    +0.045 C 
ATOM     40  C   UNL     1       5.166  -1.788  25.124  0.00  0.00    +0.196 C 
ATOM     41  O   UNL     1       6.109  -0.995  25.386  0.00  0.00    -0.287 OA
ENDBRANCH  33  35
ENDBRANCH  32  33
ENDBRANCH   1  32
TORSDOF 6
