MODEL 1
REMARK VINA RESULT:   -12.692      0.000      0.000
REMARK INTER + INTRA:         -18.242
REMARK INTER:                 -16.401
REMARK INTRA:                  -1.841
REMARK UNBOUND:                -1.841
REMARK  Name = =
REMARK  5 active torsions:
REMARK  status: ('A' for Active; 'I' for Inactive)
REMARK    1  A    between atoms: C_1  and  C_31
REMARK    2  A    between atoms: C_2  and  N_21
REMARK    3  A    between atoms: C_7  and  C_12
REMARK    4  A    between atoms: C_30  and  N_42
REMARK    5  A    between atoms: C_33  and  C_36
REMARK                            x       y       z     vdW  Elec       q    Type
REMARK                         _______ _______ _______ _____ _____    ______ ____
ROOT
ATOM      1  C   UNL     1     -19.954 -40.516  23.868  0.00  0.00    +0.091 A 
ATOM      2  C   UNL     1     -19.233 -41.297  24.744  0.00  0.00    +0.066 A 
ATOM      3  C   UNL     1     -17.874 -41.478  24.454  0.00  0.00    +0.049 A 
ATOM      4  C   UNL     1     -17.377 -40.865  23.332  0.00  0.00    +0.150 A 
ATOM      5  C   UNL     1     -16.025 -41.048  23.046  0.00  0.00    +0.038 C 
ATOM      6  C   UNL     1     -15.262 -41.820  23.884  0.00  0.00    +0.003 C 
ATOM      7  C   UNL     1     -15.770 -42.437  25.015  0.00  0.00    +0.001 C 
ATOM      8  C   UNL     1     -17.108 -42.252  25.291  0.00  0.00    +0.004 C 
ATOM      9  O   UNL     1     -18.118 -40.125  22.528  0.00  0.00    -0.421 OA
ATOM     10  C   UNL     1     -19.383 -39.921  22.741  0.00  0.00    +0.347 A 
ATOM     11  O   UNL     1     -20.100 -39.207  21.959  0.00  0.00    -0.244 OA
ENDROOT
BRANCH   7  12
ATOM     12  C   UNL     1     -14.907 -43.242  25.860  0.00  0.00    +0.015 C 
ATOM     13  C   UNL     1     -14.907 -43.122  27.231  0.00  0.00    +0.071 C 
ATOM     14  N   UNL     1     -14.094 -43.880  28.003  0.00  0.00    -0.247 N 
ATOM     15  C   UNL     1     -13.252 -44.783  27.478  0.00  0.00    +0.139 C 
ATOM     16  N   UNL     1     -12.564 -45.395  28.457  0.00  0.00    -0.227 NA
ATOM     17  C   UNL     1     -12.961 -44.887  29.654  0.00  0.00    +0.117 C 
ATOM     18  C   UNL     1     -13.916 -43.943  29.353  0.00  0.00    +0.092 C 
ATOM     19  C   UNL     1     -13.225 -44.930  26.101  0.00  0.00    +0.035 C 
ATOM     20  C   UNL     1     -14.059 -44.155  25.287  0.00  0.00    +0.004 C 
ENDBRANCH   7  12
BRANCH   2  21
ATOM     21  N   UNL     1     -19.803 -41.891  25.885  0.00  0.00    -0.247 N 
ATOM     22  C   UNL     1     -19.696 -41.470  27.161  0.00  0.00    +0.172 C 
ATOM     23  N   UNL     1     -20.365 -42.281  27.972  0.00  0.00    -0.226 NA
ATOM     24  C   UNL     1     -20.932 -43.264  27.221  0.00  0.00    +0.097 C 
ATOM     25  C   UNL     1     -20.561 -42.991  25.914  0.00  0.00    +0.075 C 
ATOM     26  C   UNL     1     -21.044 -43.889  24.965  0.00  0.00    +0.017 C 
ATOM     27  C   UNL     1     -21.827 -44.959  25.323  0.00  0.00    +0.001 C 
ATOM     28  C   UNL     1     -22.173 -45.196  26.627  0.00  0.00    +0.002 C 
ATOM     29  C   UNL     1     -21.713 -44.329  27.590  0.00  0.00    +0.020 C 
ENDBRANCH   2  21
BRANCH   1  31
ATOM     30  C   UNL     1     -22.271 -40.808  23.155  0.00  0.00    +0.048 C 
ATOM     31  C   UNL     1     -21.375 -40.305  24.045  0.00  0.00    +0.021 C 
ATOM     32  C   UNL     1     -21.851 -39.574  25.145  0.00  0.00    +0.001 C 
ATOM     33  C   UNL     1     -23.174 -39.333  25.377  0.00  0.00    +0.000 C 
ATOM     34  C   UNL     1     -24.075 -39.844  24.473  0.00  0.00    +0.001 C 
ATOM     35  C   UNL     1     -23.642 -40.566  23.383  0.00  0.00    +0.015 C 
BRANCH  33  36
ATOM     36  C   UNL     1     -23.633 -38.563  26.556  0.00  0.00    +0.000 C 
ATOM     37  C   UNL     1     -23.956 -39.259  27.696  0.00  0.00    +0.000 C 
ATOM     38  C   UNL     1     -24.390 -38.583  28.809  0.00  0.00    +0.000 C 
ATOM     39  C   UNL     1     -24.515 -37.209  28.826  0.00  0.00    +0.000 C 
ATOM     40  C   UNL     1     -24.180 -36.546  27.660  0.00  0.00    +0.000 C 
ATOM     41  C   UNL     1     -23.746 -37.210  26.539  0.00  0.00    +0.000 C 
ENDBRANCH  33  36
BRANCH  30  42
ATOM     42  N   UNL     1     -22.007 -41.580  22.003  0.00  0.00    -0.307 N 
ATOM     43  C   UNL     1     -21.371 -42.861  21.814  0.00  0.00    +0.091 C 
ATOM     44  C   UNL     1     -20.662 -42.656  20.484  0.00  0.00    +0.023 C 
ATOM     45  C   UNL     1     -21.756 -42.006  19.672  0.00  0.00    +0.023 C 
ATOM     46  C   UNL     1     -22.434 -41.114  20.674  0.00  0.00    +0.091 C 
ENDBRANCH  30  42
ENDBRANCH   1  31
TORSDOF 5
ENDMDL
