@<TRIPOS>MOLECULE
out_folder/2g94/2g94_lig.pdb
 99 99 0 0 0
SMALL
GASTEIGER

@<TRIPOS>ATOM
      1  C11        1.9840   -5.6010   34.5190 C.ar  1001  ZPQ1001    -0.0182
      2  C12        2.8960   -4.4190   34.3400 C.ar  1001  ZPQ1001     0.0603
      3  N11        3.1050   -4.3720   32.7670 N.ar  1001  ZPQ1001    -0.1733
      4  N12        2.3600   -5.4370   32.2460 N.ar  1001  ZPQ1001    -0.2321
      5  C13        1.6920   -6.1680   33.3200 C.ar  1001  ZPQ1001     0.0400
      6  C14        3.5180   -3.4650   35.2730 C.3   1001  ZPQ1001    -0.0206
      7  C15        2.2360   -5.8200   30.8060 C.3   1001  ZPQ1001     0.1869
      8  O11        0.9210   -5.6910   30.2630 O.3   1001  ZPQ1001    -0.4274
      9  C16        0.3730   -4.4380   30.1400 C.2   1001  ZPQ1001     0.4026
     10  C17        0.8010   -7.3800   33.1860 C.3   1001  ZPQ1001    -0.0225
     11  O12        0.9980   -3.3940   30.3070 O.2   1001  ZPQ1001    -0.2264
     12  N2        -0.9370   -4.4500   29.8110 N.am  1001  ZPQ1001    -0.2682
     13  C21       -1.8500   -3.3340   29.6050 C.3   1001  ZPQ1001     0.1216
     14  C22       -2.0480   -3.1530   28.0760 C.3   1001  ZPQ1001     0.0924
     15  S2        -0.8900   -2.0900   27.2550 S.O2  1001  ZPQ1001    -0.0316
     16  O22       -1.5140   -1.6570   26.0290 O.2   1001  ZPQ1001    -0.1745
     17  O23       -0.4950   -1.0130   28.1650 O.2   1001  ZPQ1001    -0.1745
     18  C23        0.4660   -3.1910   26.9130 C.3   1001  ZPQ1001     0.0545
     19  C25       -3.1140   -3.7990   30.2500 C.2   1001  ZPQ1001     0.2354
     20  O2        -4.1370   -4.0120   29.6070 O.2   1001  ZPQ1001    -0.2737
     21  N3        -3.0360   -3.9860   31.6190 N.am  1001  ZPQ1001    -0.3084
     22  C31       -4.2220   -4.4770   32.3760 C.3   1001  ZPQ1001     0.0493
     23  C32       -4.9840   -3.3880   33.1830 C.3   1001  ZPQ1001     0.0742
     24  C33       -3.7950   -5.6640   33.3040 C.3   1001  ZPQ1001    -0.0298
     25  C34       -3.2620   -6.9030   32.5090 C.3   1001  ZPQ1001    -0.0450
     26  C35       -4.3290   -7.5100   31.5750 C.3   1001  ZPQ1001    -0.0626
     27  C36       -2.8050   -7.9870   33.5000 C.3   1001  ZPQ1001    -0.0626
     28  C37       -5.3600   -2.1940   32.2830 C.3   1001  ZPQ1001    -0.0143
     29  C38       -6.6620   -1.5430   32.7540 C.3   1001  ZPQ1001     0.0351
     30  C39       -6.7260   -0.1000   32.2390 C.3   1001  ZPQ1001    -0.0540
     31  C30       -7.8780   -2.2990   32.2090 C.2   1001  ZPQ1001     0.2165
     32  O31       -4.1550   -2.8940   34.2330 O.3   1001  ZPQ1001    -0.3899
     33  O32       -7.9100   -2.7650   31.0800 O.2   1001  ZPQ1001    -0.2755
     34  N4        -8.9360   -2.3980   33.0750 N.am  1001  ZPQ1001    -0.3035
     35  C41      -10.1770   -3.0790   32.6600 C.3   1001  ZPQ1001     0.1016
     36  C42      -11.0690   -3.4600   33.8710 C.3   1001  ZPQ1001    -0.0197
     37  C43      -12.2430   -4.3610   33.4340 C.3   1001  ZPQ1001    -0.0605
     38  C44      -11.6220   -2.2120   34.5570 C.3   1001  ZPQ1001    -0.0605
     39  C45      -10.8820   -2.1360   31.6360 C.2   1001  ZPQ1001     0.2336
     40  O4       -10.7850   -0.9330   31.7260 O.2   1001  ZPQ1001    -0.2738
     41  N5       -11.6110   -2.7780   30.6420 N.am  1001  ZPQ1001    -0.3135
     42  C51      -12.3520   -2.0350   29.5950 C.3   1001  ZPQ1001     0.0140
     43  C52      -11.6910   -2.1750   28.1840 C.3   1001  ZPQ1001    -0.0311
     44  C53      -10.3120   -1.5090   28.1490 C.3   1001  ZPQ1001    -0.0612
     45  C54      -11.5290   -3.6470   27.8150 C.3   1001  ZPQ1001    -0.0612
     46 H           1.6287   -5.9355   35.4283 H     1001  ZPQ1001     0.0654
     47 H           4.1077   -2.7615   34.7233 H     1001  ZPQ1001     0.0293
     48 H           4.1438   -3.9949   35.9604 H     1001  ZPQ1001     0.0293
     49 H           2.7546   -2.9453   35.8134 H     1001  ZPQ1001     0.0293
     50 H           2.8935   -5.1958   30.2377 H     1001  ZPQ1001     0.0959
     51 H           2.4853   -6.8589   30.7481 H     1001  ZPQ1001     0.0959
     52 H           0.7149   -7.6470   32.1534 H     1001  ZPQ1001     0.0292
     53 H          -0.1687   -7.1549   33.5782 H     1001  ZPQ1001     0.0292
     54 H           1.2255   -8.1968   33.7314 H     1001  ZPQ1001     0.0292
     55 H          -1.3325   -5.3438   29.6932 H     1001  ZPQ1001     0.1528
     56 H          -1.5128   -2.4005   30.0048 H     1001  ZPQ1001     0.0612
     57 H          -1.9821   -4.1196   27.6219 H     1001  ZPQ1001     0.0523
     58 H          -3.0002   -2.6775   27.9656 H     1001  ZPQ1001     0.0523
     59 H           0.1399   -3.9623   26.2469 H     1001  ZPQ1001     0.0464
     60 H           0.8081   -3.6301   27.8268 H     1001  ZPQ1001     0.0464
     61 H           1.2651   -2.6426   26.4597 H     1001  ZPQ1001     0.0464
     62 H          -2.1952   -3.7942   32.0938 H     1001  ZPQ1001     0.1491
     63 H          -4.9261   -4.8079   31.6414 H     1001  ZPQ1001     0.0524
     64 H          -5.8713   -3.8389   33.5759 H     1001  ZPQ1001     0.0612
     65 H          -4.6437   -5.9683   33.8802 H     1001  ZPQ1001     0.0286
     66 H          -2.9957   -5.3138   33.9231 H     1001  ZPQ1001     0.0286
     67 H          -2.4478   -6.5631   31.9036 H     1001  ZPQ1001     0.0296
     68 H          -5.1562   -7.8584   32.1574 H     1001  ZPQ1001     0.0232
     69 H          -3.9043   -8.3290   31.0330 H     1001  ZPQ1001     0.0232
     70 H          -4.6667   -6.7636   30.8866 H     1001  ZPQ1001     0.0232
     71 H          -3.6391   -8.3058   34.0895 H     1001  ZPQ1001     0.0232
     72 H          -2.0471   -7.5875   34.1410 H     1001  ZPQ1001     0.0232
     73 H          -2.4109   -8.8217   32.9588 H     1001  ZPQ1001     0.0232
     74 H          -4.5738   -1.4689   32.3166 H     1001  ZPQ1001     0.0298
     75 H          -5.4982   -2.5499   31.2834 H     1001  ZPQ1001     0.0298
     76 H          -6.6786   -1.5666   33.8236 H     1001  ZPQ1001     0.0392
     77 H          -6.7081   -0.1020   31.1692 H     1001  ZPQ1001     0.0237
     78 H          -5.8849    0.4483   32.6088 H     1001  ZPQ1001     0.0237
     79 H          -7.6297    0.3605   32.5797 H     1001  ZPQ1001     0.0237
     80 H          -3.3586   -2.4907   33.8536 H     1001  ZPQ1001     0.2099
     81 H          -8.8673   -2.0127   33.9784 H     1001  ZPQ1001     0.1495
     82 H          -9.9645   -4.0191   32.1953 H     1001  ZPQ1001     0.0597
     83 H         -10.4534   -3.9977   34.5616 H     1001  ZPQ1001     0.0318
     84 H         -12.8628   -3.8290   32.7429 H     1001  ZPQ1001     0.0233
     85 H         -12.8201   -4.6361   34.2920 H     1001  ZPQ1001     0.0233
     86 H         -11.8602   -5.2427   32.9640 H     1001  ZPQ1001     0.0233
     87 H         -12.2385   -1.6709   33.8699 H     1001  ZPQ1001     0.0233
     88 H         -10.8109   -1.5904   34.8743 H     1001  ZPQ1001     0.0233
     89 H         -12.2039   -2.5006   35.4073 H     1001  ZPQ1001     0.0233
     90 H         -11.6362   -3.7621   30.6329 H     1001  ZPQ1001     0.1487
     91 H         -13.3510   -2.4150   29.5458 H     1001  ZPQ1001     0.0464
     92 H         -12.3397   -0.9984   29.8598 H     1001  ZPQ1001     0.0464
     93 H         -12.3351   -1.6894   27.4810 H     1001  ZPQ1001     0.0311
     94 H          -9.6647   -1.9920   28.8509 H     1001  ZPQ1001     0.0233
     95 H         -10.4087   -0.4749   28.4061 H     1001  ZPQ1001     0.0233
     96 H          -9.8993   -1.5949   27.1656 H     1001  ZPQ1001     0.0233
     97 H         -10.8838   -4.1233   28.5233 H     1001  ZPQ1001     0.0233
     98 H         -11.1034   -3.7246   26.8364 H     1001  ZPQ1001     0.0233
     99 H         -12.4862   -4.1251   27.8266 H     1001  ZPQ1001     0.0233
@<TRIPOS>BOND
     1    16    15    2
     2    18    15    1
     3    15    14    1
     4    15    17    2
     5    45    43    1
     6    14    13    1
     7    44    43    1
     8    43    42    1
     9    42    41    1
    10    13    12    1
    11    13    19    1
    12    20    19    2
    13    12     9   am
    14     9     8    1
    15     9    11    2
    16    19    21   am
    17     8     7    1
    18    41    39   am
    19     7     4    1
    20    33    31    2
    21    26    25    1
    22    21    22    1
    23    39    40    2
    24    39    35    1
    25    31    29    1
    26    31    34   am
    27    30    29    1
    28     4     3   ar
    29     4     5   ar
    30    28    29    1
    31    28    23    1
    32    22    23    1
    33    22    24    1
    34    25    24    1
    35    25    27    1
    36    35    34    1
    37    35    36    1
    38     3     2   ar
    39    23    32    1
    40    10     5    1
    41     5     1   ar
    42    37    36    1
    43    36    38    1
    44     2     1   ar
    45     2     6    1
    46     1    46    1
    47     6    47    1
    48     6    48    1
    49     6    49    1
    50     7    50    1
    51     7    51    1
    52    10    52    1
    53    10    53    1
    54    10    54    1
    55    12    55    1
    56    13    56    1
    57    14    57    1
    58    14    58    1
    59    18    59    1
    60    18    60    1
    61    18    61    1
    62    21    62    1
    63    22    63    1
    64    23    64    1
    65    24    65    1
    66    24    66    1
    67    25    67    1
    68    26    68    1
    69    26    69    1
    70    26    70    1
    71    27    71    1
    72    27    72    1
    73    27    73    1
    74    28    74    1
    75    28    75    1
    76    29    76    1
    77    30    77    1
    78    30    78    1
    79    30    79    1
    80    32    80    1
    81    34    81    1
    82    35    82    1
    83    36    83    1
    84    37    84    1
    85    37    85    1
    86    37    86    1
    87    38    87    1
    88    38    88    1
    89    38    89    1
    90    41    90    1
    91    42    91    1
    92    42    92    1
    93    43    93    1
    94    44    94    1
    95    44    95    1
    96    44    96    1
    97    45    97    1
    98    45    98    1
    99    45    99    1
