MODEL 1
REMARK VINA RESULT:   -10.111      0.000      0.000
REMARK INTER + INTRA:         -14.464
REMARK INTER:                 -14.248
REMARK INTRA:                  -0.215
REMARK UNBOUND:                -0.215
REMARK  Name = =
REMARK  8 active torsions:
REMARK  status: ('A' for Active; 'I' for Inactive)
REMARK    1  A    between atoms: C_1  and  N_18
REMARK    2  A    between atoms: C_7  and  S_24
REMARK    3  A    between atoms: C_8  and  C_27
REMARK    4  A    between atoms: C_13  and  O_33
REMARK    5  A    between atoms: N_21  and  C_22
REMARK    6  A    between atoms: N_28  and  O_29
REMARK    7  A    between atoms: O_29  and  C_30
REMARK    8  A    between atoms: O_33  and  S_34
REMARK                            x       y       z     vdW  Elec       q    Type
REMARK                         _______ _______ _______ _____ _____    ______ ____
ROOT
ATOM      1  C   UNL     1      -1.591  -6.816  31.758  0.00  0.00    +0.110 C 
ATOM      2  C   UNL     1      -0.572  -6.218  30.860  0.00  0.00    +0.024 C 
ATOM      3  C   UNL     1      -0.933  -4.848  30.445  0.00  0.00    +0.002 C 
ATOM      4  C   UNL     1      -1.705  -4.787  29.116  0.00  0.00    +0.005 C 
ATOM      5  C   UNL     1      -0.961  -5.632  28.086  0.00  0.00    +0.023 C 
ATOM      6  C   UNL     1       0.465  -5.219  28.250  0.00  0.00    -0.031 C 
ATOM      7  C   UNL     1       0.707  -3.950  27.942  0.00  0.00    +0.077 C 
ATOM      8  C   UNL     1      -0.534  -3.180  27.535  0.00  0.00    +0.083 C 
ATOM      9  C   UNL     1      -1.565  -3.323  28.642  0.00  0.00    +0.012 C 
ATOM     10  C   UNL     1       1.763  -5.742  28.696  0.00  0.00    +0.023 C 
ATOM     11  C   UNL     1       1.438  -6.965  29.570  0.00  0.00    +0.007 C 
ATOM     12  C   UNL     1       0.811  -6.537  30.904  0.00  0.00    +0.032 C 
ATOM     13  C   UNL     1       1.310  -7.508  31.914  0.00  0.00    +0.148 C 
ATOM     14  C   UNL     1       0.325  -7.810  33.031  0.00  0.00    +0.063 C 
ATOM     15  C   UNL     1      -1.008  -8.054  32.467  0.00  0.00    +0.139 C 
ATOM     16  O   UNL     1      -1.159  -8.727  31.287  0.00  0.00    -0.353 OA
ATOM     17  C   UNL     1      -2.354  -7.937  31.131  0.00  0.00    +0.160 C 
ENDROOT
BRANCH   1  18
ATOM     18  N   UNL     1      -2.124  -5.969  32.713  0.00  0.00    -0.287 N 
ATOM     19  C   UNL     1      -3.470  -5.321  32.628  0.00  0.00    +0.303 C 
ATOM     20  O   UNL     1      -4.080  -5.593  31.636  0.00  0.00    -0.253 OA
ATOM     21  N   UNL     1      -3.631  -4.558  33.744  0.00  0.00    -0.261 N 
ATOM     22  H   UNL     1      -1.576  -5.778  33.509  0.00  0.00    +0.151 HD
ATOM     23  H   UNL     1      -3.100  -4.498  34.570  0.00  0.00    +0.153 HD
BRANCH  21  24
ATOM     24  C   UNL     1      -5.081  -3.719  33.240  0.00  0.00    +0.278 C 
ATOM     25  O   UNL     1      -5.473  -2.962  34.005  0.00  0.00    -0.196 OA
ENDBRANCH  21  24
ENDBRANCH   1  18
BRANCH   7  26
ATOM     26  S   UNL     1       2.263  -3.208  27.995  0.00  0.00    -0.016 S 
ATOM     27  O   UNL     1       2.763  -2.721  26.665  0.00  0.00    -0.172 OA
ATOM     28  O   UNL     1       2.172  -1.974  28.888  0.00  0.00    -0.172 OA
ATOM     29  H   UNL     1       3.118  -4.164  28.445  0.00  0.00    +0.215 HD
ENDBRANCH   7  26
BRANCH   8  30
ATOM     30  C   UNL     1      -0.177  -1.750  27.411  0.00  0.00    +0.120 C 
ATOM     31  N   UNL     1      -0.031  -1.082  26.345  0.00  0.00    -0.075 NA
BRANCH  31  32
ATOM     32  O   UNL     1      -0.158  -1.498  25.101  0.00  0.00    -0.299 OA
BRANCH  32  33
ATOM     33  C   UNL     1       0.696  -1.470  24.064  0.00  0.00    +0.423 C 
ATOM     34  O   UNL     1       0.244  -1.842  22.924  0.00  0.00    -0.224 OA
ATOM     35  N   UNL     1       2.045  -1.060  24.144  0.00  0.00    -0.293 N 
ATOM     36  H   UNL     1       2.421  -0.769  25.005  0.00  0.00    +0.148 HD
ATOM     37  H   UNL     1       2.610  -1.066  23.337  0.00  0.00    +0.148 HD
ENDBRANCH  32  33
ENDBRANCH  31  32
ENDBRANCH   8  30
BRANCH  13  38
ATOM     38  O   UNL     1       2.499  -7.043  32.420  0.00  0.00    -0.220 OA
BRANCH  38  39
ATOM     39  S   UNL     1       2.438  -5.539  33.138  0.00  0.00    +0.142 S 
ATOM     40  O   UNL     1       1.673  -5.577  34.448  0.00  0.00    -0.041 OA
ATOM     41  O   UNL     1       3.861  -5.150  33.491  0.00  0.00    -0.041 OA
ATOM     42  F   UNL     1       1.861  -4.373  32.121  0.00  0.00    -0.056 F 
ENDBRANCH  38  39
ENDBRANCH  13  38
TORSDOF 8
ENDMDL
