REMARK  Name = =
REMARK  0 active torsions:
REMARK  status: ('A' for Active; 'I' for Inactive)
REMARK                            x       y       z     vdW  Elec       q    Type
REMARK                         _______ _______ _______ _____ _____    ______ ____
ROOT
ATOM      1  N   UNL     1      52.393 156.108  28.377  0.00  0.00    -0.297 NA
ATOM      2  C   UNL     1      52.122 154.710  28.598  0.00  0.00    +0.069 C 
ATOM      3  C   UNL     1      51.894 154.134  27.226  0.00  0.00    +0.019 C 
ATOM      4  C   UNL     1      52.868 154.929  26.370  0.00  0.00    +0.019 C 
ATOM      5  C   UNL     1      52.814 156.278  27.025  0.00  0.00    +0.069 C 
ATOM      6  H   UNL     1      53.130 156.420  29.009  0.00  0.00    +0.123 HD
ENDROOT
TORSDOF 0
