REMARK  Name = =
REMARK  3 active torsions:
REMARK  status: ('A' for Active; 'I' for Inactive)
REMARK    1  A    between atoms: C_2  and  N_15
REMARK    2  A    between atoms: C_4  and  C_12
REMARK    3  A    between atoms: C_6  and  C_9
REMARK                            x       y       z     vdW  Elec       q    Type
REMARK                         _______ _______ _______ _____ _____    ______ ____
ROOT
ATOM      1  C   UNL     1      51.449 160.376  31.567  0.00  0.00    +0.020 C 
ATOM      2  C   UNL     1      51.062 159.189  30.970  0.00  0.00    +0.056 C 
ATOM      3  C   UNL     1      49.708 159.026  30.710  0.00  0.00    +0.048 C 
ATOM      4  C   UNL     1      48.773 159.972  31.017  0.00  0.00    +0.065 C 
ATOM      5  C   UNL     1      49.179 161.144  31.610  0.00  0.00    +0.039 C 
ATOM      6  C   UNL     1      50.533 161.365  31.897  0.00  0.00    +0.060 C 
ATOM      7  I   UNL     1      47.792 162.645  32.109  0.00  0.00    -0.042 I 
ATOM      8  I   UNL     1      49.104 157.235  29.807  0.00  0.00    -0.041 I 
ENDROOT
BRANCH   6   9
ATOM      9  C   UNL     1      50.899 162.609  32.546  0.00  0.00    +0.243 C 
ATOM     10  O   UNL     1      50.521 162.829  33.710  0.00  0.00    -0.270 OA
ATOM     11  N   UNL     1      51.678 163.574  31.882  0.00  0.00    -0.325 N 
ATOM     12  H   UNL     1      51.983 163.411  30.960  0.00  0.00    +0.145 HD
ATOM     13  H   UNL     1      51.918 164.412  32.339  0.00  0.00    +0.145 HD
ENDBRANCH   6   9
BRANCH   4  14
ATOM     14  C   UNL     1      47.352 159.796  30.740  0.00  0.00    +0.244 C 
ATOM     15  O   UNL     1      46.898 159.860  29.554  0.00  0.00    -0.270 OA
ATOM     16  N   UNL     1      46.394 159.549  31.747  0.00  0.00    -0.325 N 
ATOM     17  H   UNL     1      46.674 159.487  32.689  0.00  0.00    +0.145 HD
ATOM     18  H   UNL     1      45.445 159.439  31.508  0.00  0.00    +0.145 HD
ENDBRANCH   4  14
BRANCH   2  19
ATOM     19  N   UNL     1      52.001 158.183  30.634  0.00  0.00    -0.276 N 
ATOM     20  C   UNL     1      52.445 158.024  29.316  0.00  0.00    +0.304 C 
ATOM     21  O   UNL     1      52.018 158.766  28.408  0.00  0.00    -0.265 OA
ATOM     22  H   UNL     1      52.346 157.587  31.338  0.00  0.00    +0.155 HD
ENDBRANCH   2  19
TORSDOF 3
REMARK  Name = =
REMARK  3 active torsions:
REMARK  status: ('A' for Active; 'I' for Inactive)
REMARK    1  A    between atoms: C_2  and  N_15
REMARK    2  A    between atoms: C_4  and  C_12
REMARK    3  A    between atoms: C_6  and  C_9
REMARK                            x       y       z     vdW  Elec       q    Type
REMARK                         _______ _______ _______ _____ _____    ______ ____
ROOT
ATOM      1  I   UNL     1      53.493 160.651  31.970  0.00  0.00    -0.107 I 
ATOM      2  H   UNL     1      55.054 160.651  31.970  0.00  0.00    +0.107 HD
ENDROOT
TORSDOF 0
REMARK  Name = =
REMARK  3 active torsions:
REMARK  status: ('A' for Active; 'I' for Inactive)
REMARK    1  A    between atoms: C_2  and  N_15
REMARK    2  A    between atoms: C_4  and  C_12
REMARK    3  A    between atoms: C_6  and  C_9
REMARK                            x       y       z     vdW  Elec       q    Type
REMARK                         _______ _______ _______ _____ _____    ______ ____
ROOT
ATOM      1  N   UNL     1      54.329 161.589  30.345  0.00  0.00    -0.218 NA
ATOM      2  C   UNL     1      53.719 162.864  30.123  0.00  0.00    +0.089 C 
ATOM      3  C   UNL     1      54.765 163.741  29.470  0.00  0.00    +0.020 C 
ATOM      4  C   UNL     1      55.967 162.866  29.338  0.00  0.00    +0.020 C 
ATOM      5  C   UNL     1      55.732 161.826  30.425  0.00  0.00    +0.089 C 
ENDROOT
TORSDOF 0
