REMARK  Name = =
REMARK  3 active torsions:
REMARK  status: ('A' for Active; 'I' for Inactive)
REMARK    1  A    between atoms: C_1  and  C_13
REMARK    2  A    between atoms: C_3  and  C_14
REMARK    3  A    between atoms: C_4  and  O_21
REMARK                            x       y       z     vdW  Elec       q    Type
REMARK                         _______ _______ _______ _____ _____    ______ ____
ROOT
ATOM      1  C   UNL     1      -1.121  -6.304  30.720  0.00  0.00    +0.077 C 
ATOM      2  C   UNL     1      -0.973  -7.017  29.563  0.00  0.00    +0.018 C 
ATOM      3  C   UNL     1      -0.034  -6.713  28.562  0.00  0.00    +0.043 C 
ATOM      4  C   UNL     1       0.767  -5.600  28.811  0.00  0.00    +0.151 C 
ATOM      5  C   UNL     1       0.600  -4.875  30.012  0.00  0.00    +0.135 C 
ATOM      6  N   UNL     1      -0.312  -5.248  30.894  0.00  0.00    -0.243 NA
ENDROOT
BRANCH   1  13
ATOM      7  N   UNL     1      -2.518  -5.351  32.371  0.00  0.00    -0.301 N 
ATOM      8  C   UNL     1      -3.807  -5.318  32.971  0.00  0.00    +0.223 C 
ATOM      9  O   UNL     1      -4.450  -4.240  33.086  0.00  0.00    -0.275 OA
ATOM     10  C   UNL     1      -4.372  -6.602  33.460  0.00  0.00    +0.085 C 
ATOM     11  C   UNL     1      -4.142  -7.733  32.499  0.00  0.00    +0.012 C 
ATOM     12  C   UNL     1      -3.336  -7.305  31.277  0.00  0.00    +0.026 C 
ATOM     13  C   UNL     1      -2.095  -6.613  31.777  0.00  0.00    +0.112 C 
ATOM     14  H   UNL     1      -1.937  -4.556  32.357  0.00  0.00    +0.150 HD
ENDBRANCH   1  13
BRANCH   3  15
ATOM     15  C   UNL     1       0.052  -7.457  27.349  0.00  0.00    +0.150 C 
ATOM     16  S   UNL     1       1.800  -7.838  26.819  0.00  0.00    -0.115 S 
ATOM     17  C   UNL     1       1.326  -9.229  25.693  0.00  0.00    +0.081 C 
ATOM     18  C   UNL     1      -0.200  -9.252  25.930  0.00  0.00    +0.107 C 
ATOM     19  N   UNL     1      -0.299  -8.877  27.375  0.00  0.00    -0.260 N 
ATOM     20  C   UNL     1      -0.584  -9.769  28.371  0.00  0.00    +0.304 C 
ATOM     21  O   UNL     1      -0.633  -9.636  29.614  0.00  0.00    -0.265 OA
ENDBRANCH   3  15
BRANCH   4  22
ATOM     22  O   UNL     1       1.716  -5.155  27.953  0.00  0.00    -0.504 OA
ATOM     23  H   UNL     1       1.863  -5.603  27.144  0.00  0.00    +0.292 HD
ENDBRANCH   4  22
TORSDOF 3
