REMARK  Name = =
REMARK  2 active torsions:
REMARK  status: ('A' for Active; 'I' for Inactive)
REMARK    1  A    between atoms: C_1  and  C_5
REMARK    2  A    between atoms: C_5  and  C_6
REMARK                            x       y       z     vdW  Elec       q    Type
REMARK                         _______ _______ _______ _____ _____    ______ ____
ROOT
ATOM      1  C   UNL     1      51.351 155.702  28.938  0.00  0.00    +0.033 C 
ATOM      2  O   UNL     1      50.959 154.937  27.853  0.00  0.00    -0.226 OA
ATOM      3  C   UNL     1      51.553 155.255  28.505  0.00  0.00    +0.127 C 
ENDROOT
BRANCH   3   4
ATOM      4  C   UNL     1      52.810 155.925  27.985  0.00  0.00    +0.030 C 
ATOM      5  C   UNL     1      52.082 156.951  28.729  0.00  0.00    +0.003 C 
ENDBRANCH   3   4
BRANCH   3   6
ATOM      6  C   UNL     1      51.696 154.501  29.829  0.00  0.00    +0.030 C 
ATOM      7  C   UNL     1      50.615 155.454  30.172  0.00  0.00    +0.003 C 
ENDBRANCH   3   6
TORSDOF 2
