REMARK  Name = =
REMARK  3 active torsions:
REMARK  status: ('A' for Active; 'I' for Inactive)
REMARK    1  A    between atoms: C_1  and  N_25
REMARK    2  A    between atoms: C_2  and  N_7
REMARK    3  A    between atoms: C_4  and  N_19
REMARK                            x       y       z     vdW  Elec       q    Type
REMARK                         _______ _______ _______ _____ _____    ______ ____
ROOT
ATOM      1  C   UNL     1      51.655 153.882  28.664  0.00  0.00    +0.098 C 
ATOM      2  C   UNL     1      52.045 155.099  28.144  0.00  0.00    +0.090 C 
ATOM      3  C   UNL     1      52.780 155.092  26.976  0.00  0.00    +0.034 C 
ATOM      4  C   UNL     1      53.124 153.927  26.331  0.00  0.00    +0.049 C 
ATOM      5  C   UNL     1      52.717 152.734  26.880  0.00  0.00    +0.016 C 
ATOM      6  C   UNL     1      51.969 152.683  28.065  0.00  0.00    +0.022 C 
ENDROOT
BRANCH   2   7
ATOM      7  N   UNL     1      51.695 156.329  28.802  0.00  0.00    -0.226 N 
ATOM      8  C   UNL     1      52.628 157.265  29.058  0.00  0.00    +0.334 A 
ATOM      9  O   UNL     1      53.825 157.020  28.695  0.00  0.00    -0.246 OA
ATOM     10  N   UNL     1      52.344 158.435  29.673  0.00  0.00    -0.306 N 
ATOM     11  C   UNL     1      51.080 158.708  30.061  0.00  0.00    +0.065 A 
ATOM     12  C   UNL     1      50.122 157.751  29.802  0.00  0.00    +0.072 A 
ATOM     13  C   UNL     1      48.815 157.999  30.188  0.00  0.00    +0.006 C 
ATOM     14  C   UNL     1      48.484 159.181  30.819  0.00  0.00    +0.000 C 
ATOM     15  C   UNL     1      49.432 160.153  31.087  0.00  0.00    +0.001 C 
ATOM     16  C   UNL     1      50.734 159.883  30.692  0.00  0.00    +0.017 C 
ATOM     17  C   UNL     1      50.424 156.575  29.179  0.00  0.00    +0.269 A 
ATOM     18  O   UNL     1      49.556 155.684  28.933  0.00  0.00    -0.266 OA
ATOM     19  H   UNL     1      53.061 159.089  29.838  0.00  0.00    +0.170 HD
ENDBRANCH   2   7
BRANCH   4  20
ATOM     20  N   UNL     1      53.871 153.962  25.137  0.00  0.00    -0.305 N 
ATOM     21  C   UNL     1      53.314 154.221  23.831  0.00  0.00    +0.108 C 
ATOM     22  C   UNL     1      54.050 153.279  22.869  0.00  0.00    +0.090 C 
ATOM     23  N   UNL     1      55.385 153.791  22.723  0.00  0.00    -0.295 NA
ATOM     24  C   UNL     1      55.898 154.419  23.897  0.00  0.00    +0.090 C 
ATOM     25  C   UNL     1      55.326 153.733  25.145  0.00  0.00    +0.108 C 
ATOM     26  H   UNL     1      55.385 154.476  21.967  0.00  0.00    +0.123 HD
ENDBRANCH   4  20
BRANCH   1  27
ATOM     27  N   UNL     1      50.896 153.842  29.868  0.00  0.00    -0.241 NA
ATOM     28  C   UNL     1      51.415 153.341  30.960  0.00  0.00    +0.119 C 
ENDBRANCH   1  27
TORSDOF 3
