REMARK  Name = =
REMARK  5 active torsions:
REMARK  status: ('A' for Active; 'I' for Inactive)
REMARK    1  A    between atoms: N_4  and  P_27
REMARK    2  A    between atoms: C_16  and  N_19
REMARK    3  A    between atoms: P_27  and  O_30
REMARK    4  A    between atoms: P_27  and  O_31
REMARK    5  A    between atoms: O_28  and  O_29
REMARK                            x       y       z     vdW  Elec       q    Type
REMARK                         _______ _______ _______ _____ _____    ______ ____
ROOT
ATOM      1  N   UNL     1      52.602 155.390  27.232  0.00  0.00    -0.213 N 
ATOM      2  C   UNL     1      53.426 156.273  26.647  0.00  0.00    +0.323 C 
ATOM      3  O   UNL     1      53.519 157.411  27.178  0.00  0.00    -0.251 OA
ATOM      4  N   UNL     1      54.163 156.050  25.547  0.00  0.00    -0.186 N 
ATOM      5  C   UNL     1      54.047 154.824  25.001  0.00  0.00    +0.062 C 
ATOM      6  C   UNL     1      53.211 153.830  25.537  0.00  0.00    +0.041 C 
ATOM      7  C   UNL     1      53.147 152.603  24.920  0.00  0.00    +0.001 C 
ATOM      8  C   UNL     1      53.886 152.327  23.788  0.00  0.00    -0.000 C 
ATOM      9  C   UNL     1      54.714 153.276  23.236  0.00  0.00    +0.001 C 
ATOM     10  C   UNL     1      54.763 154.516  23.881  0.00  0.00    +0.015 C 
ATOM     11  C   UNL     1      52.502 154.173  26.667  0.00  0.00    +0.252 C 
ATOM     12  O   UNL     1      51.744 153.305  27.173  0.00  0.00    -0.234 OA
ATOM     13  C   UNL     1      51.402 154.728  29.266  0.00  0.00    +0.096 C 
ATOM     14  C   UNL     1      51.847 155.712  28.412  0.00  0.00    +0.077 C 
ATOM     15  C   UNL     1      51.549 157.031  28.724  0.00  0.00    +0.031 C 
ATOM     16  C   UNL     1      50.823 157.399  29.853  0.00  0.00    +0.049 C 
ATOM     17  C   UNL     1      50.409 156.356  30.660  0.00  0.00    +0.016 C 
ATOM     18  C   UNL     1      50.691 155.023  30.378  0.00  0.00    +0.022 C 
ATOM     19  N   UNL     1      51.743 153.379  28.889  0.00  0.00    -0.234 N 
ATOM     20  C   UNL     1      51.776 152.425  29.754  0.00  0.00    +0.159 C 
ENDROOT
BRANCH  16  21
ATOM     21  N   UNL     1      50.515 158.761  30.141  0.00  0.00    -0.305 N 
ATOM     22  C   UNL     1      49.255 159.124  30.758  0.00  0.00    +0.108 C 
ATOM     23  C   UNL     1      49.522 159.984  31.975  0.00  0.00    +0.090 C 
ATOM     24  N   UNL     1      50.450 161.046  31.764  0.00  0.00    -0.295 NA
ATOM     25  C   UNL     1      51.678 160.609  31.127  0.00  0.00    +0.090 C 
ATOM     26  C   UNL     1      51.399 159.870  29.837  0.00  0.00    +0.108 C 
ATOM     27  H   UNL     1      50.682 161.459  32.667  0.00  0.00    +0.123 HD
ENDBRANCH  16  21
BRANCH   4  28
ATOM     28  P   UNL     1      55.157 157.247  24.782  0.00  0.00    +0.284 P 
BRANCH  28  29
ATOM     29  O   UNL     1      56.682 156.732  24.326  0.00  0.00    -0.334 OA
ATOM     30  H   UNL     1      57.191 156.491  25.116  0.00  0.00    +0.218 HD
ENDBRANCH  28  29
BRANCH  28  31
ATOM     31  O   UNL     1      54.416 157.624  23.276  0.00  0.00    -0.334 OA
ATOM     32  H   UNL     1      53.511 157.938  23.430  0.00  0.00    +0.218 HD
ENDBRANCH  28  31
ENDBRANCH   4  28
TORSDOF 4
REMARK  Name = =
REMARK  5 active torsions:
REMARK  status: ('A' for Active; 'I' for Inactive)
REMARK    1  A    between atoms: N_4  and  P_27
REMARK    2  A    between atoms: C_16  and  N_19
REMARK    3  A    between atoms: P_27  and  O_30
REMARK    4  A    between atoms: P_27  and  O_31
REMARK    5  A    between atoms: O_28  and  O_29
REMARK                            x       y       z     vdW  Elec       q    Type
REMARK                         _______ _______ _______ _____ _____    ______ ____
ROOT
ATOM      1  O   UNL     1      55.868 157.604  26.018  0.00  0.00    -0.253 OA
ATOM      2  H   UNL     1      55.938 157.612  26.985  0.00  0.00    +0.253 HD
ENDROOT
BRANCH   1   3
ATOM      3  O   UNL     1      54.904 158.749  25.555  0.00  0.00    -0.253 OA
ATOM      4  H   UNL     1      54.834 158.741  24.588  0.00  0.00    +0.253 HD
ENDBRANCH   1   3
TORSDOF 1
