REMARK  Name = =
REMARK  11 active torsions:
REMARK  status: ('A' for Active; 'I' for Inactive)
REMARK    1  A    between atoms: N_1  and  C_14
REMARK    2  A    between atoms: N_4  and  P_27
REMARK    3  A    between atoms: C_13  and  N_25
REMARK    4  A    between atoms: C_16  and  N_19
REMARK    5  A    between atoms: P_27  and  O_28
REMARK    6  A    between atoms: O_28  and  O_31
REMARK    7  A    between atoms: O_29  and  O_30
REMARK    8  A    between atoms: O_31  and  N_32
REMARK    9  A    between atoms: N_32  and  C_33
REMARK   10  A    between atoms: N_32  and  O_36
REMARK   11  A    between atoms: C_33  and  N_35
REMARK                            x       y       z     vdW  Elec       q    Type
REMARK                         _______ _______ _______ _____ _____    ______ ____
ROOT
ATOM      1  N   UNL     1      52.558 155.702  27.230  0.00  0.00    -0.225 N 
ATOM      2  C   UNL     1      53.166 156.830  27.703  0.00  0.00    +0.342 A 
ATOM      3  O   UNL     1      54.262 157.140  27.180  0.00  0.00    -0.246 OA
ATOM      4  N   UNL     1      52.663 157.603  28.672  0.00  0.00    -0.247 N 
ATOM      5  C   UNL     1      51.476 157.232  29.206  0.00  0.00    +0.073 A 
ATOM      6  C   UNL     1      50.814 156.075  28.747  0.00  0.00    +0.073 A 
ATOM      7  C   UNL     1      49.609 155.674  29.269  0.00  0.00    +0.006 C 
ATOM      8  C   UNL     1      49.014 156.404  30.264  0.00  0.00    +0.000 C 
ATOM      9  C   UNL     1      49.650 157.529  30.717  0.00  0.00    +0.001 C 
ATOM     10  C   UNL     1      50.856 157.948  30.208  0.00  0.00    +0.018 C 
ATOM     11  C   UNL     1      51.383 155.318  27.747  0.00  0.00    +0.269 A 
ATOM     12  O   UNL     1      50.810 154.292  27.331  0.00  0.00    -0.266 OA
ENDROOT
BRANCH   1  14
ATOM     13  C   UNL     1      53.951 155.616  25.258  0.00  0.00    +0.098 C 
ATOM     14  C   UNL     1      53.192 154.955  26.192  0.00  0.00    +0.090 C 
ATOM     15  C   UNL     1      53.045 153.568  26.126  0.00  0.00    +0.034 C 
ATOM     16  C   UNL     1      53.646 152.817  25.133  0.00  0.00    +0.049 C 
ATOM     17  C   UNL     1      54.396 153.506  24.215  0.00  0.00    +0.016 C 
ATOM     18  C   UNL     1      54.559 154.884  24.259  0.00  0.00    +0.022 C 
BRANCH  16  19
ATOM     19  N   UNL     1      53.446 151.412  25.134  0.00  0.00    -0.305 N 
ATOM     20  C   UNL     1      52.745 150.733  26.208  0.00  0.00    +0.108 C 
ATOM     21  C   UNL     1      52.349 149.340  25.775  0.00  0.00    +0.090 C 
ATOM     22  N   UNL     1      53.492 148.553  25.379  0.00  0.00    -0.295 NA
ATOM     23  C   UNL     1      54.469 149.295  24.647  0.00  0.00    +0.090 C 
ATOM     24  C   UNL     1      53.934 150.585  24.058  0.00  0.00    +0.108 C 
ATOM     25  H   UNL     1      53.167 147.783  24.794  0.00  0.00    +0.123 HD
ENDBRANCH  16  19
BRANCH  13  26
ATOM     26  N   UNL     1      54.072 157.020  25.365  0.00  0.00    -0.241 NA
ATOM     27  C   UNL     1      54.899 157.648  24.608  0.00  0.00    +0.119 C 
ENDBRANCH  13  26
ENDBRANCH   1  14
BRANCH   4  28
ATOM     28  P   UNL     1      53.513 158.958  29.296  0.00  0.00    +0.170 P 
ATOM     29  H   UNL     1      54.511 159.492  28.507  0.00  0.00    +0.115 HD
BRANCH  28  30
ATOM     30  O   UNL     1      52.116 159.468  29.073  0.00  0.00    -0.170 OA
BRANCH  30  31
ATOM     31  O   UNL     1      52.766 160.405  29.632  0.00  0.00    -0.086 OA
BRANCH  31  32
ATOM     32  N   UNL     1      53.167 160.840  30.846  0.00  0.00    -0.035 N 
BRANCH  32  33
ATOM     33  C   UNL     1      54.366 161.546  31.083  0.00  0.00    +0.186 C 
ATOM     34  S   UNL     1      54.995 162.522  29.918  0.00  0.00    -0.014 S 
BRANCH  33  35
ATOM     35  N   UNL     1      55.043 161.423  32.322  0.00  0.00    -0.337 N 
ATOM     36  H   UNL     1      54.677 160.842  33.027  0.00  0.00    +0.144 HD
ATOM     37  H   UNL     1      55.879 161.919  32.477  0.00  0.00    +0.144 HD
ENDBRANCH  33  35
ENDBRANCH  32  33
BRANCH  32  38
ATOM     38  O   UNL     1      52.360 160.579  31.890  0.00  0.00    -0.267 OA
ATOM     39  H   UNL     1      51.580 160.092  31.582  0.00  0.00    +0.244 HD
ENDBRANCH  32  38
ENDBRANCH  31  32
ENDBRANCH  30  31
ENDBRANCH  28  30
ENDBRANCH   4  28
TORSDOF 10
REMARK  Name = =
REMARK  11 active torsions:
REMARK  status: ('A' for Active; 'I' for Inactive)
REMARK    1  A    between atoms: N_1  and  C_14
REMARK    2  A    between atoms: N_4  and  P_27
REMARK    3  A    between atoms: C_13  and  N_25
REMARK    4  A    between atoms: C_16  and  N_19
REMARK    5  A    between atoms: P_27  and  O_28
REMARK    6  A    between atoms: O_28  and  O_31
REMARK    7  A    between atoms: O_29  and  O_30
REMARK    8  A    between atoms: O_31  and  N_32
REMARK    9  A    between atoms: N_32  and  C_33
REMARK   10  A    between atoms: N_32  and  O_36
REMARK   11  A    between atoms: C_33  and  N_35
REMARK                            x       y       z     vdW  Elec       q    Type
REMARK                         _______ _______ _______ _____ _____    ______ ____
ROOT
ATOM      1  O   UNL     1      54.931 158.929  30.266  0.00  0.00    -0.253 OA
ATOM      2  H   UNL     1      54.065 159.280  30.524  0.00  0.00    +0.253 HD
ENDROOT
BRANCH   1   3
ATOM      3  O   UNL     1      55.055 158.923  28.603  0.00  0.00    -0.253 OA
ATOM      4  H   UNL     1      55.921 158.572  28.345  0.00  0.00    +0.253 HD
ENDBRANCH   1   3
TORSDOF 1
