REMARK  Name = =
REMARK  1 active torsions:
REMARK  status: ('A' for Active; 'I' for Inactive)
REMARK    1  A    between atoms: C_1  and  O_7
REMARK                            x       y       z     vdW  Elec       q    Type
REMARK                         _______ _______ _______ _____ _____    ______ ____
ROOT
ATOM      1  C   UNL     1      51.991 157.607  29.168  0.00  0.00    +0.153 C 
ATOM      2  C   UNL     1      51.353 156.375  29.190  0.00  0.00    +0.135 C 
ATOM      3  N   UNL     1      50.111 156.222  29.663  0.00  0.00    -0.239 NA
ATOM      4  C   UNL     1      49.397 157.257  30.149  0.00  0.00    +0.099 C 
ATOM      5  C   UNL     1      50.017 158.500  30.136  0.00  0.00    +0.024 C 
ATOM      6  C   UNL     1      51.290 158.690  29.658  0.00  0.00    +0.040 C 
ENDROOT
BRANCH   1   7
ATOM      7  O   UNL     1      53.291 157.759  28.672  0.00  0.00    -0.504 OA
ATOM      8  H   UNL     1      53.756 157.016  28.342  0.00  0.00    +0.292 HD
ENDBRANCH   1   7
TORSDOF 1
