MODEL 1
REMARK VINA RESULT:   -11.142      0.000      0.000
REMARK INTER + INTRA:         -14.694
REMARK INTER:                 -14.724
REMARK INTRA:                   0.030
REMARK UNBOUND:                 0.030
REMARK  Name = =
REMARK  6 active torsions:
REMARK  status: ('A' for Active; 'I' for Inactive)
REMARK    1  A    between atoms: O_1  and  C_5
REMARK    2  A    between atoms: O_1  and  C_18
REMARK    3  A    between atoms: C_2  and  C_17
REMARK    4  A    between atoms: C_23  and  N_24
REMARK    5  A    between atoms: N_24  and  C_25
REMARK    6  A    between atoms: C_28  and  O_31
REMARK                            x       y       z     vdW  Elec       q    Type
REMARK                         _______ _______ _______ _____ _____    ______ ____
ROOT
ATOM      1  O   UNL     1      51.761 159.140  30.146  0.00  0.00    -0.452 OA
ENDROOT
BRANCH   1   5
ATOM      2  C   UNL     1      52.262 155.561  28.085  0.00  0.00    +0.000 C 
ATOM      3  C   UNL     1      51.364 155.608  29.142  0.00  0.00    +0.003 C 
ATOM      4  C   UNL     1      51.199 156.788  29.822  0.00  0.00    +0.037 C 
ATOM      5  C   UNL     1      51.885 157.957  29.512  0.00  0.00    +0.145 C 
ATOM      6  C   UNL     1      52.797 157.909  28.441  0.00  0.00    +0.037 C 
ATOM      7  C   UNL     1      52.947 156.721  27.774  0.00  0.00    +0.003 C 
BRANCH   2  17
ATOM      8  C   UNL     1      53.805 155.348  25.667  0.00  0.00    +0.102 C 
ATOM      9  C   UNL     1      53.136 154.264  26.212  0.00  0.00    +0.037 C 
ATOM     10  C   UNL     1      53.229 153.071  25.540  0.00  0.00    +0.085 C 
ATOM     11  N   UNL     1      53.942 152.943  24.389  0.00  0.00    -0.224 NA
ATOM     12  C   UNL     1      54.581 154.015  23.880  0.00  0.00    +0.199 C 
ATOM     13  N   UNL     1      54.493 155.169  24.526  0.00  0.00    -0.222 NA
ATOM     14  C   UNL     1      52.617 151.904  25.983  0.00  0.00    +0.019 C 
ATOM     15  C   UNL     1      51.900 152.005  27.147  0.00  0.00    +0.002 C 
ATOM     16  C   UNL     1      51.781 153.183  27.851  0.00  0.00    +0.000 C 
ATOM     17  C   UNL     1      52.418 154.332  27.362  0.00  0.00    +0.003 C 
ENDBRANCH   2  17
ENDBRANCH   1   5
BRANCH   1  18
ATOM     18  C   UNL     1      50.776 159.889  30.653  0.00  0.00    +0.159 C 
ATOM     19  C   UNL     1      49.488 159.625  30.130  0.00  0.00    +0.039 C 
ATOM     20  C   UNL     1      48.377 160.304  30.542  0.00  0.00    +0.003 C 
ATOM     21  C   UNL     1      48.479 161.291  31.506  0.00  0.00    +0.001 C 
ATOM     22  C   UNL     1      49.712 161.572  32.032  0.00  0.00    +0.018 C 
ATOM     23  C   UNL     1      50.844 160.881  31.611  0.00  0.00    +0.083 C 
BRANCH  23  24
ATOM     24  N   UNL     1      52.073 161.198  32.218  0.00  0.00    -0.310 N 
ATOM     25  H   UNL     1      52.154 161.034  33.185  0.00  0.00    +0.152 HD
BRANCH  24  26
ATOM     26  C   UNL     1      53.199 161.733  31.556  0.00  0.00    +0.049 C 
ATOM     27  C   UNL     1      54.501 161.480  31.999  0.00  0.00    +0.018 C 
ATOM     28  C   UNL     1      55.607 161.956  31.332  0.00  0.00    +0.038 C 
ATOM     29  C   UNL     1      55.433 162.707  30.191  0.00  0.00    +0.134 C 
ATOM     30  C   UNL     1      54.169 162.975  29.725  0.00  0.00    +0.038 C 
ATOM     31  C   UNL     1      53.069 162.480  30.420  0.00  0.00    +0.018 C 
BRANCH  29  32
ATOM     32  O   UNL     1      56.544 163.197  29.505  0.00  0.00    -0.506 OA
ATOM     33  H   UNL     1      56.872 162.738  28.757  0.00  0.00    +0.292 HD
ENDBRANCH  29  32
ENDBRANCH  24  26
ENDBRANCH  23  24
ENDBRANCH   1  18
TORSDOF 6
ENDMDL
