REMARK  Name = =
REMARK  1 active torsions:
REMARK  status: ('A' for Active; 'I' for Inactive)
REMARK    1  A    between atoms: C_1  and  C_8
REMARK                            x       y       z     vdW  Elec       q    Type
REMARK                         _______ _______ _______ _____ _____    ______ ____
ROOT
ATOM      1  C   UNL     1     -11.060 -42.895  32.791  0.00  0.00    +0.035 C 
ATOM      2  C   UNL     1      -9.807 -42.058  32.682  0.00  0.00    +0.059 C 
ATOM      3  N   UNL     1      -9.950 -41.907  34.151  0.00  0.00    -0.274 NA
ATOM      4  C   UNL     1      -8.637 -41.926  34.652  0.00  0.00    +0.072 C 
ATOM      5  C   UNL     1      -7.794 -42.426  33.767  0.00  0.00    +0.019 C 
ATOM      6  C   UNL     1      -8.509 -42.810  32.518  0.00  0.00    +0.017 C 
ATOM      7  C   UNL     1     -11.351 -41.859  33.895  0.00  0.00    +0.074 C 
ENDROOT
BRANCH   1   8
ATOM      8  C   UNL     1     -12.004 -42.775  31.620  0.00  0.00    +0.025 C 
ATOM      9  C   UNL     1     -13.079 -43.852  31.726  0.00  0.00    +0.013 C 
ATOM     10  C   UNL     1     -12.496 -45.228  31.626  0.00  0.00    +0.069 C 
ATOM     11  C   UNL     1     -11.151 -45.246  31.010  0.00  0.00    +0.173 C 
ATOM     12  O   UNL     1     -10.322 -46.170  31.259  0.00  0.00    -0.291 OA
ATOM     13  C   UNL     1     -10.795 -44.173  30.101  0.00  0.00    +0.033 C 
ATOM     14  C   UNL     1     -11.204 -42.951  30.384  0.00  0.00    -0.023 C 
ENDBRANCH   1   8
TORSDOF 1
