REMARK  Name = =
REMARK  3 active torsions:
REMARK  status: ('A' for Active; 'I' for Inactive)
REMARK    1  A    between atoms: C_1  and  C_19
REMARK    2  A    between atoms: C_19  and  C_26
REMARK    3  A    between atoms: C_26  and  N_33
REMARK                            x       y       z     vdW  Elec       q    Type
REMARK                         _______ _______ _______ _____ _____    ______ ____
ROOT
ATOM      1  C   UNL     1     -13.106 -42.461  27.419  0.00  0.00    -0.018 C 
ATOM      2  C   UNL     1     -12.364 -43.599  27.297  0.00  0.00    -0.008 C 
ATOM      3  C   UNL     1     -11.084 -43.660  27.860  0.00  0.00    -0.022 C 
ATOM      4  C   UNL     1     -10.591 -42.565  28.533  0.00  0.00    -0.021 C 
ATOM      5  C   UNL     1     -11.301 -41.416  28.674  0.00  0.00    -0.005 C 
ATOM      6  C   UNL     1     -12.566 -41.380  28.108  0.00  0.00    -0.004 C 
ATOM      7  C   UNL     1      -9.215 -42.660  29.142  0.00  0.00    +0.052 C 
ATOM      8  C   UNL     1      -9.060 -44.039  29.725  0.00  0.00    -0.026 C 
ATOM      9  C   UNL     1      -9.544 -45.071  29.074  0.00  0.00    -0.022 C 
ATOM     10  C   UNL     1      -9.414 -46.431  29.614  0.00  0.00    -0.005 C 
ATOM     11  C   UNL     1      -8.815 -46.633  30.759  0.00  0.00    -0.005 C 
ATOM     12  C   UNL     1      -8.268 -45.511  31.518  0.00  0.00    -0.026 C 
ATOM     13  C   UNL     1      -8.358 -44.188  30.994  0.00  0.00    -0.030 C 
ATOM     14  C   UNL     1      -7.107 -43.345  31.009  0.00  0.00    +0.026 C 
ATOM     15  C   UNL     1      -5.900 -44.141  31.447  0.00  0.00    +0.005 C 
ATOM     16  C   UNL     1      -6.266 -44.801  32.764  0.00  0.00    +0.005 C 
ATOM     17  C   UNL     1      -7.223 -45.916  32.477  0.00  0.00    +0.026 C 
ATOM     18  C   UNL     1     -10.214 -44.839  27.767  0.00  0.00    +0.052 C 
ENDROOT
BRANCH   1  19
ATOM     19  C   UNL     1     -14.458 -42.369  26.837  0.00  0.00    +0.052 C 
ATOM     20  C   UNL     1     -15.316 -43.385  27.570  0.00  0.00    +0.018 C 
ATOM     21  C   UNL     1     -16.790 -43.188  27.336  0.00  0.00    +0.070 C 
ATOM     22  C   UNL     1     -17.187 -41.776  27.268  0.00  0.00    +0.173 C 
ATOM     23  O   UNL     1     -18.414 -41.456  27.167  0.00  0.00    -0.291 OA
ATOM     24  C   UNL     1     -16.200 -40.728  27.314  0.00  0.00    +0.033 C 
ATOM     25  C   UNL     1     -14.935 -40.990  27.116  0.00  0.00    -0.018 C 
BRANCH  19  26
ATOM     26  C   UNL     1     -14.473 -42.549  25.362  0.00  0.00    +0.074 C 
ATOM     27  C   UNL     1     -15.843 -43.063  24.865  0.00  0.00    +0.072 C 
ATOM     28  N   UNL     1     -15.125 -43.744  23.806  0.00  0.00    -0.272 NA
ATOM     29  C   UNL     1     -16.029 -43.829  22.701  0.00  0.00    +0.072 C 
ATOM     30  C   UNL     1     -16.916 -42.843  22.830  0.00  0.00    +0.019 C 
ATOM     31  C   UNL     1     -16.624 -42.048  24.056  0.00  0.00    +0.019 C 
ATOM     32  C   UNL     1     -13.995 -43.806  24.750  0.00  0.00    +0.088 C 
BRANCH  26  33
ATOM     33  N   UNL     1     -14.173 -41.355  24.617  0.00  0.00    -0.321 NA
ATOM     34  H   UNL     1     -14.540 -40.543  25.114  0.00  0.00    +0.119 HD
ATOM     35  H   UNL     1     -14.605 -41.412  23.695  0.00  0.00    +0.119 HD
ENDBRANCH  26  33
ENDBRANCH  19  26
ENDBRANCH   1  19
TORSDOF 3
