REMARK  Name = =
REMARK  0 active torsions:
REMARK  status: ('A' for Active; 'I' for Inactive)
REMARK                            x       y       z     vdW  Elec       q    Type
REMARK                         _______ _______ _______ _____ _____    ______ ____
ROOT
ATOM      1  C   UNL     1      51.396 154.683  29.856  0.00  0.00    +0.003 C 
ATOM      2  C   UNL     1      51.939 155.898  29.495  0.00  0.00    +0.040 C 
ATOM      3  C   UNL     1      52.430 156.115  28.218  0.00  0.00    +0.176 C 
ATOM      4  C   UNL     1      52.396 155.125  27.256  0.00  0.00    +0.176 C 
ATOM      5  C   UNL     1      51.853 153.913  27.619  0.00  0.00    +0.040 C 
ATOM      6  C   UNL     1      51.359 153.691  28.900  0.00  0.00    +0.003 C 
ATOM      7  O   UNL     1      52.941 155.571  26.059  0.00  0.00    -0.435 OA
ATOM      8  C   UNL     1      53.536 156.802  26.322  0.00  0.00    +0.429 C 
ATOM      9  O   UNL     1      53.016 157.207  27.593  0.00  0.00    -0.435 OA
ENDROOT
TORSDOF 0
