REMARK  Name = =
REMARK  4 active torsions:
REMARK  status: ('A' for Active; 'I' for Inactive)
REMARK    1  A    between atoms: C_1  and  O_10
REMARK    2  A    between atoms: O_10  and  P_11
REMARK    3  A    between atoms: P_11  and  O_13
REMARK    4  A    between atoms: P_11  and  O_14
REMARK                            x       y       z     vdW  Elec       q    Type
REMARK                         _______ _______ _______ _____ _____    ______ ____
ROOT
ATOM      1  C   UNL     1      52.183 156.025  26.838  0.00  0.00    +0.152 C 
ATOM      2  C   UNL     1      53.359 156.663  26.479  0.00  0.00    +0.078 C 
ATOM      3  C   UNL     1      54.152 156.212  25.445  0.00  0.00    +0.179 C 
ATOM      4  C   UNL     1      53.783 155.104  24.744  0.00  0.00    +0.177 C 
ATOM      5  C   UNL     1      52.616 154.442  25.073  0.00  0.00    +0.043 C 
ATOM      6  C   UNL     1      51.830 154.905  26.112  0.00  0.00    +0.041 C 
ATOM      7  O   UNL     1      54.742 154.863  23.766  0.00  0.00    -0.435 OA
ATOM      8  C   UNL     1      55.525 156.055  23.604  0.00  0.00    +0.429 C 
ATOM      9  O   UNL     1      55.346 156.653  24.896  0.00  0.00    -0.435 OA
ENDROOT
BRANCH   1  10
ATOM     10  O   UNL     1      51.386 156.473  27.870  0.00  0.00    -0.403 OA
BRANCH  10  11
ATOM     11  P   UNL     1      51.015 155.445  29.161  0.00  0.00    +0.528 P 
ATOM     12  O   UNL     1      51.520 154.050  28.928  0.00  0.00    -0.216 OA
BRANCH  11  13
ATOM     13  O   UNL     1      49.337 155.359  29.339  0.00  0.00    -0.293 OA
ATOM     14  H   UNL     1      48.982 156.249  29.491  0.00  0.00    +0.223 HD
ENDBRANCH  11  13
BRANCH  11  15
ATOM     15  O   UNL     1      51.718 156.027  30.594  0.00  0.00    -0.293 OA
ATOM     16  H   UNL     1      51.405 156.929  30.765  0.00  0.00    +0.223 HD
ENDBRANCH  11  15
ENDBRANCH  10  11
ENDBRANCH   1  10
TORSDOF 4
