REMARK  Name = =
REMARK  5 active torsions:
REMARK  status: ('A' for Active; 'I' for Inactive)
REMARK    1  A    between atoms: P_1  and  O_3
REMARK    2  A    between atoms: P_1  and  O_4
REMARK    3  A    between atoms: P_1  and  O_10
REMARK    4  A    between atoms: O_4  and  C_9
REMARK    5  A    between atoms: O_10  and  C_11
REMARK                            x       y       z     vdW  Elec       q    Type
REMARK                         _______ _______ _______ _____ _____    ______ ____
ROOT
ATOM      1  P   UNL     1      54.618 156.704  24.533  0.00  0.00    +0.589 P 
ATOM      2  O   UNL     1      55.002 157.193  25.894  0.00  0.00    -0.205 OA
ENDROOT
BRANCH   1   3
ATOM      3  O   UNL     1      55.937 157.045  23.496  0.00  0.00    -0.283 OA
ATOM      4  H   UNL     1      56.114 157.999  23.501  0.00  0.00    +0.224 HD
ENDBRANCH   1   3
BRANCH   1   5
ATOM      5  O   UNL     1      53.210 157.526  23.949  0.00  0.00    -0.378 OA
BRANCH   5  10
ATOM      6  C   UNL     1      52.345 159.160  22.171  0.00  0.00    +0.212 C 
ATOM      7  N   UNL     1      52.995 160.252  21.507  0.00  0.00    -0.240 NA
ATOM      8  C   UNL     1      54.191 160.337  21.947  0.00  0.00    +0.197 C 
ATOM      9  N   UNL     1      54.429 159.329  22.918  0.00  0.00    -0.192 NA
ATOM     10  C   UNL     1      53.372 158.615  23.081  0.00  0.00    +0.237 C 
ENDBRANCH   5  10
ENDBRANCH   1   5
BRANCH   1  11
ATOM     11  O   UNL     1      54.366 155.020  24.473  0.00  0.00    -0.394 OA
BRANCH  11  12
ATOM     12  C   UNL     1      53.594 154.380  25.405  0.00  0.00    +0.153 C 
ATOM     13  C   UNL     1      53.457 152.992  25.339  0.00  0.00    +0.078 C 
ATOM     14  C   UNL     1      52.687 152.304  26.260  0.00  0.00    +0.179 C 
ATOM     15  C   UNL     1      52.028 152.995  27.280  0.00  0.00    +0.177 C 
ATOM     16  C   UNL     1      52.176 154.360  27.326  0.00  0.00    +0.043 C 
ATOM     17  C   UNL     1      52.945 155.067  26.412  0.00  0.00    +0.041 C 
ATOM     18  O   UNL     1      51.343 152.047  28.039  0.00  0.00    -0.435 OA
ATOM     19  C   UNL     1      51.895 150.787  27.765  0.00  0.00    +0.429 C 
ATOM     20  O   UNL     1      52.380 150.962  26.434  0.00  0.00    -0.435 OA
ENDBRANCH  11  12
ENDBRANCH   1  11
TORSDOF 5
