REMARK  Name = =
REMARK  6 active torsions:
REMARK  status: ('A' for Active; 'I' for Inactive)
REMARK    1  A    between atoms: P_1  and  O_3
REMARK    2  A    between atoms: P_1  and  O_4
REMARK    3  A    between atoms: P_1  and  O_17
REMARK    4  A    between atoms: O_4  and  C_9
REMARK    5  A    between atoms: C_5  and  C_16
REMARK    6  A    between atoms: O_17  and  C_18
REMARK                            x       y       z     vdW  Elec       q    Type
REMARK                         _______ _______ _______ _____ _____    ______ ____
ROOT
ATOM      1  P   UNL     1      53.416 156.105  24.907  0.00  0.00    +0.589 P 
ATOM      2  O   UNL     1      54.143 157.110  24.014  0.00  0.00    -0.205 OA
ENDROOT
BRANCH   1   3
ATOM      3  O   UNL     1      52.355 155.257  23.897  0.00  0.00    -0.283 OA
ATOM      4  H   UNL     1      52.862 154.787  23.217  0.00  0.00    +0.224 HD
ENDBRANCH   1   3
BRANCH   1   5
ATOM      5  O   UNL     1      52.472 156.907  26.077  0.00  0.00    -0.378 OA
BRANCH   5  10
ATOM      6  C   UNL     1      52.247 157.504  28.554  0.00  0.00    +0.204 C 
ATOM      7  N   UNL     1      53.274 158.017  29.439  0.00  0.00    -0.238 NA
ATOM      8  C   UNL     1      54.359 158.133  28.773  0.00  0.00    +0.197 C 
ATOM      9  N   UNL     1      54.209 157.732  27.418  0.00  0.00    -0.191 NA
ATOM     10  C   UNL     1      52.988 157.365  27.276  0.00  0.00    +0.239 C 
BRANCH   6  17
ATOM     11 CL   UNL     1      49.808 157.609  30.270  0.00  0.00    -0.082 Cl
ATOM     12  C   UNL     1      50.653 156.107  29.897  0.00  0.00    +0.056 C 
ATOM     13  C   UNL     1      50.202 154.906  30.401  0.00  0.00    +0.011 C 
ATOM     14  C   UNL     1      50.908 153.755  30.074  0.00  0.00    +0.001 C 
ATOM     15  C   UNL     1      52.034 153.841  29.263  0.00  0.00    -0.000 C 
ATOM     16  C   UNL     1      52.466 155.057  28.771  0.00  0.00    -0.001 C 
ATOM     17  C   UNL     1      51.778 156.201  29.085  0.00  0.00    +0.019 C 
ENDBRANCH   6  17
ENDBRANCH   5  10
ENDBRANCH   1   5
BRANCH   1  18
ATOM     18  O   UNL     1      54.509 155.000  25.567  0.00  0.00    -0.394 OA
BRANCH  18  19
ATOM     19  C   UNL     1      54.282 153.630  25.521  0.00  0.00    +0.153 C 
ATOM     20  C   UNL     1      53.171 153.049  26.097  0.00  0.00    +0.078 C 
ATOM     21  C   UNL     1      52.938 151.682  26.055  0.00  0.00    +0.179 C 
ATOM     22  C   UNL     1      53.844 150.852  25.415  0.00  0.00    +0.177 C 
ATOM     23  C   UNL     1      54.963 151.405  24.830  0.00  0.00    +0.043 C 
ATOM     24  C   UNL     1      55.170 152.765  24.886  0.00  0.00    +0.041 C 
ATOM     25  O   UNL     1      53.402 149.541  25.502  0.00  0.00    -0.435 OA
ATOM     26  C   UNL     1      52.113 149.538  26.082  0.00  0.00    +0.429 C 
ATOM     27  O   UNL     1      51.932 150.848  26.536  0.00  0.00    -0.435 OA
ENDBRANCH  18  19
ENDBRANCH   1  18
TORSDOF 6
