REMARK  Name = =
REMARK  0 active torsions:
REMARK  status: ('A' for Active; 'I' for Inactive)
REMARK                            x       y       z     vdW  Elec       q    Type
REMARK                         _______ _______ _______ _____ _____    ______ ____
ROOT
ATOM      1  C   UNL     1      -1.112  -5.799  28.522  0.00  0.00    +0.095 C 
ATOM      2  N   UNL     1      -2.164  -5.058  28.497  0.00  0.00    -0.259 NA
ATOM      3  C   UNL     1      -2.403  -3.668  28.791  0.00  0.00    +0.210 C 
ATOM      4  C   UNL     1      -1.709  -3.236  30.026  0.00  0.00    +0.251 C 
ATOM      5  O   UNL     1      -2.375  -2.709  30.956  0.00  0.00    -0.273 OA
ATOM      6  N   UNL     1      -0.302  -3.366  30.270  0.00  0.00    -0.282 N 
ATOM      7  C   UNL     1       0.615  -4.291  29.678  0.00  0.00    +0.052 C 
ATOM      8  C   UNL     1       0.251  -5.379  28.896  0.00  0.00    +0.032 C 
ATOM      9  C   UNL     1       1.246  -6.172  28.398  0.00  0.00    +0.003 C 
ATOM     10  C   UNL     1       2.595  -5.919  28.655  0.00  0.00    +0.000 C 
ATOM     11  C   UNL     1       2.946  -4.828  29.438  0.00  0.00    +0.001 C 
ATOM     12  C   UNL     1       1.939  -4.030  29.937  0.00  0.00    +0.015 C 
ATOM     13  H   UNL     1       0.081  -2.741  30.927  0.00  0.00    +0.155 HD
ENDROOT
TORSDOF 0
