REMARK  Name = =
REMARK  6 active torsions:
REMARK  status: ('A' for Active; 'I' for Inactive)
REMARK    1  A    between atoms: C_3  and  S_13
REMARK    2  A    between atoms: S_13  and  C_14
REMARK    3  A    between atoms: S_13  and  S_17
REMARK    4  A    between atoms: C_14  and  N_16
REMARK    5  A    between atoms: S_17  and  C_18
REMARK    6  A    between atoms: C_18  and  N_20
REMARK                            x       y       z     vdW  Elec       q    Type
REMARK                         _______ _______ _______ _____ _____    ______ ____
ROOT
ATOM      1  C   UNL     1      -1.099  -5.460  28.183  0.00  0.00    +0.096 C 
ATOM      2  N   UNL     1      -2.188  -4.787  28.267  0.00  0.00    -0.251 NA
ATOM      3  C   UNL     1      -2.746  -3.833  29.150  0.00  0.00    +0.222 C 
ATOM      4  C   UNL     1      -1.822  -2.930  29.812  0.00  0.00    +0.258 C 
ATOM      5  O   UNL     1      -2.184  -1.725  29.869  0.00  0.00    -0.272 OA
ATOM      6  N   UNL     1      -0.566  -3.242  30.398  0.00  0.00    -0.282 N 
ATOM      7  C   UNL     1       0.216  -4.394  30.114  0.00  0.00    +0.052 C 
ATOM      8  C   UNL     1      -0.004  -5.377  29.148  0.00  0.00    +0.032 C 
ATOM      9  C   UNL     1       0.864  -6.440  29.006  0.00  0.00    +0.003 C 
ATOM     10  C   UNL     1       1.951  -6.486  29.859  0.00  0.00    +0.000 C 
ATOM     11  C   UNL     1       2.175  -5.517  30.819  0.00  0.00    +0.001 C 
ATOM     12  C   UNL     1       1.317  -4.469  30.956  0.00  0.00    +0.015 C 
ATOM     13  H   UNL     1      -0.207  -2.605  31.057  0.00  0.00    +0.155 HD
ENDROOT
BRANCH   3  14
ATOM     14  S   UNL     1      -3.732  -4.583  30.398  0.00  0.00    -0.115 S 
ATOM     15  H   UNL     1      -4.839  -5.247  29.970  0.00  0.00    +0.102 HD
BRANCH  14  16
ATOM     16  C   UNL     1      -4.132  -3.401  31.592  0.00  0.00    +0.096 C 
ATOM     17  S   UNL     1      -5.556  -2.584  31.367  0.00  0.00    -0.029 S 
BRANCH  16  18
ATOM     18  N   UNL     1      -3.387  -3.052  32.732  0.00  0.00    -0.348 N 
ATOM     19  H   UNL     1      -2.532  -3.503  32.919  0.00  0.00    +0.143 HD
ATOM     20  H   UNL     1      -3.720  -2.356  33.344  0.00  0.00    +0.143 HD
ENDBRANCH  16  18
ENDBRANCH  14  16
BRANCH  14  21
ATOM     21  S   UNL     1      -2.397  -5.356  31.166  0.00  0.00    -0.048 S 
BRANCH  21  22
ATOM     22  C   UNL     1      -2.525  -6.982  31.429  0.00  0.00    +0.113 C 
ATOM     23  S   UNL     1      -1.317  -7.857  32.159  0.00  0.00    -0.028 S 
BRANCH  22  24
ATOM     24  N   UNL     1      -3.658  -7.763  31.063  0.00  0.00    -0.346 N 
ATOM     25  H   UNL     1      -4.429  -7.336  30.623  0.00  0.00    +0.143 HD
ATOM     26  H   UNL     1      -3.671  -8.730  31.250  0.00  0.00    +0.143 HD
ENDBRANCH  22  24
ENDBRANCH  21  22
ENDBRANCH  14  21
ENDBRANCH   3  14
TORSDOF 6
