REMARK  Name = =
REMARK  8 active torsions:
REMARK  status: ('A' for Active; 'I' for Inactive)
REMARK    1  A    between atoms: S_1  and  C_4
REMARK    2  A    between atoms: S_1  and  S_14
REMARK    3  A    between atoms: S_1  and  C_22
REMARK    4  A    between atoms: S_14  and  C_15
REMARK    5  A    between atoms: S_14  and  O_18
REMARK    6  A    between atoms: C_15  and  N_17
REMARK    7  A    between atoms: O_18  and  C_19
REMARK    8  A    between atoms: C_22  and  N_24
REMARK                            x       y       z     vdW  Elec       q    Type
REMARK                         _______ _______ _______ _____ _____    ______ ____
ROOT
ATOM      1  S   UNL     1      -3.301  -4.880  30.429  0.00  0.00    -0.104 S 
ATOM      2  H   UNL     1      -4.466  -5.031  29.743  0.00  0.00    +0.103 HD
ENDROOT
BRANCH   1   5
ATOM      3  C   UNL     1       0.278  -3.571  30.129  0.00  0.00    +0.096 C 
ATOM      4  N   UNL     1      -0.828  -4.173  30.364  0.00  0.00    -0.251 NA
ATOM      5  C   UNL     1      -1.928  -4.584  29.539  0.00  0.00    +0.222 C 
ATOM      6  C   UNL     1      -2.207  -3.639  28.428  0.00  0.00    +0.258 C 
ATOM      7  O   UNL     1      -3.440  -3.455  28.172  0.00  0.00    -0.272 OA
ATOM      8  N   UNL     1      -1.343  -2.886  27.577  0.00  0.00    -0.282 N 
ATOM      9  C   UNL     1       0.089  -2.767  27.696  0.00  0.00    +0.052 C 
ATOM     10  C   UNL     1       0.798  -3.083  28.859  0.00  0.00    +0.032 C 
ATOM     11  C   UNL     1       2.159  -2.918  28.818  0.00  0.00    +0.003 C 
ATOM     12  C   UNL     1       2.784  -2.462  27.683  0.00  0.00    +0.000 C 
ATOM     13  C   UNL     1       2.069  -2.159  26.559  0.00  0.00    +0.001 C 
ATOM     14  C   UNL     1       0.698  -2.310  26.556  0.00  0.00    +0.015 C 
ATOM     15  H   UNL     1      -1.768  -2.399  26.834  0.00  0.00    +0.155 HD
ENDBRANCH   1   5
BRANCH   1  16
ATOM     16  S   UNL     1      -3.416  -3.400  31.570  0.00  0.00    -0.012 S 
ATOM     17  H   UNL     1      -2.173  -2.912  31.830  0.00  0.00    +0.138 HD
BRANCH  16  18
ATOM     18  C   UNL     1      -4.183  -3.827  32.971  0.00  0.00    +0.125 C 
ATOM     19  S   UNL     1      -5.750  -3.381  33.265  0.00  0.00    -0.026 S 
BRANCH  18  20
ATOM     20  N   UNL     1      -3.563  -4.581  33.998  0.00  0.00    -0.346 N 
ATOM     21  H   UNL     1      -2.631  -4.882  33.894  0.00  0.00    +0.143 HD
ATOM     22  H   UNL     1      -4.064  -4.804  34.816  0.00  0.00    +0.143 HD
ENDBRANCH  18  20
ENDBRANCH  16  18
BRANCH  16  23
ATOM     23  O   UNL     1      -4.331  -2.428  30.897  0.00  0.00    -0.388 OA
BRANCH  23  24
ATOM     24  C   UNL     1      -4.243  -1.058  30.743  0.00  0.00    +0.409 C 
ATOM     25  O   UNL     1      -3.603  -0.623  29.751  0.00  0.00    -0.226 OA
ATOM     26  N   UNL     1      -4.860  -0.153  31.681  0.00  0.00    -0.294 N 
ATOM     27  H   UNL     1      -5.358  -0.508  32.453  0.00  0.00    +0.148 HD
ATOM     28  H   UNL     1      -4.783   0.820  31.550  0.00  0.00    +0.148 HD
ENDBRANCH  23  24
ENDBRANCH  16  23
ENDBRANCH   1  16
BRANCH   1  29
ATOM     29  C   UNL     1      -2.969  -6.233  31.228  0.00  0.00    +0.097 C 
ATOM     30  S   UNL     1      -4.145  -7.398  31.390  0.00  0.00    -0.029 S 
BRANCH  29  31
ATOM     31  N   UNL     1      -1.750  -6.613  31.859  0.00  0.00    -0.348 N 
ATOM     32  H   UNL     1      -0.974  -6.008  31.835  0.00  0.00    +0.143 HD
ATOM     33  H   UNL     1      -1.684  -7.481  32.320  0.00  0.00    +0.143 HD
ENDBRANCH  29  31
ENDBRANCH   1  29
TORSDOF 8
