REMARK  Name = =
REMARK  15 active torsions:
REMARK  status: ('A' for Active; 'I' for Inactive)
REMARK    1  A    between atoms: C_1  and  O_4
REMARK    2  A    between atoms: N_3  and  O_25
REMARK    3  A    between atoms: O_4  and  S_5
REMARK    4  A    between atoms: S_5  and  S_6
REMARK    5  A    between atoms: S_5  and  C_22
REMARK    6  A    between atoms: S_6  and  C_9
REMARK    7  A    between atoms: S_6  and  C_19
REMARK    8  A    between atoms: C_19  and  N_21
REMARK    9  A    between atoms: C_22  and  N_24
REMARK   10  A    between atoms: O_25  and  C_26
REMARK   11  A    between atoms: C_27  and  O_46
REMARK   12  A    between atoms: C_29  and  C_32
REMARK   13  A    between atoms: C_33  and  O_45
REMARK   14  A    between atoms: C_37  and  O_44
REMARK   15  A    between atoms: C_39  and  O_43
REMARK                            x       y       z     vdW  Elec       q    Type
REMARK                         _______ _______ _______ _____ _____    ______ ____
ROOT
ATOM      1  C   UNL     1      -7.715  -2.033  31.499  0.00  0.00    +0.444 C 
ATOM      2  O   UNL     1      -8.043  -1.327  32.452  0.00  0.00    -0.222 OA
ATOM      3  N   UNL     1      -8.438  -1.920  30.229  0.00  0.00    -0.112 N 
ATOM      4  H   UNL     1      -8.184  -2.507  29.480  0.00  0.00    +0.199 HD
ENDROOT
BRANCH   1   5
ATOM      5  O   UNL     1      -6.656  -2.918  31.636  0.00  0.00    -0.386 OA
BRANCH   5   6
ATOM      6  S   UNL     1      -5.681  -2.761  32.867  0.00  0.00    -0.012 S 
ATOM      7  H   UNL     1      -6.038  -3.536  33.926  0.00  0.00    +0.138 HD
BRANCH   6   8
ATOM      8  S   UNL     1      -3.943  -3.063  32.303  0.00  0.00    -0.104 S 
ATOM      9  H   UNL     1      -3.109  -2.042  32.638  0.00  0.00    +0.103 HD
BRANCH   8  12
ATOM     10  C   UNL     1      -1.435  -2.818  29.927  0.00  0.00    +0.096 C 
ATOM     11  N   UNL     1      -2.713  -2.524  30.110  0.00  0.00    -0.251 NA
ATOM     12  C   UNL     1      -3.827  -3.244  30.720  0.00  0.00    +0.222 C 
ATOM     13  C   UNL     1      -3.890  -4.623  30.185  0.00  0.00    +0.258 C 
ATOM     14  O   UNL     1      -4.921  -5.074  29.632  0.00  0.00    -0.272 OA
ATOM     15  N   UNL     1      -2.816  -5.612  30.229  0.00  0.00    -0.282 N 
ATOM     16  C   UNL     1      -1.464  -5.344  30.540  0.00  0.00    +0.052 C 
ATOM     17  C   UNL     1      -0.850  -4.107  30.380  0.00  0.00    +0.032 C 
ATOM     18  C   UNL     1       0.504  -3.914  30.730  0.00  0.00    +0.003 C 
ATOM     19  C   UNL     1       1.192  -4.978  31.233  0.00  0.00    +0.000 C 
ATOM     20  C   UNL     1       0.583  -6.234  31.394  0.00  0.00    +0.001 C 
ATOM     21  C   UNL     1      -0.703  -6.390  31.050  0.00  0.00    +0.015 C 
ATOM     22  H   UNL     1      -3.055  -6.545  30.024  0.00  0.00    +0.155 HD
ENDBRANCH   8  12
BRANCH   8  23
ATOM     23  C   UNL     1      -3.655  -4.534  32.975  0.00  0.00    +0.097 C 
ATOM     24  S   UNL     1      -4.870  -5.686  32.974  0.00  0.00    -0.029 S 
BRANCH  23  25
ATOM     25  N   UNL     1      -2.474  -4.972  33.592  0.00  0.00    -0.348 N 
ATOM     26  H   UNL     1      -1.696  -4.372  33.647  0.00  0.00    +0.143 HD
ATOM     27  H   UNL     1      -2.423  -5.880  33.970  0.00  0.00    +0.143 HD
ENDBRANCH  23  25
ENDBRANCH   8  23
ENDBRANCH   6   8
BRANCH   6  28
ATOM     28  C   UNL     1      -5.652  -1.089  33.005  0.00  0.00    +0.125 C 
ATOM     29  S   UNL     1      -5.171  -0.129  31.767  0.00  0.00    -0.026 S 
BRANCH  28  30
ATOM     30  N   UNL     1      -6.012  -0.419  34.192  0.00  0.00    -0.346 N 
ATOM     31  H   UNL     1      -6.311  -0.933  34.976  0.00  0.00    +0.143 HD
ATOM     32  H   UNL     1      -5.965   0.563  34.237  0.00  0.00    +0.143 HD
ENDBRANCH  28  30
ENDBRANCH   6  28
ENDBRANCH   5   6
ENDBRANCH   1   5
BRANCH   3  33
ATOM     33  O   UNL     1      -9.374  -1.094  30.069  0.00  0.00    -0.378 OA
BRANCH  33  34
ATOM     34  C   UNL     1     -10.383  -0.213  29.924  0.00  0.00    +0.204 C 
ATOM     35  C   UNL     1     -11.675  -0.684  29.813  0.00  0.00    +0.171 C 
ATOM     36  C   UNL     1     -12.773   0.185  29.666  0.00  0.00    +0.043 C 
ATOM     37  C   UNL     1     -12.453   1.539  29.623  0.00  0.00    +0.041 C 
ATOM     38  C   UNL     1     -11.245   2.044  29.741  0.00  0.00    +0.007 C 
ATOM     39  C   UNL     1     -10.134   1.161  29.900  0.00  0.00    +0.043 C 
BRANCH  37  40
ATOM     40  C   UNL     1     -13.563   2.368  28.964  0.00  0.00    +0.182 A 
ATOM     41  C   UNL     1     -13.171   3.313  28.018  0.00  0.00    +0.208 A 
ATOM     42  C   UNL     1     -14.106   4.067  27.349  0.00  0.00    +0.238 A 
ATOM     43  O   UNL     1     -13.798   4.918  26.474  0.00  0.00    -0.283 OA
ATOM     44  C   UNL     1     -15.475   3.869  27.639  0.00  0.00    +0.110 A 
ATOM     45  C   UNL     1     -16.480   4.613  26.956  0.00  0.00    +0.143 C 
ATOM     46  C   UNL     1     -17.783   4.331  27.277  0.00  0.00    +0.073 C 
ATOM     47  C   UNL     1     -18.092   3.357  28.235  0.00  0.00    +0.140 C 
ATOM     48  C   UNL     1     -17.063   2.650  28.892  0.00  0.00    +0.074 C 
ATOM     49  C   UNL     1     -15.759   2.909  28.586  0.00  0.00    +0.155 A 
ATOM     50  O   UNL     1     -14.792   2.195  29.214  0.00  0.00    -0.450 OA
BRANCH  47  51
ATOM     51  O   UNL     1     -19.410   3.087  28.523  0.00  0.00    -0.505 OA
ATOM     52  H   UNL     1     -20.091   3.558  28.085  0.00  0.00    +0.292 HD
ENDBRANCH  47  51
BRANCH  45  53
ATOM     53  O   UNL     1     -16.131   5.558  26.027  0.00  0.00    -0.505 OA
ATOM     54  H   UNL     1     -16.796   6.044  25.581  0.00  0.00    +0.292 HD
ENDBRANCH  45  53
BRANCH  41  55
ATOM     55  O   UNL     1     -11.844   3.519  27.731  0.00  0.00    -0.501 OA
ATOM     56  H   UNL     1     -11.186   3.019  28.172  0.00  0.00    +0.292 HD
ENDBRANCH  41  55
ENDBRANCH  37  40
BRANCH  35  57
ATOM     57  O   UNL     1     -11.844  -2.083  29.870  0.00  0.00    -0.503 OA
ATOM     58  H   UNL     1     -11.098  -2.641  29.968  0.00  0.00    +0.292 HD
ENDBRANCH  35  57
ENDBRANCH  33  34
ENDBRANCH   3  33
TORSDOF 15
