REMARK  Name = =
REMARK  5 active torsions:
REMARK  status: ('A' for Active; 'I' for Inactive)
REMARK    1  A    between atoms: N_1  and  C_6
REMARK    2  A    between atoms: C_5  and  C_27
REMARK    3  A    between atoms: C_13  and  C_16
REMARK    4  A    between atoms: C_27  and  N_33
REMARK    5  A    between atoms: C_34  and  C_36
REMARK                            x       y       z     vdW  Elec       q    Type
REMARK                         _______ _______ _______ _____ _____    ______ ____
ROOT
ATOM      1  N   UNL     1       0.850  -6.024  31.214  0.00  0.00    -0.251 N 
ATOM      2  C   UNL     1       2.070  -5.878  31.890  0.00  0.00    +0.171 C 
ATOM      3  N   UNL     1       1.878  -6.346  33.117  0.00  0.00    -0.225 NA
ATOM      4  C   UNL     1       0.647  -6.766  33.238  0.00  0.00    +0.115 C 
ATOM      5  C   UNL     1      -0.059  -6.566  31.996  0.00  0.00    +0.100 C 
ENDROOT
BRANCH   1   6
ATOM      6  C   UNL     1       0.827  -5.680  29.859  0.00  0.00    +0.035 C 
ATOM      7  C   UNL     1       0.073  -4.808  29.285  0.00  0.00    -0.010 C 
ATOM      8  C   UNL     1       0.044  -4.448  27.825  0.00  0.00    +0.053 C 
ATOM      9  C   UNL     1       1.461  -4.533  27.375  0.00  0.00    -0.022 C 
ATOM     10  C   UNL     1       2.313  -5.505  27.929  0.00  0.00    -0.020 C 
ATOM     11  C   UNL     1       3.640  -5.611  27.578  0.00  0.00    -0.005 C 
ATOM     12  C   UNL     1       4.182  -4.743  26.648  0.00  0.00    -0.005 C 
ATOM     13  C   UNL     1       3.368  -3.789  26.095  0.00  0.00    -0.023 C 
ATOM     14  C   UNL     1       2.041  -3.694  26.452  0.00  0.00    -0.009 C 
ATOM     15  C   UNL     1       1.731  -6.429  28.906  0.00  0.00    +0.067 C 
BRANCH  13  16
ATOM     16  C   UNL     1       4.006  -2.873  25.131  0.00  0.00    +0.023 C 
ATOM     17  C   UNL     1       3.621  -3.103  23.680  0.00  0.00    +0.008 C 
ATOM     18  C   UNL     1       4.453  -2.023  22.948  0.00  0.00    +0.019 C 
ATOM     19  C   UNL     1       3.669  -0.786  22.978  0.00  0.00    +0.004 C 
ATOM     20  C   UNL     1       3.070  -0.681  24.386  0.00  0.00    +0.001 C 
ATOM     21  C   UNL     1       3.883  -1.419  25.409  0.00  0.00    +0.004 C 
ATOM     22  C   UNL     1       4.976  -2.542  21.684  0.00  0.00    -0.045 C 
ATOM     23  C   UNL     1       4.688  -2.002  20.587  0.00  0.00    -0.009 C 
ATOM     24  C   UNL     1       5.895  -3.732  21.776  0.00  0.00    +0.022 C 
ATOM     25  C   UNL     1       5.407  -4.689  22.822  0.00  0.00    +0.004 C 
ATOM     26  C   UNL     1       3.952  -4.448  23.138  0.00  0.00    +0.001 C 
ENDBRANCH  13  16
ENDBRANCH   1   6
BRANCH   5  27
ATOM     27  C   UNL     1      -1.442  -7.034  31.875  0.00  0.00    +0.206 C 
ATOM     28  O   UNL     1      -1.808  -7.193  30.539  0.00  0.00    -0.333 OA
ATOM     29  C   UNL     1      -1.676  -8.475  30.070  0.00  0.00    +0.149 C 
ATOM     30  C   UNL     1      -2.653  -9.361  30.756  0.00  0.00    +0.058 C 
ATOM     31  C   UNL     1      -2.538  -9.299  32.233  0.00  0.00    -0.024 C 
ATOM     32  C   UNL     1      -2.055  -7.993  32.785  0.00  0.00    +0.021 C 
BRANCH  27  33
ATOM     33  N   UNL     1      -2.217  -5.763  32.176  0.00  0.00    -0.275 N 
ATOM     34  C   UNL     1      -3.562  -5.661  31.759  0.00  0.00    +0.249 C 
ATOM     35  O   UNL     1      -4.165  -6.545  31.141  0.00  0.00    -0.270 OA
ATOM     36  H   UNL     1      -1.787  -5.019  32.656  0.00  0.00    +0.152 HD
BRANCH  34  37
ATOM     37  C   UNL     1      -4.270  -4.416  32.100  0.00  0.00    +0.073 C 
ATOM     38  C   UNL     1      -4.450  -4.091  33.473  0.00  0.00    +0.103 C 
ATOM     39  N   UNL     1      -5.169  -2.991  33.685  0.00  0.00    -0.242 NA
ATOM     40  C   UNL     1      -5.709  -2.215  32.706  0.00  0.00    +0.099 C 
ATOM     41  C   UNL     1      -5.547  -2.518  31.406  0.00  0.00    +0.021 C 
ATOM     42  C   UNL     1      -4.794  -3.665  31.092  0.00  0.00    +0.008 C 
ENDBRANCH  34  37
ENDBRANCH  27  33
ENDBRANCH   5  27
TORSDOF 5
