REMARK  Name = =
REMARK  2 active torsions:
REMARK  status: ('A' for Active; 'I' for Inactive)
REMARK    1  A    between atoms: O_1  and  N_2
REMARK    2  A    between atoms: O_1  and  C_3
REMARK                            x       y       z     vdW  Elec       q    Type
REMARK                         _______ _______ _______ _____ _____    ______ ____
ROOT
ATOM      1  O   UNL     1      51.313 155.061  28.601  0.00  0.00    -0.364 OA
ENDROOT
BRANCH   1   2
ATOM      2  N   UNL     1      50.899 155.999  29.512  0.00  0.00    -0.165 NA
ATOM      3  H   UNL     1      50.049 155.674  29.972  0.00  0.00    +0.163 HD
ATOM      4  H   UNL     1      50.711 156.879  29.032  0.00  0.00    +0.163 HD
ENDBRANCH   1   2
BRANCH   1   5
ATOM      5  C   UNL     1      52.435 155.199  27.812  0.00  0.00    +0.437 C 
ATOM      6  O   UNL     1      53.125 156.236  27.905  0.00  0.00    -0.236 OA
ENDBRANCH   1   5
TORSDOF 2
