REMARK  Name = =
REMARK  0 active torsions:
REMARK  status: ('A' for Active; 'I' for Inactive)
REMARK                            x       y       z     vdW  Elec       q    Type
REMARK                         _______ _______ _______ _____ _____    ______ ____
ROOT
ATOM      1  C   UNL     1      49.795 156.947  29.929  0.00  0.00    +0.003 C 
ATOM      2  C   UNL     1      49.997 158.252  30.326  0.00  0.00    +0.018 C 
ATOM      3  C   UNL     1      51.182 158.867  29.978  0.00  0.00    +0.081 C 
ATOM      4  N   UNL     1      52.101 158.166  29.264  0.00  0.00    -0.245 NA
ATOM      5  C   UNL     1      51.907 156.895  28.877  0.00  0.00    +0.081 C 
ATOM      6  C   UNL     1      50.734 156.249  29.207  0.00  0.00    +0.018 C 
ATOM      7  C   UNL     1      50.572 154.946  28.792  0.00  0.00    +0.001 C 
ATOM      8  C   UNL     1      51.561 154.308  28.067  0.00  0.00    +0.000 C 
ATOM      9  C   UNL     1      52.729 154.964  27.743  0.00  0.00    +0.002 C 
ATOM     10  C   UNL     1      52.911 156.259  28.145  0.00  0.00    +0.019 C 
ATOM     11  C   UNL     1      51.467 160.179  30.336  0.00  0.00    +0.019 C 
ATOM     12  C   UNL     1      50.555 160.909  31.059  0.00  0.00    +0.002 C 
ATOM     13  C   UNL     1      49.374 160.283  31.399  0.00  0.00    +0.000 C 
ATOM     14  C   UNL     1      49.079 158.981  31.051  0.00  0.00    +0.001 C 
ENDROOT
TORSDOF 0
