REMARK  Name = =
REMARK  5 active torsions:
REMARK  status: ('A' for Active; 'I' for Inactive)
REMARK    1  A    between atoms: C_1  and  C_3
REMARK    2  A    between atoms: C_1  and  O_7
REMARK    3  A    between atoms: C_4  and  S_5
REMARK    4  A    between atoms: S_5  and  S_6
REMARK    5  A    between atoms: O_7  and  N_8
REMARK                            x       y       z     vdW  Elec       q    Type
REMARK                         _______ _______ _______ _____ _____    ______ ____
ROOT
ATOM      1  C   UNL     1      52.020 155.100  28.538  0.00  0.00    +0.359 C 
ATOM      2  O   UNL     1      52.385 154.073  29.159  0.00  0.00    -0.243 OA
ENDROOT
BRANCH   1   3
ATOM      3  C   UNL     1      52.064 156.429  29.138  0.00  0.00    +0.091 C 
ATOM      4  C   UNL     1      50.950 157.053  29.426  0.00  0.00    +0.048 C 
BRANCH   4   5
ATOM      5  S   UNL     1      50.973 158.677  30.159  0.00  0.00    -0.058 S 
BRANCH   5   6
ATOM      6  S   UNL     1      49.092 159.178  30.973  0.00  0.00    -0.105 S 
ATOM      7  H   UNL     1      49.152 160.421  31.521  0.00  0.00    +0.114 HD
ENDBRANCH   5   6
ENDBRANCH   4   5
ENDBRANCH   1   3
BRANCH   1   8
ATOM      8  O   UNL     1      51.563 154.929  27.237  0.00  0.00    -0.368 OA
BRANCH   8   9
ATOM      9  N   UNL     1      51.688 153.752  26.541  0.00  0.00    -0.165 NA
ATOM     10  H   UNL     1      51.283 153.862  25.612  0.00  0.00    +0.163 HD
ATOM     11  H   UNL     1      51.199 153.009  27.040  0.00  0.00    +0.163 HD
ENDBRANCH   8   9
ENDBRANCH   1   8
TORSDOF 5
