REMARK  Name = =
REMARK  2 active torsions:
REMARK  status: ('A' for Active; 'I' for Inactive)
REMARK    1  A    between atoms: C_1  and  S_15
REMARK    2  A    between atoms: C_16  and  N_17
REMARK                            x       y       z     vdW  Elec       q    Type
REMARK                         _______ _______ _______ _____ _____    ______ ____
ROOT
ATOM      1  C   UNL     1      50.712 157.955  29.962  0.00  0.00    +0.021 A 
ATOM      2  C   UNL     1      50.681 159.111  30.702  0.00  0.00    +0.023 A 
ATOM      3  C   UNL     1      51.736 160.021  30.685  0.00  0.00    +0.082 A 
ATOM      4  N   UNL     1      52.807 159.764  29.930  0.00  0.00    -0.245 NA
ATOM      5  C   UNL     1      52.864 158.649  29.203  0.00  0.00    +0.082 A 
ATOM      6  C   UNL     1      51.824 157.714  29.196  0.00  0.00    +0.023 A 
ATOM      7  C   UNL     1      51.942 156.593  28.430  0.00  0.00    +0.002 C 
ATOM      8  C   UNL     1      53.067 156.362  27.662  0.00  0.00    +0.000 C 
ATOM      9  C   UNL     1      54.113 157.266  27.647  0.00  0.00    +0.002 C 
ATOM     10  C   UNL     1      53.984 158.388  28.419  0.00  0.00    +0.019 C 
ATOM     11  C   UNL     1      51.676 161.191  31.449  0.00  0.00    +0.019 C 
ATOM     12  C   UNL     1      50.575 161.450  32.222  0.00  0.00    +0.002 C 
ATOM     13  C   UNL     1      49.524 160.568  32.254  0.00  0.00    +0.000 C 
ATOM     14  C   UNL     1      49.599 159.425  31.498  0.00  0.00    +0.002 C 
ENDROOT
BRANCH   1  15
ATOM     15  S   UNL     1      49.334 156.817  30.016  0.00  0.00    -0.145 S 
ATOM     16  C   UNL     1      48.275 156.678  28.779  0.00  0.00    +0.078 C 
ATOM     17  H   UNL     1      48.600 157.160  31.108  0.00  0.00    +0.103 HD
BRANCH  16  18
ATOM     18  N   UNL     1      47.195 155.760  28.863  0.00  0.00    -0.352 N 
ATOM     19  H   UNL     1      46.559 155.679  28.116  0.00  0.00    +0.143 HD
ATOM     20  H   UNL     1      47.082 155.205  29.668  0.00  0.00    +0.143 HD
ENDBRANCH  16  18
ENDBRANCH   1  15
TORSDOF 2
