REMARK  Name = =
REMARK  6 active torsions:
REMARK  status: ('A' for Active; 'I' for Inactive)
REMARK    1  A    between atoms: C_1  and  C_3
REMARK    2  A    between atoms: C_1  and  C_8
REMARK    3  A    between atoms: C_2  and  S_12
REMARK    4  A    between atoms: C_8  and  O_10
REMARK    5  A    between atoms: O_10  and  N_11
REMARK    6  A    between atoms: S_12  and  S_13
REMARK                            x       y       z     vdW  Elec       q    Type
REMARK                         _______ _______ _______ _____ _____    ______ ____
ROOT
ATOM      1  C   UNL     1      52.304 155.309  27.802  0.00  0.00    +0.094 C 
ATOM      2  C   UNL     1      51.208 154.807  28.293  0.00  0.00    +0.047 C 
ENDROOT
BRANCH   1   3
ATOM      3  C   UNL     1      53.150 156.162  28.645  0.00  0.00    +0.173 C 
ATOM      4  N   UNL     1      53.453 157.443  28.035  0.00  0.00    -0.192 NA
ATOM      5  N   UNL     1      52.401 158.281  28.459  0.00  0.00    -0.040 NA
ATOM      6  N   UNL     1      51.866 157.793  29.527  0.00  0.00    -0.040 NA
ATOM      7  N   UNL     1      52.526 156.609  29.871  0.00  0.00    -0.192 NA
ATOM      8  H   UNL     1      54.352 157.796  28.362  0.00  0.00    +0.146 HD
ATOM      9  H   UNL     1      53.229 156.785  30.588  0.00  0.00    +0.146 HD
ENDBRANCH   1   3
BRANCH   1  10
ATOM     10  C   UNL     1      52.685 155.030  26.436  0.00  0.00    +0.358 C 
ATOM     11  O   UNL     1      51.929 154.371  25.642  0.00  0.00    -0.243 OA
BRANCH  10  12
ATOM     12  O   UNL     1      53.894 155.453  25.883  0.00  0.00    -0.368 OA
BRANCH  12  13
ATOM     13  N   UNL     1      54.326 154.955  24.675  0.00  0.00    -0.165 NA
ATOM     14  H   UNL     1      55.223 155.377  24.434  0.00  0.00    +0.163 HD
ATOM     15  H   UNL     1      53.641 155.175  23.952  0.00  0.00    +0.163 HD
ENDBRANCH  12  13
ENDBRANCH  10  12
ENDBRANCH   1  10
BRANCH   2  16
ATOM     16  S   UNL     1      50.567 155.024  29.925  0.00  0.00    -0.059 S 
BRANCH  16  17
ATOM     17  S   UNL     1      49.157 156.616  29.913  0.00  0.00    -0.105 S 
ATOM     18  H   UNL     1      48.659 156.790  31.166  0.00  0.00    +0.114 HD
ENDBRANCH  16  17
ENDBRANCH   2  16
TORSDOF 6
