REMARK  Name = =
REMARK  7 active torsions:
REMARK  status: ('A' for Active; 'I' for Inactive)
REMARK    1  A    between atoms: C_1  and  S_15
REMARK    2  A    between atoms: S_15  and  C_16
REMARK    3  A    between atoms: C_16  and  N_17
REMARK    4  A    between atoms: C_16  and  S_18
REMARK    5  A    between atoms: S_18  and  P_19
REMARK    6  A    between atoms: P_19  and  O_21
REMARK    7  A    between atoms: P_19  and  O_22
REMARK                            x       y       z     vdW  Elec       q    Type
REMARK                         _______ _______ _______ _____ _____    ______ ____
ROOT
ATOM      1  C   UNL     1      50.165 158.863  29.981  0.00  0.00    +0.018 A 
ATOM      2  C   UNL     1      50.111 159.972  30.797  0.00  0.00    +0.022 A 
ATOM      3  C   UNL     1      51.260 160.675  31.147  0.00  0.00    +0.082 A 
ATOM      4  N   UNL     1      52.456 160.275  30.687  0.00  0.00    -0.245 NA
ATOM      5  C   UNL     1      52.557 159.206  29.894  0.00  0.00    +0.082 A 
ATOM      6  C   UNL     1      51.412 158.484  29.529  0.00  0.00    +0.022 A 
ATOM      7  C   UNL     1      51.553 157.390  28.712  0.00  0.00    +0.002 C 
ATOM      8  C   UNL     1      52.793 157.013  28.262  0.00  0.00    +0.000 C 
ATOM      9  C   UNL     1      53.906 157.737  28.633  0.00  0.00    +0.002 C 
ATOM     10  C   UNL     1      53.808 158.841  29.452  0.00  0.00    +0.019 C 
ATOM     11  C   UNL     1      51.178 161.795  31.976  0.00  0.00    +0.019 C 
ATOM     12  C   UNL     1      49.955 162.215  32.454  0.00  0.00    +0.002 C 
ATOM     13  C   UNL     1      48.818 161.500  32.094  0.00  0.00    +0.000 C 
ATOM     14  C   UNL     1      48.909 160.395  31.276  0.00  0.00    +0.002 C 
ENDROOT
BRANCH   1  15
ATOM     15  S   UNL     1      48.716 157.937  29.511  0.00  0.00    -0.158 S 
ATOM     16  H   UNL     1      47.962 157.877  30.641  0.00  0.00    +0.099 HD
BRANCH  15  17
ATOM     17  C   UNL     1      47.681 158.274  28.350  0.00  0.00    +0.151 C 
BRANCH  17  18
ATOM     18  N   UNL     1      46.573 157.434  28.097  0.00  0.00    -0.305 NA
ATOM     19  H   UNL     1      46.030 157.812  27.321  0.00  0.00    +0.120 HD
ATOM     20  H   UNL     1      45.987 157.384  28.930  0.00  0.00    +0.120 HD
ENDBRANCH  17  18
BRANCH  17  21
ATOM     21  S   UNL     1      47.884 159.721  27.332  0.00  0.00    -0.006 S 
BRANCH  21  22
ATOM     22  P   UNL     1      46.999 159.511  25.448  0.00  0.00    +0.389 P 
ATOM     23  O   UNL     1      46.398 160.861  25.067  0.00  0.00    -0.246 OA
BRANCH  22  24
ATOM     24  O   UNL     1      45.758 158.392  25.423  0.00  0.00    -0.316 OA
ATOM     25  H   UNL     1      45.113 158.609  26.115  0.00  0.00    +0.221 HD
ENDBRANCH  22  24
BRANCH  22  26
ATOM     26  O   UNL     1      48.159 159.168  24.245  0.00  0.00    -0.316 OA
ATOM     27  H   UNL     1      48.867 159.830  24.280  0.00  0.00    +0.221 HD
ENDBRANCH  22  26
ENDBRANCH  21  22
ENDBRANCH  17  21
ENDBRANCH  15  17
ENDBRANCH   1  15
TORSDOF 7
