REMARK  Name = =
REMARK  7 active torsions:
REMARK  status: ('A' for Active; 'I' for Inactive)
REMARK    1  A    between atoms: C_1  and  C_6
REMARK    2  A    between atoms: C_1  and  C_11
REMARK    3  A    between atoms: C_11  and  C_13
REMARK    4  A    between atoms: C_12  and  S_17
REMARK    5  A    between atoms: C_13  and  O_15
REMARK    6  A    between atoms: O_15  and  N_16
REMARK    7  A    between atoms: S_17  and  S_18
REMARK                            x       y       z     vdW  Elec       q    Type
REMARK                         _______ _______ _______ _____ _____    ______ ____
ROOT
ATOM      1  C   UNL     1      52.887 154.684  26.226  0.00  0.00    +0.194 C 
ATOM      2  N   UNL     1      53.817 154.162  25.273  0.00  0.00    -0.189 NA
ATOM      3  N   UNL     1      53.294 154.539  24.010  0.00  0.00    -0.039 NA
ATOM      4  N   UNL     1      52.057 154.817  24.125  0.00  0.00    -0.039 NA
ATOM      5  N   UNL     1      51.652 154.652  25.452  0.00  0.00    -0.189 NA
ATOM      6  H   UNL     1      53.876 153.147  25.348  0.00  0.00    +0.147 HD
ATOM      7  H   UNL     1      51.175 153.759  25.574  0.00  0.00    +0.147 HD
ENDROOT
BRANCH   1   8
ATOM      8  C   UNL     1      52.697 153.768  27.391  0.00  0.00    +0.156 C 
ATOM      9  O   UNL     1      53.526 153.695  28.404  0.00  0.00    -0.452 OA
ATOM     10  C   UNL     1      53.092 152.800  29.270  0.00  0.00    +0.179 C 
ATOM     11  C   UNL     1      51.911 152.258  28.797  0.00  0.00    +0.044 C 
ATOM     12  C   UNL     1      51.670 152.887  27.592  0.00  0.00    +0.039 C 
ENDBRANCH   1   8
BRANCH   1  13
ATOM     13  C   UNL     1      53.161 156.059  26.672  0.00  0.00    +0.098 C 
ATOM     14  C   UNL     1      54.036 156.827  26.081  0.00  0.00    +0.047 C 
BRANCH  13  15
ATOM     15  C   UNL     1      52.433 156.593  27.813  0.00  0.00    +0.358 C 
ATOM     16  O   UNL     1      51.390 156.026  28.224  0.00  0.00    -0.243 OA
BRANCH  15  17
ATOM     17  O   UNL     1      52.837 157.732  28.494  0.00  0.00    -0.368 OA
BRANCH  17  18
ATOM     18  N   UNL     1      52.081 158.268  29.535  0.00  0.00    -0.165 NA
ATOM     19  H   UNL     1      52.547 159.098  29.901  0.00  0.00    +0.163 HD
ATOM     20  H   UNL     1      51.987 157.576  30.278  0.00  0.00    +0.163 HD
ENDBRANCH  17  18
ENDBRANCH  15  17
ENDBRANCH  13  15
BRANCH  14  21
ATOM     21  S   UNL     1      55.021 156.339  24.669  0.00  0.00    -0.059 S 
BRANCH  21  22
ATOM     22  S   UNL     1      54.928 157.932  23.255  0.00  0.00    -0.105 S 
ATOM     23  H   UNL     1      55.664 157.608  22.158  0.00  0.00    +0.114 HD
ENDBRANCH  21  22
ENDBRANCH  14  21
ENDBRANCH   1  13
TORSDOF 7
