REMARK  Name = =
REMARK  10 active torsions:
REMARK  status: ('A' for Active; 'I' for Inactive)
REMARK    1  A    between atoms: C_1  and  C_6
REMARK    2  A    between atoms: C_1  and  C_17
REMARK    3  A    between atoms: C_8  and  N_11
REMARK    4  A    between atoms: N_11  and  N_12
REMARK    5  A    between atoms: N_11  and  O_16
REMARK    6  A    between atoms: C_17  and  C_19
REMARK    7  A    between atoms: C_18  and  S_23
REMARK    8  A    between atoms: C_19  and  O_21
REMARK    9  A    between atoms: O_21  and  N_22
REMARK   10  A    between atoms: S_23  and  S_24
REMARK                            x       y       z     vdW  Elec       q    Type
REMARK                         _______ _______ _______ _____ _____    ______ ____
ROOT
ATOM      1  C   UNL     1      52.820 153.657  27.269  0.00  0.00    +0.194 C 
ATOM      2  N   UNL     1      53.609 153.068  28.361  0.00  0.00    -0.189 NA
ATOM      3  N   UNL     1      52.764 153.130  29.469  0.00  0.00    -0.039 NA
ATOM      4  N   UNL     1      51.542 153.176  29.080  0.00  0.00    -0.039 NA
ATOM      5  N   UNL     1      51.492 153.146  27.664  0.00  0.00    -0.189 NA
ATOM      6  H   UNL     1      54.459 153.607  28.524  0.00  0.00    +0.147 HD
ATOM      7  H   UNL     1      51.350 152.195  27.323  0.00  0.00    +0.147 HD
ENDROOT
BRANCH   1   8
ATOM      8  C   UNL     1      52.807 155.126  27.376  0.00  0.00    +0.158 C 
ATOM      9  O   UNL     1      52.349 155.892  28.349  0.00  0.00    -0.436 OA
ATOM     10  C   UNL     1      52.503 157.154  28.099  0.00  0.00    +0.248 C 
ATOM     11  C   UNL     1      53.110 157.248  26.868  0.00  0.00    +0.063 C 
ATOM     12  C   UNL     1      53.312 155.972  26.392  0.00  0.00    +0.041 C 
BRANCH  10  13
ATOM     13  N   UNL     1      52.143 158.285  28.893  0.00  0.00    -0.129 N 
BRANCH  13  14
ATOM     14  N   UNL     1      51.122 157.958  29.798  0.00  0.00    -0.184 N 
ATOM     15  C   UNL     1      50.318 159.018  30.297  0.00  0.00    +0.317 C 
ATOM     16  O   UNL     1      50.494 160.209  29.952  0.00  0.00    -0.251 OA
ATOM     17  N   UNL     1      49.280 158.712  31.216  0.00  0.00    -0.312 N 
ATOM     18  H   UNL     1      50.968 157.027  30.078  0.00  0.00    +0.179 HD
ATOM     19  H   UNL     1      49.130 157.780  31.496  0.00  0.00    +0.147 HD
ATOM     20  H   UNL     1      48.711 159.431  31.573  0.00  0.00    +0.147 HD
ENDBRANCH  13  14
BRANCH  13  21
ATOM     21  O   UNL     1      53.224 158.783  29.546  0.00  0.00    -0.266 OA
ATOM     22  H   UNL     1      53.917 159.002  28.904  0.00  0.00    +0.246 HD
ENDBRANCH  13  21
ENDBRANCH  10  13
ENDBRANCH   1   8
BRANCH   1  23
ATOM     23  C   UNL     1      53.222 153.133  25.974  0.00  0.00    +0.098 C 
ATOM     24  C   UNL     1      53.490 153.890  24.948  0.00  0.00    +0.047 C 
BRANCH  23  25
ATOM     25  C   UNL     1      53.336 151.677  25.827  0.00  0.00    +0.358 C 
ATOM     26  O   UNL     1      52.412 150.908  26.242  0.00  0.00    -0.243 OA
BRANCH  25  27
ATOM     27  O   UNL     1      54.439 151.085  25.239  0.00  0.00    -0.368 OA
BRANCH  27  28
ATOM     28  N   UNL     1      54.318 149.834  24.694  0.00  0.00    -0.165 NA
ATOM     29  H   UNL     1      55.215 149.545  24.305  0.00  0.00    +0.163 HD
ATOM     30  H   UNL     1      53.616 149.852  23.954  0.00  0.00    +0.163 HD
ENDBRANCH  27  28
ENDBRANCH  25  27
ENDBRANCH  23  25
BRANCH  24  31
ATOM     31  S   UNL     1      53.994 153.161  23.372  0.00  0.00    -0.059 S 
BRANCH  31  32
ATOM     32  S   UNL     1      55.491 154.316  22.444  0.00  0.00    -0.105 S 
ATOM     33  H   UNL     1      55.844 153.738  21.265  0.00  0.00    +0.114 HD
ENDBRANCH  31  32
ENDBRANCH  24  31
ENDBRANCH   1  23
TORSDOF 10
