REMARK  Name = =
REMARK  1 active torsions:
REMARK  status: ('A' for Active; 'I' for Inactive)
REMARK    1  A    between atoms: N_1  and  C_20
REMARK                            x       y       z     vdW  Elec       q    Type
REMARK                         _______ _______ _______ _____ _____    ______ ____
ROOT
ATOM      1  N   UNL     1      52.641 156.023  28.334  0.00  0.00    -0.263 NA
ATOM      2  C   UNL     1      51.970 155.418  27.247  0.00  0.00    +0.063 C 
ATOM      3  C   UNL     1      52.956 155.180  26.142  0.00  0.00    +0.023 C 
ATOM      4  C   UNL     1      53.826 154.046  26.604  0.00  0.00    +0.068 C 
ATOM      5  C   UNL     1      54.784 153.534  25.590  0.00  0.00    +0.226 C 
ATOM      6  O   UNL     1      54.873 152.150  25.995  0.00  0.00    -0.472 OA
ATOM      7  C   UNL     1      53.578 151.755  26.385  0.00  0.00    +0.135 C 
ATOM      8  C   UNL     1      52.925 152.879  26.756  0.00  0.00    +0.011 C 
ATOM      9  C   UNL     1      51.644 152.959  27.204  0.00  0.00    -0.022 C 
ATOM     10  C   UNL     1      50.948 151.774  27.288  0.00  0.00    -0.004 C 
ATOM     11  C   UNL     1      51.558 150.569  26.922  0.00  0.00    +0.003 C 
ATOM     12  C   UNL     1      52.883 150.568  26.468  0.00  0.00    +0.037 C 
ATOM     13  C   UNL     1      51.082 154.264  27.568  0.00  0.00    +0.042 C 
ATOM     14  C   UNL     1      54.143 153.498  24.252  0.00  0.00    +0.191 C 
ATOM     15  O   UNL     1      54.211 152.547  23.492  0.00  0.00    -0.292 OA
ATOM     16  C   UNL     1      53.368 154.682  23.797  0.00  0.00    +0.068 C 
ATOM     17  C   UNL     1      52.293 154.921  24.835  0.00  0.00    +0.010 C 
ATOM     18  C   UNL     1      54.431 154.338  27.939  0.00  0.00    +0.025 C 
ATOM     19  C   UNL     1      53.918 155.506  28.676  0.00  0.00    +0.073 C 
ENDROOT
BRANCH   1  20
ATOM     20  C   UNL     1      52.759 157.445  28.049  0.00  0.00    +0.182 C 
ATOM     21  C   UNL     1      51.456 158.030  27.640  0.00  0.00    +0.195 C 
ATOM     22  O   UNL     1      51.059 158.285  26.473  0.00  0.00    -0.289 OA
ATOM     23  C   UNL     1      50.703 158.258  28.870  0.00  0.00    +0.039 C 
ATOM     24  C   UNL     1      51.635 158.325  29.909  0.00  0.00    +0.039 C 
ATOM     25  C   UNL     1      51.210 158.536  31.209  0.00  0.00    +0.003 C 
ATOM     26  C   UNL     1      49.870 158.682  31.478  0.00  0.00    +0.000 C 
ATOM     27  C   UNL     1      48.966 158.614  30.436  0.00  0.00    +0.000 C 
ATOM     28  C   UNL     1      49.358 158.404  29.132  0.00  0.00    +0.003 C 
ATOM     29  C   UNL     1      52.978 158.139  29.346  0.00  0.00    +0.195 C 
ATOM     30  O   UNL     1      54.037 158.516  29.910  0.00  0.00    -0.289 OA
ENDBRANCH   1  20
TORSDOF 1
