REMARK  Name = =
REMARK  10 active torsions:
REMARK  status: ('A' for Active; 'I' for Inactive)
REMARK    1  A    between atoms: C_1  and  C_8
REMARK    2  A    between atoms: C_2  and  C_26
REMARK    3  A    between atoms: C_4  and  O_41
REMARK    4  A    between atoms: C_7  and  C_18
REMARK    5  A    between atoms: C_21  and  O_25
REMARK    6  A    between atoms: C_26  and  S_31
REMARK    7  A    between atoms: S_31  and  N_32
REMARK    8  A    between atoms: N_32  and  O_33
REMARK    9  A    between atoms: N_32  and  C_34
REMARK   10  A    between atoms: C_34  and  C_35
REMARK                            x       y       z     vdW  Elec       q    Type
REMARK                         _______ _______ _______ _____ _____    ______ ____
ROOT
ATOM      1  C   UNL     1      52.954 156.190  28.054  0.00  0.00    +0.016 C 
ATOM      2  C   UNL     1      52.001 156.713  28.883  0.00  0.00    +0.007 C 
ATOM      3  C   UNL     1      52.311 158.020  29.353  0.00  0.00    +0.035 C 
ATOM      4  C   UNL     1      53.440 158.701  29.023  0.00  0.00    +0.133 C 
ATOM      5  C   UNL     1      54.376 158.141  28.184  0.00  0.00    +0.037 C 
ATOM      6  C   UNL     1      54.114 156.876  27.706  0.00  0.00    +0.004 C 
ENDROOT
BRANCH   1   8
ATOM      7  C   UNL     1      53.184 154.582  26.251  0.00  0.00    +0.020 C 
ATOM      8  C   UNL     1      52.798 154.842  27.538  0.00  0.00    +0.082 C 
ATOM      9  N   UNL     1      52.302 153.887  28.348  0.00  0.00    -0.231 NA
ATOM     10  C   UNL     1      52.159 152.634  27.930  0.00  0.00    +0.135 C 
ATOM     11  C   UNL     1      52.536 152.310  26.623  0.00  0.00    +0.071 C 
ATOM     12  C   UNL     1      53.042 153.266  25.790  0.00  0.00    +0.008 C 
ATOM     13  C   UNL     1      52.401 151.023  26.148  0.00  0.00    +0.200 C 
ATOM     14  O   UNL     1      52.739 150.738  24.976  0.00  0.00    -0.286 OA
ATOM     15  C   UNL     1      51.890 150.052  26.977  0.00  0.00    +0.058 C 
ATOM     16  C   UNL     1      51.520 150.377  28.267  0.00  0.00    +0.066 C 
ATOM     17  N   UNL     1      51.668 151.637  28.684  0.00  0.00    -0.297 N 
ATOM     18  H   UNL     1      51.399 151.849  29.607  0.00  0.00    +0.154 HD
BRANCH   7  19
ATOM     19  C   UNL     1      53.798 155.567  25.332  0.00  0.00    +0.029 C 
ATOM     20  C   UNL     1      53.271 156.744  24.954  0.00  0.00    +0.143 C 
ATOM     21  C   UNL     1      53.925 157.612  24.075  0.00  0.00    +0.066 C 
ATOM     22  C   UNL     1      55.154 157.247  23.577  0.00  0.00    +0.136 C 
ATOM     23  C   UNL     1      55.729 156.039  23.943  0.00  0.00    +0.037 C 
ATOM     24  C   UNL     1      55.057 155.215  24.807  0.00  0.00    +0.005 C 
ATOM     25  F   UNL     1      52.081 157.149  25.387  0.00  0.00    -0.204 F 
BRANCH  22  26
ATOM     26  O   UNL     1      55.861 158.054  22.701  0.00  0.00    -0.505 OA
ATOM     27  H   UNL     1      56.696 157.777  22.379  0.00  0.00    +0.292 HD
ENDBRANCH  22  26
ENDBRANCH   7  19
ENDBRANCH   1   8
BRANCH   2  28
ATOM     28  C   UNL     1      50.745 156.205  29.274  0.00  0.00    +0.133 C 
ATOM     29  N   UNL     1      50.046 155.254  28.408  0.00  0.00    -0.273 NA
ATOM     30  C   UNL     1      48.819 154.999  29.195  0.00  0.00    +0.143 C 
ATOM     31  N   UNL     1      49.103 155.470  30.561  0.00  0.00    -0.282 NA
ATOM     32  C   UNL     1      50.605 155.358  30.527  0.00  0.00    +0.100 C 
ATOM     33  H   UNL     1      49.829 155.665  27.500  0.00  0.00    +0.126 HD
ATOM     34  H   UNL     1      48.688 154.865  31.270  0.00  0.00    +0.125 HD
BRANCH  28  35
ATOM     35  S   UNL     1      49.552 157.579  29.536  0.00  0.00    -0.021 S 
BRANCH  35  36
ATOM     36  N   UNL     1      50.121 158.737  30.666  0.00  0.00    -0.118 NA
BRANCH  36  37
ATOM     37  O   UNL     1      51.405 158.943  30.805  0.00  0.00    -0.301 OA
ATOM     38  H   UNL     1      51.878 158.100  30.724  0.00  0.00    +0.238 HD
ENDBRANCH  36  37
BRANCH  36  39
ATOM     39  C   UNL     1      49.263 159.862  30.755  0.00  0.00    +0.149 C 
BRANCH  39  40
ATOM     40  C   UNL     1      49.977 160.986  31.499  0.00  0.00    +0.148 C 
ATOM     41  N   UNL     1      50.286 160.541  32.833  0.00  0.00    -0.278 NA
ATOM     42  C   UNL     1      49.176 160.520  33.737  0.00  0.00    +0.098 C 
ATOM     43  C   UNL     1      48.404 161.788  33.725  0.00  0.00    +0.007 C 
ATOM     44  C   UNL     1      48.411 162.537  32.658  0.00  0.00    +0.056 C 
ATOM     45  N   UNL     1      49.143 162.169  31.493  0.00  0.00    -0.320 N 
ATOM     46  H   UNL     1      50.996 161.164  33.218  0.00  0.00    +0.125 HD
ATOM     47  H   UNL     1      49.081 162.721  30.680  0.00  0.00    +0.148 HD
ENDBRANCH  39  40
ENDBRANCH  36  39
ENDBRANCH  35  36
ENDBRANCH  28  35
ENDBRANCH   2  28
BRANCH   4  48
ATOM     48  O   UNL     1      53.676 159.989  29.529  0.00  0.00    -0.506 OA
ATOM     49  H   UNL     1      53.052 160.389  30.102  0.00  0.00    +0.292 HD
ENDBRANCH   4  48
TORSDOF 10
