REMARK  Name = =
REMARK  10 active torsions:
REMARK  status: ('A' for Active; 'I' for Inactive)
REMARK    1  A    between atoms: C_1  and  C_16
REMARK    2  A    between atoms: C_11  and  N_34
REMARK    3  A    between atoms: C_15  and  O_21
REMARK    4  A    between atoms: O_21  and  C_24
REMARK    5  A    between atoms: S_22  and  C_24
REMARK    6  A    between atoms: S_22  and  C_25
REMARK    7  A    between atoms: C_25  and  C_27
REMARK    8  A    between atoms: N_34  and  O_38
REMARK    9  A    between atoms: O_38  and  C_39
REMARK   10  A    between atoms: C_39  and  O_41
REMARK                            x       y       z     vdW  Elec       q    Type
REMARK                         _______ _______ _______ _____ _____    ______ ____
ROOT
ATOM      1  C   UNL     1     -16.576 -42.498  27.244  0.00  0.00    +0.020 C 
ATOM      2  C   UNL     1     -17.694 -42.076  26.569  0.00  0.00    -0.003 C 
ATOM      3  C   UNL     1     -17.748 -41.987  25.113  0.00  0.00    -0.003 C 
ATOM      4  C   UNL     1     -18.945 -41.687  24.513  0.00  0.00    -0.005 C 
ATOM      5  C   UNL     1     -20.237 -41.656  25.244  0.00  0.00    +0.032 C 
ATOM      6  C   UNL     1     -20.074 -41.301  26.662  0.00  0.00    +0.031 C 
ATOM      7  C   UNL     1     -18.850 -41.812  27.331  0.00  0.00    -0.022 C 
ATOM      8  C   UNL     1     -18.857 -41.966  28.703  0.00  0.00    -0.004 C 
ATOM      9  C   UNL     1     -17.713 -42.381  29.322  0.00  0.00    -0.000 C 
ATOM     10  C   UNL     1     -16.561 -42.657  28.661  0.00  0.00    +0.002 C 
ATOM     11  C   UNL     1     -19.017 -41.424  23.168  0.00  0.00    +0.090 C 
ATOM     12  C   UNL     1     -17.854 -41.466  22.422  0.00  0.00    +0.018 C 
ATOM     13  C   UNL     1     -16.660 -41.766  23.028  0.00  0.00    +0.001 C 
ATOM     14  C   UNL     1     -16.576 -42.034  24.401  0.00  0.00    -0.000 C 
ENDROOT
BRANCH   1  16
ATOM     15  C   UNL     1     -14.347 -43.484  27.357  0.00  0.00    +0.157 C 
ATOM     16  C   UNL     1     -15.402 -43.057  26.584  0.00  0.00    +0.115 C 
ATOM     17  N   UNL     1     -15.339 -43.261  25.262  0.00  0.00    -0.241 NA
ATOM     18  C   UNL     1     -14.336 -43.849  24.603  0.00  0.00    +0.099 C 
ATOM     19  C   UNL     1     -13.274 -44.281  25.365  0.00  0.00    +0.024 C 
ATOM     20  C   UNL     1     -13.282 -44.098  26.735  0.00  0.00    +0.040 C 
BRANCH  15  21
ATOM     21  O   UNL     1     -14.279 -43.338  28.727  0.00  0.00    -0.461 OA
BRANCH  21  22
ATOM     22  C   UNL     1     -13.301 -42.776  29.452  0.00  0.00    +0.276 C 
BRANCH  22  23
ATOM     23  S   UNL     1     -13.094 -43.327  30.951  0.00  0.00    +0.003 S 
ATOM     24  O   UNL     1     -14.243 -42.616  31.637  0.00  0.00    -0.165 OA
ATOM     25  H   UNL     1     -13.109 -44.679  31.102  0.00  0.00    +0.124 HD
BRANCH  23  26
ATOM     26  C   UNL     1     -11.542 -42.890  31.572  0.00  0.00    +0.247 C 
ATOM     27  O   UNL     1     -11.188 -41.767  31.852  0.00  0.00    -0.280 OA
BRANCH  26  28
ATOM     28  C   UNL     1     -10.564 -44.026  31.772  0.00  0.00    +0.236 C 
ATOM     29  O   UNL     1      -9.258 -43.550  31.923  0.00  0.00    -0.444 OA
ATOM     30  C   UNL     1      -8.260 -43.960  31.042  0.00  0.00    +0.317 C 
ATOM     31  O   UNL     1      -7.338 -43.172  30.732  0.00  0.00    -0.250 OA
ATOM     32  C   UNL     1      -8.260 -45.330  30.452  0.00  0.00    +0.110 C 
ATOM     33  C   UNL     1      -9.620 -45.986  30.661  0.00  0.00    +0.016 C 
ATOM     34  C   UNL     1     -10.632 -44.868  30.522  0.00  0.00    +0.053 C 
ENDBRANCH  26  28
ENDBRANCH  23  26
ENDBRANCH  22  23
ENDBRANCH  21  22
ENDBRANCH  15  21
ENDBRANCH   1  16
BRANCH  11  35
ATOM     35  N   UNL     1     -20.241 -41.119  22.520  0.00  0.00    -0.079 N 
ATOM     36  C   UNL     1     -20.809 -39.836  22.648  0.00  0.00    +0.337 C 
ATOM     37  O   UNL     1     -20.221 -38.956  23.360  0.00  0.00    -0.249 OA
ATOM     38  N   UNL     1     -22.013 -39.424  22.037  0.00  0.00    -0.311 N 
ATOM     39  H   UNL     1     -22.519 -40.053  21.473  0.00  0.00    +0.147 HD
ATOM     40  H   UNL     1     -22.346 -38.508  22.175  0.00  0.00    +0.147 HD
BRANCH  35  41
ATOM     41  O   UNL     1     -20.869 -42.071  21.772  0.00  0.00    -0.305 OA
BRANCH  41  42
ATOM     42  C   UNL     1     -21.876 -42.879  22.237  0.00  0.00    +0.531 C 
ATOM     43  O   UNL     1     -22.803 -42.351  22.907  0.00  0.00    -0.201 OA
BRANCH  42  44
ATOM     44  O   UNL     1     -21.964 -44.254  22.029  0.00  0.00    -0.448 OA
ATOM     45  H   UNL     1     -22.686 -44.736  22.381  0.00  0.00    +0.299 HD
ENDBRANCH  42  44
ENDBRANCH  41  42
ENDBRANCH  35  41
ENDBRANCH  11  35
TORSDOF 10
