REMARK  Name = =
REMARK  2 active torsions:
REMARK  status: ('A' for Active; 'I' for Inactive)
REMARK    1  A    between atoms: C_1  and  O_19
REMARK    2  A    between atoms: O_19  and  C_20
REMARK                            x       y       z     vdW  Elec       q    Type
REMARK                         _______ _______ _______ _____ _____    ______ ____
ROOT
ATOM      1  C   UNL     1      51.434 154.954  29.369  0.00  0.00    +0.188 C 
ATOM      2  C   UNL     1      49.963 155.259  29.192  0.00  0.00    +0.049 C 
ATOM      3  C   UNL     1      49.783 156.747  29.269  0.00  0.00    +0.008 C 
ATOM      4  C   UNL     1      50.883 157.467  30.032  0.00  0.00    +0.022 C 
ATOM      5  C   UNL     1      52.226 157.298  29.429  0.00  0.00    -0.023 C 
ATOM      6  C   UNL     1      52.914 158.425  28.874  0.00  0.00    -0.005 C 
ATOM      7  C   UNL     1      53.861 158.191  27.753  0.00  0.00    -0.004 C 
ATOM      8  C   UNL     1      53.607 156.920  27.015  0.00  0.00    -0.019 C 
ATOM      9  C   UNL     1      54.149 156.867  25.812  0.00  0.00    +0.090 C 
ATOM     10  C   UNL     1      53.987 155.696  24.978  0.00  0.00    +0.155 C 
ATOM     11  O   UNL     1      54.707 155.381  24.010  0.00  0.00    -0.296 OA
ATOM     12  C   UNL     1      52.854 154.803  25.326  0.00  0.00    +0.070 C 
ATOM     13  C   UNL     1      52.809 154.563  26.843  0.00  0.00    +0.034 C 
ATOM     14  C   UNL     1      52.819 155.811  27.593  0.00  0.00    -0.026 C 
ATOM     15  C   UNL     1      52.213 156.020  28.726  0.00  0.00    +0.009 C 
ATOM     16  C   UNL     1      50.346 158.840  30.132  0.00  0.00    +0.004 C 
ATOM     17  C   UNL     1      48.892 158.571  30.550  0.00  0.00    +0.000 C 
ATOM     18  C   UNL     1      48.574 157.181  30.032  0.00  0.00    +0.000 C 
ENDROOT
BRANCH   1  19
ATOM     19  O   UNL     1      51.830 153.654  29.167  0.00  0.00    -0.472 OA
BRANCH  19  20
ATOM     20  C   UNL     1      51.090 152.522  29.366  0.00  0.00    +0.173 C 
ATOM     21  C   UNL     1      51.415 151.417  28.729  0.00  0.00    +0.043 C 
ENDBRANCH  19  20
ENDBRANCH   1  19
TORSDOF 2
