REMARK  Name = =
REMARK  5 active torsions:
REMARK  status: ('A' for Active; 'I' for Inactive)
REMARK    1  A    between atoms: C_1  and  N_19
REMARK    2  A    between atoms: C_1  and  O_23
REMARK    3  A    between atoms: N_19  and  C_20
REMARK    4  A    between atoms: C_20  and  S_22
REMARK    5  A    between atoms: O_23  and  C_24
REMARK                            x       y       z     vdW  Elec       q    Type
REMARK                         _______ _______ _______ _____ _____    ______ ____
ROOT
ATOM      1  C   UNL     1      51.971 154.726  27.706  0.00  0.00    +0.208 C 
ATOM      2  C   UNL     1      50.878 154.803  28.745  0.00  0.00    +0.064 C 
ATOM      3  C   UNL     1      51.025 155.988  29.661  0.00  0.00    +0.006 C 
ATOM      4  C   UNL     1      51.018 157.258  28.797  0.00  0.00    +0.004 C 
ATOM      5  C   UNL     1      52.270 157.255  28.037  0.00  0.00    +0.023 C 
ATOM      6  C   UNL     1      53.424 157.967  28.629  0.00  0.00    +0.009 C 
ATOM      7  C   UNL     1      54.350 158.338  27.470  0.00  0.00    +0.026 C 
ATOM      8  C   UNL     1      54.483 157.193  26.521  0.00  0.00    -0.024 C 
ATOM      9  C   UNL     1      55.274 157.387  25.482  0.00  0.00    +0.033 C 
ATOM     10  C   UNL     1      55.439 156.314  24.533  0.00  0.00    +0.173 C 
ATOM     11  O   UNL     1      56.228 156.476  23.568  0.00  0.00    -0.291 OA
ATOM     12  C   UNL     1      54.722 155.060  24.659  0.00  0.00    +0.074 C 
ATOM     13  C   UNL     1      54.320 154.706  26.096  0.00  0.00    +0.034 C 
ATOM     14  C   UNL     1      53.785 155.932  26.725  0.00  0.00    -0.029 C 
ATOM     15  C   UNL     1      52.699 155.961  27.473  0.00  0.00    +0.005 C 
ATOM     16  C   UNL     1      50.874 158.308  29.841  0.00  0.00    +0.000 C 
ATOM     17  C   UNL     1      49.751 157.735  30.712  0.00  0.00    +0.000 C 
ATOM     18  C   UNL     1      49.773 156.227  30.476  0.00  0.00    +0.000 C 
ENDROOT
BRANCH   1  19
ATOM     19  N   UNL     1      51.301 154.357  26.469  0.00  0.00    -0.292 N 
ATOM     20  H   UNL     1      50.374 154.660  26.336  0.00  0.00    +0.151 HD
BRANCH  19  21
ATOM     21  C   UNL     1      51.898 153.596  25.456  0.00  0.00    +0.107 C 
ATOM     22  S   UNL     1      52.334 154.332  24.069  0.00  0.00    -0.028 S 
BRANCH  21  23
ATOM     23  S   UNL     1      52.216 151.847  25.594  0.00  0.00    -0.120 S 
ATOM     24  H   UNL     1      51.791 151.403  26.807  0.00  0.00    +0.109 HD
ENDBRANCH  21  23
ENDBRANCH  19  21
ENDBRANCH   1  19
BRANCH   1  25
ATOM     25  O   UNL     1      52.807 153.666  28.162  0.00  0.00    -0.460 OA
BRANCH  25  26
ATOM     26  C   UNL     1      52.352 152.787  29.089  0.00  0.00    +0.174 C 
ATOM     27  C   UNL     1      51.777 151.663  28.720  0.00  0.00    +0.043 C 
ENDBRANCH  25  26
ENDBRANCH   1  25
TORSDOF 5
