REMARK  Name = =
REMARK  0 active torsions:
REMARK  status: ('A' for Active; 'I' for Inactive)
REMARK                            x       y       z     vdW  Elec       q    Type
REMARK                         _______ _______ _______ _____ _____    ______ ____
ROOT
ATOM      1  C   UNL     1      53.162 155.219  26.005  0.00  0.00    -0.026 C 
ATOM      2  C   UNL     1      53.381 153.868  25.903  0.00  0.00    -0.026 C 
ATOM      3  C   UNL     1      53.999 153.314  24.685  0.00  0.00    +0.026 C 
ATOM      4  C   UNL     1      55.049 154.184  24.089  0.00  0.00    +0.005 C 
ATOM      5  C   UNL     1      54.949 155.632  24.453  0.00  0.00    +0.005 C 
ATOM      6  C   UNL     1      53.564 156.059  24.852  0.00  0.00    +0.026 C 
ATOM      7  C   UNL     1      53.021 153.048  26.944  0.00  0.00    -0.005 C 
ATOM      8  C   UNL     1      52.441 153.565  28.099  0.00  0.00    -0.000 C 
ATOM      9  C   UNL     1      52.228 154.929  28.184  0.00  0.00    -0.000 C 
ATOM     10  C   UNL     1      52.583 155.767  27.148  0.00  0.00    -0.005 C 
ENDROOT
TORSDOF 0
