REMARK  Name = =
REMARK  2 active torsions:
REMARK  status: ('A' for Active; 'I' for Inactive)
REMARK    1  A    between atoms: C_7  and  S_11
REMARK    2  A    between atoms: S_11  and  S_12
REMARK                            x       y       z     vdW  Elec       q    Type
REMARK                         _______ _______ _______ _____ _____    ______ ____
ROOT
ATOM      1  C   UNL     1      53.390 155.885  26.088  0.00  0.00    -0.026 C 
ATOM      2  C   UNL     1      53.905 154.597  26.022  0.00  0.00    -0.020 C 
ATOM      3  C   UNL     1      55.021 154.248  25.100  0.00  0.00    +0.027 C 
ATOM      4  C   UNL     1      55.285 155.247  24.038  0.00  0.00    +0.005 C 
ATOM      5  C   UNL     1      54.269 156.326  23.893  0.00  0.00    +0.005 C 
ATOM      6  C   UNL     1      53.944 156.986  25.222  0.00  0.00    +0.026 C 
ATOM      7  C   UNL     1      53.419 153.563  26.804  0.00  0.00    +0.031 C 
ATOM      8  C   UNL     1      52.384 153.821  27.681  0.00  0.00    +0.007 C 
ATOM      9  C   UNL     1      51.856 155.113  27.757  0.00  0.00    +0.000 C 
ATOM     10  C   UNL     1      52.357 156.127  26.969  0.00  0.00    -0.005 C 
ENDROOT
BRANCH   7  11
ATOM     11  S   UNL     1      54.128 151.905  26.677  0.00  0.00    -0.059 S 
BRANCH  11  12
ATOM     12  S   UNL     1      52.946 150.673  25.414  0.00  0.00    -0.105 S 
ATOM     13  H   UNL     1      53.503 149.435  25.338  0.00  0.00    +0.114 HD
ENDBRANCH  11  12
ENDBRANCH   7  11
TORSDOF 2
