REMARK  Name = =
REMARK  8 active torsions:
REMARK  status: ('A' for Active; 'I' for Inactive)
REMARK    1  A    between atoms: S_1  and  C_9
REMARK    2  A    between atoms: S_1  and  S_13
REMARK    3  A    between atoms: S_1  and  O_14
REMARK    4  A    between atoms: O_14  and  P_15
REMARK    5  A    between atoms: P_15  and  O_18
REMARK    6  A    between atoms: O_18  and  P_19
REMARK    7  A    between atoms: P_19  and  O_21
REMARK    8  A    between atoms: P_19  and  O_22
REMARK                            x       y       z     vdW  Elec       q    Type
REMARK                         _______ _______ _______ _____ _____    ______ ____
ROOT
ATOM      1  S   UNL     1      52.770 153.057  26.732  0.00  0.00    +0.016 S 
ENDROOT
BRANCH   1   8
ATOM      2  C   UNL     1      51.688 155.937  29.213  0.00  0.00    -0.026 C 
ATOM      3  C   UNL     1      52.203 155.264  28.135  0.00  0.00    -0.018 C 
ATOM      4  C   UNL     1      52.838 155.970  27.029  0.00  0.00    +0.027 C 
ATOM      5  C   UNL     1      53.148 157.409  27.291  0.00  0.00    +0.005 C 
ATOM      6  C   UNL     1      53.156 157.758  28.744  0.00  0.00    +0.005 C 
ATOM      7  C   UNL     1      51.762 157.416  29.290  0.00  0.00    +0.026 C 
ATOM      8  C   UNL     1      52.144 153.868  28.046  0.00  0.00    +0.047 C 
ATOM      9  C   UNL     1      51.541 153.210  29.098  0.00  0.00    +0.008 C 
ATOM     10  C   UNL     1      51.018 153.876  30.189  0.00  0.00    +0.000 C 
ATOM     11  C   UNL     1      51.094 155.238  30.242  0.00  0.00    -0.005 C 
ENDBRANCH   1   8
BRANCH   1  12
ATOM     12  S   UNL     1      52.081 151.818  26.411  0.00  0.00    -0.089 S 
ATOM     13  H   UNL     1      52.669 151.240  25.329  0.00  0.00    +0.116 HD
ENDBRANCH   1  12
BRANCH   1  14
ATOM     14  O   UNL     1      53.569 153.756  25.655  0.00  0.00    -0.235 OA
BRANCH  14  15
ATOM     15  P   UNL     1      54.655 152.727  24.843  0.00  0.00    +0.385 P 
ATOM     16  O   UNL     1      55.993 153.365  24.665  0.00  0.00    -0.143 OA
BRANCH  15  17
ATOM     17  O   UNL     1      54.742 151.271  25.701  0.00  0.00    -0.210 OA
BRANCH  17  18
ATOM     18  P   UNL     1      54.127 149.984  24.798  0.00  0.00    +0.479 P 
ATOM     19  O   UNL     1      55.165 148.871  24.804  0.00  0.00    -0.227 OA
BRANCH  18  20
ATOM     20  O   UNL     1      53.839 150.420  23.192  0.00  0.00    -0.302 OA
ATOM     21  H   UNL     1      53.488 149.657  22.708  0.00  0.00    +0.222 HD
ENDBRANCH  18  20
BRANCH  18  22
ATOM     22  O   UNL     1      52.715 149.351  25.488  0.00  0.00    -0.302 OA
ATOM     23  H   UNL     1      52.888 149.103  26.410  0.00  0.00    +0.222 HD
ENDBRANCH  18  22
ENDBRANCH  17  18
ENDBRANCH  15  17
ENDBRANCH  14  15
ENDBRANCH   1  14
TORSDOF 8
REMARK  Name = =
REMARK  8 active torsions:
REMARK  status: ('A' for Active; 'I' for Inactive)
REMARK    1  A    between atoms: S_1  and  C_9
REMARK    2  A    between atoms: S_1  and  S_13
REMARK    3  A    between atoms: S_1  and  O_14
REMARK    4  A    between atoms: O_14  and  P_15
REMARK    5  A    between atoms: P_15  and  O_18
REMARK    6  A    between atoms: O_18  and  P_19
REMARK    7  A    between atoms: P_19  and  O_21
REMARK    8  A    between atoms: P_19  and  O_22
REMARK                            x       y       z     vdW  Elec       q    Type
REMARK                         _______ _______ _______ _____ _____    ______ ____
ROOT
ATOM      1  H   UNK     1      51.193 154.316  25.770  0.00  0.00    +0.000 HD
ENDROOT
TORSDOF 0
REMARK  Name = =
REMARK  8 active torsions:
REMARK  status: ('A' for Active; 'I' for Inactive)
REMARK    1  A    between atoms: S_1  and  C_9
REMARK    2  A    between atoms: S_1  and  S_13
REMARK    3  A    between atoms: S_1  and  O_14
REMARK    4  A    between atoms: O_14  and  P_15
REMARK    5  A    between atoms: P_15  and  O_18
REMARK    6  A    between atoms: O_18  and  P_19
REMARK    7  A    between atoms: P_19  and  O_21
REMARK    8  A    between atoms: P_19  and  O_22
REMARK                            x       y       z     vdW  Elec       q    Type
REMARK                         _______ _______ _______ _____ _____    ______ ____
ROOT
ATOM      1  O   HOH     1      53.988 152.462  23.294  0.00  0.00    -0.253 OA
ATOM      2  H   HOH     0      54.958 152.462  23.294  0.00  0.00    +0.253 HD
ENDROOT
TORSDOF 0
