REMARK  Name = =
REMARK  10 active torsions:
REMARK  status: ('A' for Active; 'I' for Inactive)
REMARK    1  A    between atoms: S_1  and  C_9
REMARK    2  A    between atoms: S_1  and  S_13
REMARK    3  A    between atoms: S_1  and  O_14
REMARK    4  A    between atoms: O_14  and  P_15
REMARK    5  A    between atoms: P_15  and  O_17
REMARK    6  A    between atoms: P_15  and  O_22
REMARK    7  A    between atoms: O_17  and  P_18
REMARK    8  A    between atoms: P_18  and  O_20
REMARK    9  A    between atoms: P_18  and  O_21
REMARK   10  A    between atoms: O_22  and  C_23
REMARK                            x       y       z     vdW  Elec       q    Type
REMARK                         _______ _______ _______ _____ _____    ______ ____
ROOT
ATOM      1  S   UNL     1      53.337 154.083  27.155  0.00  0.00    +0.020 S 
ENDROOT
BRANCH   1   8
ATOM      2  C   UNL     1      51.594 156.428  29.853  0.00  0.00    -0.026 C 
ATOM      3  C   UNL     1      52.372 155.947  28.790  0.00  0.00    -0.018 C 
ATOM      4  C   UNL     1      53.179 156.992  28.135  0.00  0.00    +0.027 C 
ATOM      5  C   UNL     1      52.232 158.112  27.787  0.00  0.00    +0.005 C 
ATOM      6  C   UNL     1      51.842 158.786  29.084  0.00  0.00    +0.005 C 
ATOM      7  C   UNL     1      51.610 157.862  30.223  0.00  0.00    +0.026 C 
ATOM      8  C   UNL     1      52.383 154.619  28.413  0.00  0.00    +0.047 C 
ATOM      9  C   UNL     1      51.573 153.782  29.152  0.00  0.00    +0.008 C 
ATOM     10  C   UNL     1      50.784 154.232  30.220  0.00  0.00    +0.000 C 
ATOM     11  C   UNL     1      50.797 155.566  30.571  0.00  0.00    -0.005 C 
ENDBRANCH   1   8
BRANCH   1  12
ATOM     12  S   UNL     1      52.432 155.363  25.826  0.00  0.00    -0.089 S 
ATOM     13  H   UNL     1      52.022 156.482  26.482  0.00  0.00    +0.116 HD
ENDBRANCH   1  12
BRANCH   1  14
ATOM     14  O   UNL     1      53.782 153.029  26.819  0.00  0.00    -0.202 OA
BRANCH  14  15
ATOM     15  P   UNL     1      53.381 151.746  25.786  0.00  0.00    +0.554 P 
ATOM     16  O   UNL     1      53.078 152.250  24.393  0.00  0.00    -0.214 OA
BRANCH  15  17
ATOM     17  O   UNL     1      54.643 150.631  25.653  0.00  0.00    -0.176 OA
BRANCH  17  18
ATOM     18  P   UNL     1      54.089 149.358  24.690  0.00  0.00    +0.482 P 
ATOM     19  O   UNL     1      53.899 149.838  23.249  0.00  0.00    -0.227 OA
BRANCH  18  20
ATOM     20  O   UNL     1      52.596 148.767  25.269  0.00  0.00    -0.302 OA
ATOM     21  H   UNL     1      52.703 148.459  26.183  0.00  0.00    +0.222 HD
ENDBRANCH  18  20
BRANCH  18  22
ATOM     22  O   UNL     1      55.160 148.053  24.692  0.00  0.00    -0.302 OA
ATOM     23  H   UNL     1      55.288 147.741  25.601  0.00  0.00    +0.222 HD
ENDBRANCH  18  22
ENDBRANCH  17  18
ENDBRANCH  15  17
BRANCH  15  24
ATOM     24  O   UNL     1      52.026 150.943  26.459  0.00  0.00    -0.391 OA
BRANCH  24  25
ATOM     25  C   UNL     1      52.156 150.473  27.774  0.00  0.00    +0.226 C 
ATOM     26  S   UNL     1      50.810 150.311  28.665  0.00  0.00    -0.007 S 
ENDBRANCH  24  25
ENDBRANCH  15  24
ENDBRANCH  14  15
ENDBRANCH   1  14
TORSDOF 10
REMARK  Name = =
REMARK  10 active torsions:
REMARK  status: ('A' for Active; 'I' for Inactive)
REMARK    1  A    between atoms: S_1  and  C_9
REMARK    2  A    between atoms: S_1  and  S_13
REMARK    3  A    between atoms: S_1  and  O_14
REMARK    4  A    between atoms: O_14  and  P_15
REMARK    5  A    between atoms: P_15  and  O_17
REMARK    6  A    between atoms: P_15  and  O_22
REMARK    7  A    between atoms: O_17  and  P_18
REMARK    8  A    between atoms: P_18  and  O_20
REMARK    9  A    between atoms: P_18  and  O_21
REMARK   10  A    between atoms: O_22  and  C_23
REMARK                            x       y       z     vdW  Elec       q    Type
REMARK                         _______ _______ _______ _____ _____    ______ ____
ROOT
ATOM      1  H   UNK     1      51.417 153.263  26.346  0.00  0.00    +0.000 HD
ENDROOT
TORSDOF 0
