REMARK  Name = =
REMARK  11 active torsions:
REMARK  status: ('A' for Active; 'I' for Inactive)
REMARK    1  A    between atoms: O_1  and  S_2
REMARK    2  A    between atoms: O_1  and  P_14
REMARK    3  A    between atoms: S_2  and  C_9
REMARK    4  A    between atoms: S_2  and  S_13
REMARK    5  A    between atoms: P_14  and  O_16
REMARK    6  A    between atoms: P_14  and  O_21
REMARK    7  A    between atoms: O_16  and  P_17
REMARK    8  A    between atoms: P_17  and  O_19
REMARK    9  A    between atoms: P_17  and  O_20
REMARK   10  A    between atoms: O_21  and  C_22
REMARK   11  A    between atoms: C_22  and  N_24
REMARK                            x       y       z     vdW  Elec       q    Type
REMARK                         _______ _______ _______ _____ _____    ______ ____
ROOT
ATOM      1  O   UNL     1      52.563 153.667  27.248  0.00  0.00    -0.216 OA
ENDROOT
BRANCH   1   2
ATOM      2  S   UNL     1      52.307 155.430  27.231  0.00  0.00    -0.059 S 
ATOM      3  H   UNL     1      51.644 155.837  26.115  0.00  0.00    +0.126 HD
BRANCH   2  10
ATOM      4  C   UNL     1      50.504 157.004  30.413  0.00  0.00    -0.026 C 
ATOM      5  C   UNL     1      51.162 156.884  29.236  0.00  0.00    -0.019 C 
ATOM      6  C   UNL     1      51.611 158.036  28.407  0.00  0.00    +0.027 C 
ATOM      7  C   UNL     1      50.995 159.343  28.821  0.00  0.00    +0.005 C 
ATOM      8  C   UNL     1      49.829 159.211  29.738  0.00  0.00    +0.005 C 
ATOM      9  C   UNL     1      50.192 158.359  30.943  0.00  0.00    +0.026 C 
ATOM     10  C   UNL     1      51.485 155.633  28.683  0.00  0.00    +0.033 C 
ATOM     11  C   UNL     1      51.083 154.550  29.426  0.00  0.00    +0.007 C 
ATOM     12  C   UNL     1      50.407 154.654  30.637  0.00  0.00    +0.000 C 
ATOM     13  C   UNL     1      50.120 155.904  31.126  0.00  0.00    -0.005 C 
ENDBRANCH   2  10
BRANCH   2  14
ATOM     14  S   UNL     1      53.548 156.345  27.063  0.00  0.00    -0.103 S 
ATOM     15  H   UNL     1      54.412 156.131  28.091  0.00  0.00    +0.115 HD
ENDBRANCH   2  14
ENDBRANCH   1   2
BRANCH   1  16
ATOM     16  P   UNL     1      53.499 153.262  25.926  0.00  0.00    +0.554 P 
ATOM     17  O   UNL     1      54.868 152.857  26.411  0.00  0.00    -0.214 OA
BRANCH  16  18
ATOM     18  O   UNL     1      53.583 154.485  24.782  0.00  0.00    -0.176 OA
BRANCH  18  19
ATOM     19  P   UNL     1      55.118 154.642  24.122  0.00  0.00    +0.482 P 
ATOM     20  O   UNL     1      55.358 156.126  23.886  0.00  0.00    -0.227 OA
BRANCH  19  21
ATOM     21  O   UNL     1      55.207 153.904  22.587  0.00  0.00    -0.302 OA
ATOM     22  H   UNL     1      55.060 152.950  22.678  0.00  0.00    +0.222 HD
ENDBRANCH  19  21
BRANCH  19  23
ATOM     23  O   UNL     1      56.298 153.963  25.097  0.00  0.00    -0.302 OA
ATOM     24  H   UNL     1      56.264 154.370  25.977  0.00  0.00    +0.222 HD
ENDBRANCH  19  23
ENDBRANCH  18  19
ENDBRANCH  16  18
BRANCH  16  25
ATOM     25  O   UNL     1      52.810 151.878  25.172  0.00  0.00    -0.380 OA
BRANCH  25  26
ATOM     26  C   UNL     1      53.526 150.703  25.014  0.00  0.00    +0.257 C 
ATOM     27  S   UNL     1      55.158 150.645  25.007  0.00  0.00    +0.008 S 
BRANCH  26  28
ATOM     28  N   UNL     1      52.802 149.495  24.851  0.00  0.00    -0.197 NA
ATOM     29  C   UNL     1      53.310 148.464  25.724  0.00  0.00    +0.139 C 
ENDBRANCH  26  28
ENDBRANCH  25  26
ENDBRANCH  16  25
ENDBRANCH   1  16
TORSDOF 11
