REMARK  Name = =
REMARK  14 active torsions:
REMARK  status: ('A' for Active; 'I' for Inactive)
REMARK    1  A    between atoms: P_1  and  O_3
REMARK    2  A    between atoms: P_1  and  O_16
REMARK    3  A    between atoms: P_1  and  O_21
REMARK    4  A    between atoms: O_3  and  S_4
REMARK    5  A    between atoms: S_4  and  C_11
REMARK    6  A    between atoms: S_4  and  S_15
REMARK    7  A    between atoms: O_16  and  P_17
REMARK    8  A    between atoms: P_17  and  O_19
REMARK    9  A    between atoms: P_17  and  O_20
REMARK   10  A    between atoms: O_21  and  C_22
REMARK   11  A    between atoms: C_22  and  N_24
REMARK   12  A    between atoms: N_24  and  S_26
REMARK   13  A    between atoms: S_26  and  C_27
REMARK   14  A    between atoms: C_27  and  N_29
REMARK                            x       y       z     vdW  Elec       q    Type
REMARK                         _______ _______ _______ _____ _____    ______ ____
ROOT
ATOM      1  P   UNL     1      52.884 154.709  27.742  0.00  0.00    +0.554 P 
ATOM      2  O   UNL     1      53.596 154.632  29.073  0.00  0.00    -0.214 OA
ENDROOT
BRANCH   1   3
ATOM      3  O   UNL     1      51.556 155.733  27.946  0.00  0.00    -0.216 OA
BRANCH   3   4
ATOM      4  S   UNL     1      51.572 156.369  29.420  0.00  0.00    -0.059 S 
ATOM      5  H   UNL     1      52.749 157.007  29.661  0.00  0.00    +0.126 HD
BRANCH   4  12
ATOM      6  C   UNL     1      49.364 159.508  30.472  0.00  0.00    -0.026 C 
ATOM      7  C   UNL     1      50.451 158.671  30.202  0.00  0.00    -0.019 C 
ATOM      8  C   UNL     1      51.852 159.162  30.402  0.00  0.00    +0.027 C 
ATOM      9  C   UNL     1      52.002 160.633  30.265  0.00  0.00    +0.005 C 
ATOM     10  C   UNL     1      50.746 161.392  29.972  0.00  0.00    +0.005 C 
ATOM     11  C   UNL     1      49.682 160.894  30.959  0.00  0.00    +0.026 C 
ATOM     12  C   UNL     1      50.262 157.392  29.751  0.00  0.00    +0.033 C 
ATOM     13  C   UNL     1      48.958 156.921  29.559  0.00  0.00    +0.007 C 
ATOM     14  C   UNL     1      47.889 157.748  29.826  0.00  0.00    +0.000 C 
ATOM     15  C   UNL     1      48.084 159.048  30.285  0.00  0.00    -0.005 C 
ENDBRANCH   4  12
BRANCH   4  16
ATOM     16  S   UNL     1      50.995 154.924  30.309  0.00  0.00    -0.103 S 
ATOM     17  H   UNL     1      49.786 154.542  29.817  0.00  0.00    +0.115 HD
ENDBRANCH   4  16
ENDBRANCH   3   4
ENDBRANCH   1   3
BRANCH   1  18
ATOM     18  O   UNL     1      53.890 155.434  26.578  0.00  0.00    -0.176 OA
BRANCH  18  19
ATOM     19  P   UNL     1      53.070 155.754  25.161  0.00  0.00    +0.482 P 
ATOM     20  O   UNL     1      52.462 157.142  25.127  0.00  0.00    -0.227 OA
BRANCH  19  21
ATOM     21  O   UNL     1      54.168 155.607  23.855  0.00  0.00    -0.302 OA
ATOM     22  H   UNL     1      54.905 156.225  23.981  0.00  0.00    +0.222 HD
ENDBRANCH  19  21
BRANCH  19  23
ATOM     23  O   UNL     1      51.826 154.653  24.865  0.00  0.00    -0.302 OA
ATOM     24  H   UNL     1      51.175 154.700  25.583  0.00  0.00    +0.222 HD
ENDBRANCH  19  23
ENDBRANCH  18  19
ENDBRANCH   1  18
BRANCH   1  25
ATOM     25  O   UNL     1      52.390 153.151  27.238  0.00  0.00    -0.381 OA
BRANCH  25  26
ATOM     26  C   UNL     1      53.217 152.393  26.423  0.00  0.00    +0.251 C 
ATOM     27  S   UNL     1      54.167 153.174  25.351  0.00  0.00    +0.007 S 
BRANCH  26  28
ATOM     28  N   UNL     1      53.286 150.975  26.464  0.00  0.00    -0.221 N 
ATOM     29  C   UNL     1      51.985 150.385  26.676  0.00  0.00    +0.129 C 
BRANCH  28  30
ATOM     30  S   UNL     1      54.078 150.316  25.039  0.00  0.00    +0.005 S 
BRANCH  30  31
ATOM     31  C   UNL     1      53.306 148.788  24.607  0.00  0.00    +0.123 C 
ATOM     32  S   UNL     1      51.982 148.294  25.411  0.00  0.00    -0.027 S 
BRANCH  31  33
ATOM     33  N   UNL     1      53.799 147.944  23.563  0.00  0.00    -0.346 N 
ATOM     34  H   UNL     1      54.598 148.208  23.053  0.00  0.00    +0.143 HD
ATOM     35  H   UNL     1      53.339 147.099  23.355  0.00  0.00    +0.143 HD
ENDBRANCH  31  33
ENDBRANCH  30  31
ENDBRANCH  28  30
ENDBRANCH  26  28
ENDBRANCH  25  26
ENDBRANCH   1  25
TORSDOF 14
