REMARK  Name = =
REMARK  0 active torsions:
REMARK  status: ('A' for Active; 'I' for Inactive)
REMARK                            x       y       z     vdW  Elec       q    Type
REMARK                         _______ _______ _______ _____ _____    ______ ____
ROOT
ATOM      1  N   UNL     1      54.829 159.537  29.488  0.00  0.00    -0.271 NA
ATOM      2  C   UNL     1      55.246 160.028  28.257  0.00  0.00    +0.073 C 
ATOM      3  C   UNL     1      55.812 161.419  28.435  0.00  0.00    +0.019 C 
ATOM      4  C   UNL     1      55.724 161.648  29.921  0.00  0.00    +0.019 C 
ATOM      5  C   UNL     1      55.327 160.340  30.554  0.00  0.00    +0.072 C 
ATOM      6  C   UNL     1      56.039 159.165  27.369  0.00  0.00    +0.085 C 
ATOM      7  N   UNL     1      55.271 158.724  26.194  0.00  0.00    -0.296 NA
ATOM      8  C   UNL     1      56.022 157.688  25.485  0.00  0.00    +0.069 C 
ATOM      9  C   UNL     1      55.279 157.406  24.210  0.00  0.00    +0.017 C 
ATOM     10  C   UNL     1      56.090 156.648  23.202  0.00  0.00    +0.003 C 
ATOM     11  C   UNL     1      56.541 155.325  23.723  0.00  0.00    +0.017 C 
ATOM     12  C   UNL     1      55.619 154.193  23.326  0.00  0.00    +0.069 C 
ATOM     13  N   UNL     1      54.708 153.829  24.399  0.00  0.00    -0.296 NA
ATOM     14  C   UNL     1      53.328 153.994  24.039  0.00  0.00    +0.086 C 
ATOM     15  C   UNL     1      52.433 152.922  24.641  0.00  0.00    +0.089 C 
ATOM     16  N   UNL     1      53.171 152.106  25.539  0.00  0.00    -0.271 NA
ATOM     17  C   UNL     1      52.822 152.191  26.905  0.00  0.00    +0.073 C 
ATOM     18  C   UNL     1      51.738 151.204  27.197  0.00  0.00    +0.019 C 
ATOM     19  C   UNL     1      51.580 150.442  25.903  0.00  0.00    +0.019 C 
ATOM     20  C   UNL     1      52.936 150.684  25.242  0.00  0.00    +0.072 C 
ATOM     21  C   UNL     1      52.567 153.555  27.440  0.00  0.00    +0.085 C 
ATOM     22  N   UNL     1      52.198 153.384  28.854  0.00  0.00    -0.295 NA
ATOM     23  C   UNL     1      52.344 154.577  29.610  0.00  0.00    +0.086 C 
ATOM     24  C   UNL     1      52.046 155.842  28.879  0.00  0.00    +0.086 C 
ATOM     25  N   UNL     1      52.694 156.933  29.611  0.00  0.00    -0.295 NA
ATOM     26  C   UNL     1      53.801 157.481  28.816  0.00  0.00    +0.086 C 
ATOM     27  C   UNL     1      54.839 158.137  29.706  0.00  0.00    +0.089 C 
ATOM     28  H   UNL     1      55.115 159.517  25.572  0.00  0.00    +0.123 HD
ATOM     29  H   UNL     1      54.906 154.418  25.208  0.00  0.00    +0.123 HD
ATOM     30  H   UNL     1      52.795 152.665  29.262  0.00  0.00    +0.123 HD
ATOM     31  H   UNL     1      53.057 156.578  30.496  0.00  0.00    +0.123 HD
ENDROOT
TORSDOF 0
