REMARK  Name = =
REMARK  2 active torsions:
REMARK  status: ('A' for Active; 'I' for Inactive)
REMARK    1  A    between atoms: C_2  and  N_28
REMARK    2  A    between atoms: N_31  and  N_32
REMARK                            x       y       z     vdW  Elec       q    Type
REMARK                         _______ _______ _______ _____ _____    ______ ____
ROOT
ATOM      1  N   UNL     1      53.376 159.992  31.054  0.00  0.00    -0.258 NA
ATOM      2  C   UNL     1      54.046 161.118  30.490  0.00  0.00    +0.121 C 
ATOM      3  C   UNL     1      55.068 161.574  31.535  0.00  0.00    +0.036 C 
ATOM      4  C   UNL     1      54.433 161.031  32.822  0.00  0.00    +0.020 C 
ATOM      5  C   UNL     1      53.919 159.696  32.337  0.00  0.00    +0.074 C 
ATOM      6  C   UNL     1      54.726 160.726  29.193  0.00  0.00    +0.103 C 
ATOM      7  N   UNL     1      56.126 160.440  29.411  0.00  0.00    -0.295 NA
ATOM      8  C   UNL     1      56.724 159.647  28.386  0.00  0.00    +0.069 C 
ATOM      9  C   UNL     1      55.757 158.962  27.477  0.00  0.00    +0.017 C 
ATOM     10  C   UNL     1      56.586 158.213  26.425  0.00  0.00    +0.003 C 
ATOM     11  C   UNL     1      55.830 158.135  25.117  0.00  0.00    +0.017 C 
ATOM     12  C   UNL     1      55.681 156.709  24.644  0.00  0.00    +0.069 C 
ATOM     13  N   UNL     1      54.400 156.190  25.086  0.00  0.00    -0.296 NA
ATOM     14  C   UNL     1      54.303 154.761  24.909  0.00  0.00    +0.086 C 
ATOM     15  C   UNL     1      54.338 154.069  26.248  0.00  0.00    +0.089 C 
ATOM     16  N   UNL     1      53.084 153.554  26.672  0.00  0.00    -0.271 NA
ATOM     17  C   UNL     1      52.086 154.525  26.961  0.00  0.00    +0.073 C 
ATOM     18  C   UNL     1      51.014 154.362  25.890  0.00  0.00    +0.019 C 
ATOM     19  C   UNL     1      51.063 152.882  25.625  0.00  0.00    +0.019 C 
ATOM     20  C   UNL     1      52.524 152.532  25.855  0.00  0.00    +0.072 C 
ATOM     21  C   UNL     1      51.429 154.140  28.281  0.00  0.00    +0.085 C 
ATOM     22  N   UNL     1      51.612 155.255  29.187  0.00  0.00    -0.295 NA
ATOM     23  C   UNL     1      50.386 156.056  29.124  0.00  0.00    +0.086 C 
ATOM     24  C   UNL     1      50.349 156.870  30.402  0.00  0.00    +0.086 C 
ATOM     25  N   UNL     1      51.503 157.780  30.342  0.00  0.00    -0.295 NA
ATOM     26  C   UNL     1      51.280 158.788  31.345  0.00  0.00    +0.086 C 
ATOM     27  C   UNL     1      51.953 160.097  31.010  0.00  0.00    +0.091 C 
ATOM     28  H   UNL     1      56.217 159.942  30.296  0.00  0.00    +0.123 HD
ATOM     29  H   UNL     1      53.660 156.639  24.547  0.00  0.00    +0.123 HD
ATOM     30  H   UNL     1      52.413 155.816  28.897  0.00  0.00    +0.123 HD
ATOM     31  H   UNL     1      51.566 158.209  29.419  0.00  0.00    +0.123 HD
ENDROOT
BRANCH   2  32
ATOM     32  N   UNL     1      53.198 162.241  30.225  0.00  0.00    -0.278 N 
ATOM     33  C   UNL     1      53.776 163.538  30.216  0.00  0.00    +0.315 C 
ATOM     34  O   UNL     1      54.993 163.773  30.427  0.00  0.00    -0.251 OA
ATOM     35  N   UNL     1      52.951 164.676  29.954  0.00  0.00    -0.237 N 
ATOM     36  H   UNL     1      52.237 162.117  30.053  0.00  0.00    +0.152 HD
ATOM     37  H   UNL     1      51.989 164.553  29.782  0.00  0.00    +0.170 HD
BRANCH  35  38
ATOM     38  N   UNL     1      53.500 165.963  29.940  0.00  0.00    -0.253 NA
ATOM     39  H   UNL     1      54.500 165.908  30.135  0.00  0.00    +0.141 HD
ATOM     40  H   UNL     1      53.045 166.534  30.652  0.00  0.00    +0.141 HD
ENDBRANCH  35  38
ENDBRANCH   2  32
TORSDOF 2
