REMARK  Name = =
REMARK  3 active torsions:
REMARK  status: ('A' for Active; 'I' for Inactive)
REMARK    1  A    between atoms: N_1  and  C_3
REMARK    2  A    between atoms: N_1  and  N_8
REMARK    3  A    between atoms: C_9  and  O_11
REMARK                            x       y       z     vdW  Elec       q    Type
REMARK                         _______ _______ _______ _____ _____    ______ ____
ROOT
ATOM      1  N   UNL     1      53.234 155.995  25.917  0.00  0.00    -0.189 NA
ATOM      2  H   UNL     1      53.478 156.982  25.832  0.00  0.00    +0.149 HD
ENDROOT
BRANCH   1   4
ATOM      3  O   UNL     1      52.523 156.914  28.073  0.00  0.00    -0.455 OA
ATOM      4  C   UNL     1      52.661 155.835  27.215  0.00  0.00    +0.264 C 
ATOM      5  C   UNL     1      52.288 154.610  27.524  0.00  0.00    +0.036 C 
ATOM      6  C   UNL     1      51.691 154.314  28.830  0.00  0.00    +0.004 C 
ATOM      7  C   UNL     1      51.592 155.522  29.660  0.00  0.00    +0.040 C 
ATOM      8  C   UNL     1      51.973 156.737  29.322  0.00  0.00    +0.174 C 
ENDBRANCH   1   4
BRANCH   1   9
ATOM      9  N   UNL     1      54.355 155.281  25.515  0.00  0.00    -0.213 N 
ATOM     10  C   UNL     1      54.260 154.308  24.481  0.00  0.00    +0.412 C 
ATOM     11  O   UNL     1      53.145 154.092  23.924  0.00  0.00    -0.225 OA
ATOM     12  H   UNL     1      55.223 155.449  25.949  0.00  0.00    +0.172 HD
BRANCH  10  13
ATOM     13  O   UNL     1      55.339 153.558  24.028  0.00  0.00    -0.465 OA
ATOM     14  H   UNL     1      56.187 153.680  24.408  0.00  0.00    +0.297 HD
ENDBRANCH  10  13
ENDBRANCH   1   9
TORSDOF 3
