REMARK  Name = =
REMARK  4 active torsions:
REMARK  status: ('A' for Active; 'I' for Inactive)
REMARK    1  A    between atoms: C_2  and  N_28
REMARK    2  A    between atoms: N_28  and  N_33
REMARK    3  A    between atoms: N_31  and  N_32
REMARK    4  A    between atoms: N_33  and  O_34
REMARK                            x       y       z     vdW  Elec       q    Type
REMARK                         _______ _______ _______ _____ _____    ______ ____
ROOT
ATOM      1  N   UNL     1      53.560 160.978  30.794  0.00  0.00    -0.291 N 
ATOM      2  C   UNL     1      54.837 161.442  30.427  0.00  0.00    +0.158 C 
ATOM      3  C   UNL     1      55.628 161.800  31.671  0.00  0.00    +0.068 C 
ATOM      4  C   UNL     1      54.735 161.448  32.808  0.00  0.00    -0.007 C 
ATOM      5  C   UNL     1      53.467 160.888  32.228  0.00  0.00    +0.058 C 
ATOM      6  C   UNL     1      55.688 160.489  29.642  0.00  0.00    +0.108 C 
ATOM      7  N   UNL     1      55.279 160.181  28.328  0.00  0.00    -0.295 NA
ATOM      8  C   UNL     1      56.330 160.256  27.339  0.00  0.00    +0.069 C 
ATOM      9  C   UNL     1      56.746 158.872  26.834  0.00  0.00    +0.017 C 
ATOM     10  C   UNL     1      56.402 158.818  25.362  0.00  0.00    +0.003 C 
ATOM     11  C   UNL     1      56.877 157.591  24.663  0.00  0.00    +0.017 C 
ATOM     12  C   UNL     1      56.666 156.333  25.471  0.00  0.00    +0.069 C 
ATOM     13  N   UNL     1      55.413 156.297  26.162  0.00  0.00    -0.296 NA
ATOM     14  C   UNL     1      54.268 156.216  25.308  0.00  0.00    +0.086 C 
ATOM     15  C   UNL     1      53.869 154.771  25.184  0.00  0.00    +0.089 C 
ATOM     16  N   UNL     1      52.555 154.507  25.766  0.00  0.00    -0.271 NA
ATOM     17  C   UNL     1      52.663 153.968  27.091  0.00  0.00    +0.073 C 
ATOM     18  C   UNL     1      51.648 152.878  27.239  0.00  0.00    +0.019 C 
ATOM     19  C   UNL     1      50.975 152.772  25.888  0.00  0.00    +0.019 C 
ATOM     20  C   UNL     1      52.000 153.393  24.980  0.00  0.00    +0.072 C 
ATOM     21  C   UNL     1      52.533 155.013  28.171  0.00  0.00    +0.085 C 
ATOM     22  N   UNL     1      51.280 155.712  28.146  0.00  0.00    -0.295 NA
ATOM     23  C   UNL     1      50.686 155.872  29.445  0.00  0.00    +0.086 C 
ATOM     24  C   UNL     1      51.468 156.750  30.358  0.00  0.00    +0.086 C 
ATOM     25  N   UNL     1      51.417 158.121  29.922  0.00  0.00    -0.295 NA
ATOM     26  C   UNL     1      52.031 159.028  30.910  0.00  0.00    +0.090 C 
ATOM     27  C   UNL     1      53.048 159.834  30.108  0.00  0.00    +0.109 C 
ATOM     28  H   UNL     1      54.544 160.836  28.062  0.00  0.00    +0.123 HD
ATOM     29  H   UNL     1      55.333 157.146  26.722  0.00  0.00    +0.123 HD
ATOM     30  H   UNL     1      50.631 155.191  27.556  0.00  0.00    +0.123 HD
ATOM     31  H   UNL     1      50.442 158.389  29.787  0.00  0.00    +0.123 HD
ENDROOT
BRANCH   2  32
ATOM     32  N   UNL     1      54.723 162.671  29.660  0.00  0.00    -0.150 N 
ATOM     33  C   UNL     1      53.674 163.577  29.905  0.00  0.00    +0.334 C 
ATOM     34  O   UNL     1      52.823 163.300  30.801  0.00  0.00    -0.250 OA
ATOM     35  N   UNL     1      53.545 164.784  29.179  0.00  0.00    -0.236 N 
ATOM     36  H   UNL     1      54.193 165.020  28.476  0.00  0.00    +0.170 HD
BRANCH  35  37
ATOM     37  N   UNL     1      52.491 165.623  29.478  0.00  0.00    -0.253 NA
ATOM     38  H   UNL     1      51.932 165.213  30.227  0.00  0.00    +0.141 HD
ATOM     39  H   UNL     1      51.910 165.748  28.649  0.00  0.00    +0.141 HD
ENDBRANCH  35  37
BRANCH  32  40
ATOM     40  N   UNL     1      55.644 163.006  28.663  0.00  0.00    +0.018 NA
BRANCH  40  41
ATOM     41  O   UNL     1      56.750 163.597  29.153  0.00  0.00    -0.278 OA
ATOM     42  H   UNL     1      57.354 163.808  28.424  0.00  0.00    +0.240 HD
ENDBRANCH  40  41
ENDBRANCH  32  40
ENDBRANCH   2  32
TORSDOF 4
