MODEL 1
REMARK VINA RESULT:    -6.421      0.000      0.000
REMARK INTER + INTRA:          -7.799
REMARK INTER:                  -8.673
REMARK INTRA:                   0.874
REMARK UNBOUND:                 0.874
REMARK  Name = =
REMARK  6 active torsions:
REMARK  status: ('A' for Active; 'I' for Inactive)
REMARK    1  A    between atoms: C_1  and  N_17
REMARK    2  A    between atoms: C_1  and  C_25
REMARK    3  A    between atoms: S_23  and  C_28
REMARK    4  A    between atoms: C_28  and  C_30
REMARK    5  A    between atoms: C_30  and  S_32
REMARK    6  A    between atoms: S_32  and  S_33
REMARK                            x       y       z     vdW  Elec       q    Type
REMARK                         _______ _______ _______ _____ _____    ______ ____
ROOT
ATOM      1  C   UNL     1      61.434 165.340  36.895  0.00  0.00    +0.140 C 
ATOM      2  C   UNL     1      60.603 166.185  37.740  0.00  0.00    +0.000 C 
ATOM      3  C   UNL     1      60.420 167.490  37.245  0.00  0.00    -0.021 C 
ATOM      4  C   UNL     1      59.661 168.384  37.942  0.00  0.00    +0.036 C 
ATOM      5  C   UNL     1      59.074 168.021  39.127  0.00  0.00    +0.176 C 
ATOM      6  C   UNL     1      59.263 166.735  39.598  0.00  0.00    +0.176 C 
ATOM      7  C   UNL     1      60.022 165.801  38.923  0.00  0.00    +0.038 C 
ATOM      8  O   UNL     1      58.563 166.656  40.790  0.00  0.00    -0.435 OA
ATOM      9  C   UNL     1      58.152 167.958  41.163  0.00  0.00    +0.429 C 
ATOM     10  O   UNL     1      58.277 168.750  39.986  0.00  0.00    -0.435 OA
ATOM     11  C   UNL     1      61.041 167.914  35.951  0.00  0.00    +0.029 C 
ATOM     12  C   UNL     1      61.065 166.809  34.925  0.00  0.00    +0.039 C 
ATOM     13  C   UNL     1      60.943 165.442  35.490  0.00  0.00    +0.060 C 
ATOM     14  C   UNL     1      59.464 165.162  35.355  0.00  0.00    +0.145 C 
ATOM     15  O   UNL     1      58.966 165.957  34.361  0.00  0.00    -0.354 OA
ATOM     16  C   UNL     1      59.881 166.898  33.995  0.00  0.00    +0.143 C 
ENDROOT
BRANCH   1  17
ATOM     17  N   UNL     1      62.783 165.880  36.929  0.00  0.00    -0.158 N 
ATOM     18  N   UNL     1      63.337 166.687  37.813  0.00  0.00    -0.156 NA
ATOM     19  C   UNL     1      64.614 166.950  37.473  0.00  0.00    +0.187 C 
ATOM     20  N   UNL     1      64.866 166.288  36.339  0.00  0.00    -0.249 N 
ATOM     21  C   UNL     1      63.743 165.641  36.020  0.00  0.00    +0.328 C 
ATOM     22  O   UNL     1      63.626 164.911  35.002  0.00  0.00    -0.250 OA
ATOM     23  H   UNL     1      65.714 166.278  35.839  0.00  0.00    +0.158 HD
ENDBRANCH   1  17
BRANCH   1  26
ATOM     24  S   UNL     1      61.107 161.469  37.658  0.00  0.00    -0.082 S 
ATOM     25  N   UNL     1      60.675 163.044  36.818  0.00  0.00    -0.230 NA
ATOM     26  C   UNL     1      61.473 163.881  37.331  0.00  0.00    +0.088 C 
ATOM     27  C   UNL     1      62.403 163.431  38.324  0.00  0.00    +0.024 C 
ATOM     28  C   UNL     1      62.369 162.170  38.640  0.00  0.00    +0.036 C 
ATOM     29  H   UNL     1      61.521 160.372  36.969  0.00  0.00    +0.116 HD
BRANCH  24  30
ATOM     30  C   UNL     1      59.671 160.719  38.410  0.00  0.00    +0.106 C 
ATOM     31  N   UNL     1      58.965 160.018  37.617  0.00  0.00    -0.292 NA
ATOM     32  H   UNL     1      59.228 159.928  36.672  0.00  0.00    +0.187 HD
BRANCH  30  33
ATOM     33  C   UNL     1      59.388 160.928  39.812  0.00  0.00    +0.061 C 
ATOM     34  C   UNL     1      58.535 161.831  40.192  0.00  0.00    +0.010 C 
BRANCH  33  35
ATOM     35  S   UNL     1      60.226 159.929  41.020  0.00  0.00    -0.008 S 
BRANCH  35  36
ATOM     36  S   UNL     1      59.053 158.546  41.650  0.00  0.00    +0.187 S 
ATOM     37  O   UNL     1      58.465 158.587  42.862  0.00  0.00    -0.231 OA
ENDBRANCH  35  36
ENDBRANCH  33  35
ENDBRANCH  30  33
ENDBRANCH  24  30
ENDBRANCH   1  26
TORSDOF 6
ENDMDL
