MODEL 1
REMARK VINA RESULT:    -9.338      0.000      0.000
REMARK INTER + INTRA:         -12.474
REMARK INTER:                 -11.521
REMARK INTRA:                  -0.952
REMARK UNBOUND:                -0.952
REMARK  Name = =
REMARK  4 active torsions:
REMARK  status: ('A' for Active; 'I' for Inactive)
REMARK    1  A    between atoms: C_1  and  C_12
REMARK    2  A    between atoms: C_1  and  C_24
REMARK    3  A    between atoms: C_5  and  C_7
REMARK    4  A    between atoms: C_14  and  C_17
REMARK                            x       y       z     vdW  Elec       q    Type
REMARK                         _______ _______ _______ _____ _____    ______ ____
ROOT
ATOM      1  C   UNL     1      50.033 160.069  30.651  0.00  0.00    +0.171 C 
ATOM      2  C   UNL     1      49.875 160.161  32.149  0.00  0.00    +0.084 C 
ATOM      3  C   UNL     1      50.743 161.347  32.434  0.00  0.00    +0.154 C 
ATOM      4  O   UNL     1      50.569 162.106  33.418  0.00  0.00    -0.296 OA
ATOM      5  C   UNL     1      51.742 161.388  31.375  0.00  0.00    +0.088 C 
ATOM      6  C   UNL     1      51.333 160.657  30.361  0.00  0.00    +0.030 C 
ENDROOT
BRANCH   5   7
ATOM      7  C   UNL     1      53.001 162.171  31.525  0.00  0.00    +0.119 C 
ATOM      8  N   UNL     1      53.988 161.468  32.288  0.00  0.00    -0.285 NA
ATOM      9  C   UNL     1      55.228 162.122  31.844  0.00  0.00    +0.087 C 
ATOM     10  C   UNL     1      55.004 162.146  30.344  0.00  0.00    +0.087 C 
ATOM     11  N   UNL     1      53.600 162.400  30.231  0.00  0.00    -0.285 NA
ATOM     12  H   UNL     1      53.991 160.473  32.065  0.00  0.00    +0.124 HD
ATOM     13  H   UNL     1      53.187 161.770  29.542  0.00  0.00    +0.124 HD
ENDBRANCH   5   7
BRANCH   1  14
ATOM     14  C   UNL     1      49.963 158.617  30.303  0.00  0.00    +0.236 A 
ATOM     15  O   UNL     1      50.999 157.998  29.768  0.00  0.00    -0.418 OA
ATOM     16  C   UNL     1      50.689 156.764  29.563  0.00  0.00    +0.269 A 
ATOM     17  N   UNL     1      49.433 156.585  29.971  0.00  0.00    -0.106 NA
ATOM     18  N   UNL     1      48.960 157.749  30.441  0.00  0.00    -0.111 NA
BRANCH  16  19
ATOM     19  C   UNL     1      51.534 155.710  28.987  0.00  0.00    +0.154 C 
ATOM     20  N   UNL     1      51.673 154.519  29.597  0.00  0.00    -0.174 NA
ATOM     21  N   UNL     1      52.427 153.554  29.100  0.00  0.00    -0.202 N 
ATOM     22  C   UNL     1      53.113 153.680  27.950  0.00  0.00    +0.265 C 
ATOM     23  O   UNL     1      53.835 152.778  27.458  0.00  0.00    -0.268 OA
ATOM     24  C   UNL     1      53.001 154.897  27.278  0.00  0.00    +0.061 C 
ATOM     25  C   UNL     1      52.214 155.898  27.801  0.00  0.00    +0.030 C 
ATOM     26  H   UNL     1      52.490 152.705  29.595  0.00  0.00    +0.178 HD
ENDBRANCH  16  19
ENDBRANCH   1  14
BRANCH   1  27
ATOM     27  C   UNL     1      48.914 160.731  29.935  0.00  0.00    +0.373 C 
ATOM     28  O   UNL     1      49.048 160.998  28.727  0.00  0.00    -0.245 OA
ATOM     29  O   UNL     1      47.752 161.045  30.586  0.00  0.00    -0.245 OA
ENDBRANCH   1  27
TORSDOF 4
ENDMDL
