REMARK  Name = =
REMARK  6 active torsions:
REMARK  status: ('A' for Active; 'I' for Inactive)
REMARK    1  A    between atoms: C_1  and  N_17
REMARK    2  A    between atoms: C_1  and  C_25
REMARK    3  A    between atoms: S_23  and  C_28
REMARK    4  A    between atoms: C_28  and  C_30
REMARK    5  A    between atoms: C_30  and  S_32
REMARK    6  A    between atoms: S_32  and  S_33
REMARK                            x       y       z     vdW  Elec       q    Type
REMARK                         _______ _______ _______ _____ _____    ______ ____
ROOT
ATOM      1  C   UNL     1      54.157 153.150  26.357  0.00  0.00    +0.140 C 
ATOM      2  C   UNL     1      53.868 151.780  25.958  0.00  0.00    +0.000 C 
ATOM      3  C   UNL     1      54.962 151.105  25.385  0.00  0.00    -0.021 C 
ATOM      4  C   UNL     1      54.825 149.813  24.968  0.00  0.00    +0.036 C 
ATOM      5  C   UNL     1      53.624 149.164  25.102  0.00  0.00    +0.176 C 
ATOM      6  C   UNL     1      52.560 149.841  25.668  0.00  0.00    +0.176 C 
ATOM      7  C   UNL     1      52.658 151.148  26.103  0.00  0.00    +0.038 C 
ATOM      8  O   UNL     1      51.499 148.952  25.676  0.00  0.00    -0.435 OA
ATOM      9  C   UNL     1      51.848 147.822  24.898  0.00  0.00    +0.429 C 
ATOM     10  O   UNL     1      53.264 147.878  24.756  0.00  0.00    -0.435 OA
ATOM     11  C   UNL     1      56.288 151.783  25.233  0.00  0.00    +0.029 C 
ATOM     12  C   UNL     1      56.603 152.713  26.378  0.00  0.00    +0.039 C 
ATOM     13  C   UNL     1      55.418 153.158  27.153  0.00  0.00    +0.060 C 
ATOM     14  C   UNL     1      55.398 152.185  28.309  0.00  0.00    +0.145 C 
ATOM     15  O   UNL     1      56.661 151.690  28.476  0.00  0.00    -0.354 OA
ATOM     16  C   UNL     1      57.453 152.031  27.421  0.00  0.00    +0.143 C 
ENDROOT
BRANCH   1  17
ATOM     17  N   UNL     1      54.398 153.915  25.145  0.00  0.00    -0.158 N 
ATOM     18  N   UNL     1      55.543 154.271  24.596  0.00  0.00    -0.156 NA
ATOM     19  C   UNL     1      55.324 154.979  23.470  0.00  0.00    +0.187 C 
ATOM     20  N   UNL     1      54.000 155.069  23.311  0.00  0.00    -0.249 N 
ATOM     21  C   UNL     1      53.449 154.417  24.337  0.00  0.00    +0.328 C 
ATOM     22  O   UNL     1      52.207 154.302  24.502  0.00  0.00    -0.250 OA
ATOM     23  H   UNL     1      53.524 155.526  22.580  0.00  0.00    +0.158 HD
ENDBRANCH   1  17
BRANCH   1  26
ATOM     24  S   UNL     1      51.436 155.362  28.193  0.00  0.00    -0.082 S 
ATOM     25  N   UNL     1      52.880 155.066  27.098  0.00  0.00    -0.230 NA
ATOM     26  C   UNL     1      53.035 153.811  27.146  0.00  0.00    +0.088 C 
ATOM     27  C   UNL     1      52.141 153.035  27.953  0.00  0.00    +0.024 C 
ATOM     28  C   UNL     1      51.211 153.678  28.596  0.00  0.00    +0.036 C 
ATOM     29  H   UNL     1      50.297 155.955  27.744  0.00  0.00    +0.116 HD
BRANCH  24  30
ATOM     30  C   UNL     1      51.816 156.564  29.459  0.00  0.00    +0.106 C 
ATOM     31  N   UNL     1      52.935 156.387  30.036  0.00  0.00    -0.292 NA
ATOM     32  H   UNL     1      53.511 155.633  29.773  0.00  0.00    +0.187 HD
BRANCH  30  33
ATOM     33  C   UNL     1      50.885 157.630  29.756  0.00  0.00    +0.061 C 
ATOM     34  C   UNL     1      49.606 157.405  29.793  0.00  0.00    +0.010 C 
BRANCH  33  35
ATOM     35  S   UNL     1      51.513 159.262  30.072  0.00  0.00    -0.008 S 
BRANCH  35  36
ATOM     36  S   UNL     1      50.624 160.020  31.595  0.00  0.00    +0.187 S 
ATOM     37  O   UNL     1      49.343 159.739  31.904  0.00  0.00    -0.231 OA
ENDBRANCH  35  36
ENDBRANCH  33  35
ENDBRANCH  30  33
ENDBRANCH  24  30
ENDBRANCH   1  26
TORSDOF 6
