REMARK  Name = =
REMARK  4 active torsions:
REMARK  status: ('A' for Active; 'I' for Inactive)
REMARK    1  A    between atoms: C_1  and  C_12
REMARK    2  A    between atoms: C_1  and  C_24
REMARK    3  A    between atoms: C_5  and  C_7
REMARK    4  A    between atoms: C_14  and  C_17
REMARK                            x       y       z     vdW  Elec       q    Type
REMARK                         _______ _______ _______ _____ _____    ______ ____
ROOT
ATOM      1  C   UNL     1      52.412 155.460  27.386  0.00  0.00    +0.171 C 
ATOM      2  C   UNL     1      52.087 155.930  25.989  0.00  0.00    +0.084 C 
ATOM      3  C   UNL     1      52.698 154.822  25.189  0.00  0.00    +0.154 C 
ATOM      4  O   UNL     1      52.293 154.493  24.048  0.00  0.00    -0.296 OA
ATOM      5  C   UNL     1      53.777 154.277  26.001  0.00  0.00    +0.088 C 
ATOM      6  C   UNL     1      53.610 154.645  27.252  0.00  0.00    +0.030 C 
ENDROOT
BRANCH   5   7
ATOM      7  C   UNL     1      54.856 153.443  25.399  0.00  0.00    +0.119 C 
ATOM      8  N   UNL     1      55.659 152.797  26.393  0.00  0.00    -0.285 NA
ATOM      9  C   UNL     1      56.226 151.673  25.632  0.00  0.00    +0.087 C 
ATOM     10  C   UNL     1      54.986 151.171  24.917  0.00  0.00    +0.087 C 
ATOM     11  N   UNL     1      54.278 152.378  24.612  0.00  0.00    -0.285 NA
ATOM     12  H   UNL     1      55.091 152.469  27.174  0.00  0.00    +0.124 HD
ATOM     13  H   UNL     1      53.291 152.270  24.847  0.00  0.00    +0.124 HD
ENDBRANCH   5   7
BRANCH   1  14
ATOM     14  C   UNL     1      52.635 156.689  28.208  0.00  0.00    +0.236 A 
ATOM     15  O   UNL     1      51.637 157.259  28.857  0.00  0.00    -0.418 OA
ATOM     16  C   UNL     1      52.082 158.292  29.485  0.00  0.00    +0.269 A 
ATOM     17  N   UNL     1      53.388 158.390  29.236  0.00  0.00    -0.106 NA
ATOM     18  N   UNL     1      53.752 157.382  28.429  0.00  0.00    -0.111 NA
BRANCH  16  19
ATOM     19  C   UNL     1      51.326 159.223  30.333  0.00  0.00    +0.154 C 
ATOM     20  N   UNL     1      51.889 160.351  30.801  0.00  0.00    -0.174 NA
ATOM     21  N   UNL     1      51.232 161.205  31.566  0.00  0.00    -0.202 N 
ATOM     22  C   UNL     1      49.953 161.019  31.938  0.00  0.00    +0.265 C 
ATOM     23  O   UNL     1      49.307 161.815  32.663  0.00  0.00    -0.268 OA
ATOM     24  C   UNL     1      49.323 159.863  31.478  0.00  0.00    +0.061 C 
ATOM     25  C   UNL     1      50.014 158.978  30.681  0.00  0.00    +0.030 C 
ATOM     26  H   UNL     1      51.700 162.013  31.878  0.00  0.00    +0.178 HD
ENDBRANCH  16  19
ENDBRANCH   1  14
BRANCH   1  27
ATOM     27  C   UNL     1      51.273 154.737  28.005  0.00  0.00    +0.373 C 
ATOM     28  O   UNL     1      51.383 153.517  28.222  0.00  0.00    -0.245 OA
ATOM     29  O   UNL     1      50.119 155.395  28.335  0.00  0.00    -0.245 OA
ENDBRANCH   1  27
TORSDOF 4
