REMARK  Name = =
REMARK  1 active torsions:
REMARK  status: ('A' for Active; 'I' for Inactive)
REMARK    1  A    between atoms: C_1  and  C_8
REMARK                            x       y       z     vdW  Elec       q    Type
REMARK                         _______ _______ _______ _____ _____    ______ ____
ROOT
ATOM      1  C   UNL     1      -2.351  -4.525  30.150  0.00  0.00    +0.042 C 
ATOM      2  C   UNL     1      -2.145  -5.877  30.326  0.00  0.00    +0.003 C 
ATOM      3  C   UNL     1      -1.308  -6.592  29.461  0.00  0.00    +0.000 C 
ATOM      4  C   UNL     1      -0.671  -5.960  28.414  0.00  0.00    +0.000 C 
ATOM      5  C   UNL     1      -0.890  -4.603  28.255  0.00  0.00    +0.000 C 
ATOM      6  C   UNL     1      -1.720  -3.881  29.108  0.00  0.00    +0.003 C 
ENDROOT
BRANCH   1   8
ATOM      7  O   UNL     1      -3.294  -2.550  31.034  0.00  0.00    -0.283 OA
ATOM      8  C   UNL     1      -3.225  -3.790  31.058  0.00  0.00    +0.234 C 
ENDBRANCH   1   8
TORSDOF 1
