REMARK  Name = =
REMARK  11 active torsions:
REMARK  status: ('A' for Active; 'I' for Inactive)
REMARK    1  A    between atoms: P_1  and  O_3
REMARK    2  A    between atoms: P_1  and  O_4
REMARK    3  A    between atoms: P_1  and  O_13
REMARK    4  A    between atoms: O_4  and  C_7
REMARK    5  A    between atoms: C_5  and  C_12
REMARK    6  A    between atoms: O_13  and  P_14
REMARK    7  A    between atoms: P_14  and  O_16
REMARK    8  A    between atoms: P_14  and  O_17
REMARK    9  A    between atoms: O_17  and  P_18
REMARK   10  A    between atoms: P_18  and  O_20
REMARK   11  A    between atoms: P_18  and  O_21
REMARK                            x       y       z     vdW  Elec       q    Type
REMARK                         _______ _______ _______ _____ _____    ______ ____
ROOT
ATOM      1  P   UNL     1       0.431  -4.924  27.702  0.00  0.00    +0.539 P 
ATOM      2  O   UNL     1       1.274  -4.885  28.964  0.00  0.00    -0.215 OA
ENDROOT
BRANCH   1   3
ATOM      3  O   UNL     1       0.432  -6.486  27.018  0.00  0.00    -0.293 OA
ATOM      4  H   UNL     1       0.005  -7.107  27.629  0.00  0.00    +0.223 HD
ENDBRANCH   1   3
BRANCH   1   5
ATOM      5  O   UNL     1      -1.176  -4.445  27.995  0.00  0.00    -0.402 OA
BRANCH   5   8
ATOM      6  C   UNL     1      -2.160  -6.728  30.701  0.00  0.00    +0.045 C 
ATOM      7  C   UNL     1      -1.520  -6.176  29.616  0.00  0.00    +0.041 C 
ATOM      8  C   UNL     1      -1.860  -4.945  29.089  0.00  0.00    +0.149 C 
ATOM      9  C   UNL     1      -2.891  -4.263  29.702  0.00  0.00    +0.037 C 
ATOM     10  C   UNL     1      -3.556  -4.783  30.790  0.00  0.00    +0.003 C 
ATOM     11  C   UNL     1      -3.183  -6.025  31.289  0.00  0.00    +0.003 C 
BRANCH   6  13
ATOM     12  O   UNL     1      -0.874  -8.717  30.683  0.00  0.00    -0.283 OA
ATOM     13  C   UNL     1      -1.781  -8.026  31.234  0.00  0.00    +0.234 C 
ENDBRANCH   6  13
ENDBRANCH   5   8
ENDBRANCH   1   5
BRANCH   1  14
ATOM     14  O   UNL     1       1.189  -3.908  26.581  0.00  0.00    -0.176 OA
BRANCH  14  15
ATOM     15  P   UNL     1       2.837  -3.967  26.860  0.00  0.00    +0.493 P 
ATOM     16  O   UNL     1       3.266  -2.963  27.905  0.00  0.00    -0.226 OA
BRANCH  15  17
ATOM     17  O   UNL     1       3.356  -5.487  27.385  0.00  0.00    -0.302 OA
ATOM     18  H   UNL     1       2.867  -5.737  28.185  0.00  0.00    +0.222 HD
ENDBRANCH  15  17
BRANCH  15  19
ATOM     19  O   UNL     1       3.734  -3.593  25.457  0.00  0.00    -0.186 OA
BRANCH  19  20
ATOM     20  P   UNL     1       5.272  -3.117  26.015  0.00  0.00    +0.481 P 
ATOM     21  O   UNL     1       5.213  -1.649  26.325  0.00  0.00    -0.227 OA
BRANCH  20  22
ATOM     22  O   UNL     1       6.433  -3.479  24.840  0.00  0.00    -0.302 OA
ATOM     23  H   UNL     1       6.220  -3.008  24.019  0.00  0.00    +0.222 HD
ENDBRANCH  20  22
BRANCH  20  24
ATOM     24  O   UNL     1       5.648  -3.944  27.452  0.00  0.00    -0.302 OA
ATOM     25  H   UNL     1       4.983  -3.738  28.127  0.00  0.00    +0.222 HD
ENDBRANCH  20  24
ENDBRANCH  19  20
ENDBRANCH  15  19
ENDBRANCH  14  15
ENDBRANCH   1  14
TORSDOF 11
