REMARK  Name = =
REMARK  9 active torsions:
REMARK  status: ('A' for Active; 'I' for Inactive)
REMARK    1  A    between atoms: O_2  and  O_21
REMARK    2  A    between atoms: P_5  and  O_7
REMARK    3  A    between atoms: P_5  and  O_8
REMARK    4  A    between atoms: O_8  and  C_11
REMARK    5  A    between atoms: C_9  and  C_16
REMARK    6  A    between atoms: C_18  and  O_20
REMARK    7  A    between atoms: O_21  and  P_22
REMARK    8  A    between atoms: P_22  and  O_24
REMARK    9  A    between atoms: P_22  and  O_25
REMARK                            x       y       z     vdW  Elec       q    Type
REMARK                         _______ _______ _______ _____ _____    ______ ____
ROOT
ATOM      1  P   UNL     1       0.312  -6.494  29.626  0.00  0.00    +0.000 P 
ENDROOT
TORSDOF 0
REMARK  Name = =
REMARK  9 active torsions:
REMARK  status: ('A' for Active; 'I' for Inactive)
REMARK    1  A    between atoms: O_2  and  O_21
REMARK    2  A    between atoms: P_5  and  O_7
REMARK    3  A    between atoms: P_5  and  O_8
REMARK    4  A    between atoms: O_8  and  C_11
REMARK    5  A    between atoms: C_9  and  C_16
REMARK    6  A    between atoms: C_18  and  O_20
REMARK    7  A    between atoms: O_21  and  P_22
REMARK    8  A    between atoms: P_22  and  O_24
REMARK    9  A    between atoms: P_22  and  O_25
REMARK                            x       y       z     vdW  Elec       q    Type
REMARK                         _______ _______ _______ _____ _____    ______ ____
ROOT
ATOM      1  P   UNL     1      -0.091  -7.372  32.256  0.00  0.00    +0.499 P 
ATOM      2  O   UNL     1       0.933  -8.134  33.102  0.00  0.00    -0.225 OA
ENDROOT
BRANCH   1   3
ATOM      3  O   UNL     1      -1.027  -8.514  31.471  0.00  0.00    -0.301 OA
ATOM      4  H   UNL     1      -0.475  -9.010  30.846  0.00  0.00    +0.222 HD
ENDBRANCH   1   3
BRANCH   1   5
ATOM      5  O   UNL     1      -1.012  -6.463  33.374  0.00  0.00    -0.301 OA
ATOM      6  H   UNL     1      -0.440  -5.812  33.810  0.00  0.00    +0.222 HD
ENDBRANCH   1   5
BRANCH   1   7
ATOM      7  O   UNL     1       0.754  -6.364  31.236  0.00  0.00    -0.129 OA
BRANCH   7   8
ATOM      8  O   UNL     1       1.409  -5.845  30.472  0.00  0.00    -0.240 OA
ATOM      9  H   UNL     1       1.270  -4.886  30.525  0.00  0.00    +0.254 HD
ENDBRANCH   7   8
ENDBRANCH   1   7
TORSDOF 4
REMARK  Name = =
REMARK  9 active torsions:
REMARK  status: ('A' for Active; 'I' for Inactive)
REMARK    1  A    between atoms: O_2  and  O_21
REMARK    2  A    between atoms: P_5  and  O_7
REMARK    3  A    between atoms: P_5  and  O_8
REMARK    4  A    between atoms: O_8  and  C_11
REMARK    5  A    between atoms: C_9  and  C_16
REMARK    6  A    between atoms: C_18  and  O_20
REMARK    7  A    between atoms: O_21  and  P_22
REMARK    8  A    between atoms: P_22  and  O_24
REMARK    9  A    between atoms: P_22  and  O_25
REMARK                            x       y       z     vdW  Elec       q    Type
REMARK                         _______ _______ _______ _____ _____    ______ ____
ROOT
ATOM      1  O   HOH     1      -1.318  -6.916  29.423  0.00  0.00    -0.253 OA
ATOM      2  H   HOH     0      -0.348  -6.916  29.423  0.00  0.00    +0.253 HD
ENDROOT
TORSDOF 0
REMARK  Name = =
REMARK  9 active torsions:
REMARK  status: ('A' for Active; 'I' for Inactive)
REMARK    1  A    between atoms: O_2  and  O_21
REMARK    2  A    between atoms: P_5  and  O_7
REMARK    3  A    between atoms: P_5  and  O_8
REMARK    4  A    between atoms: O_8  and  C_11
REMARK    5  A    between atoms: C_9  and  C_16
REMARK    6  A    between atoms: C_18  and  O_20
REMARK    7  A    between atoms: O_21  and  P_22
REMARK    8  A    between atoms: P_22  and  O_24
REMARK    9  A    between atoms: P_22  and  O_25
REMARK                            x       y       z     vdW  Elec       q    Type
REMARK                         _______ _______ _______ _____ _____    ______ ____
ROOT
ATOM      1  C   UNL     1       2.392  -1.004  24.681  0.00  0.00    +0.045 C 
ATOM      2  C   UNL     1       1.405  -1.656  25.381  0.00  0.00    +0.041 C 
ATOM      3  C   UNL     1       1.631  -2.418  26.508  0.00  0.00    +0.149 C 
ATOM      4  C   UNL     1       2.964  -2.498  26.918  0.00  0.00    +0.037 C 
ATOM      5  C   UNL     1       3.980  -1.875  26.267  0.00  0.00    +0.003 C 
ATOM      6  C   UNL     1       3.699  -1.126  25.146  0.00  0.00    +0.003 C 
ENDROOT
BRANCH   1   8
ATOM      7  O   UNL     1       3.019   0.371  22.869  0.00  0.00    -0.283 OA
ATOM      8  C   UNL     1       2.116  -0.212  23.500  0.00  0.00    +0.234 C 
ENDBRANCH   1   8
BRANCH   3   9
ATOM      9  O   UNL     1       0.609  -3.063  27.188  0.00  0.00    -0.401 OA
BRANCH   9  11
ATOM     10  O   UNL     1      -0.207  -5.027  29.033  0.00  0.00    -0.213 OA
ATOM     11  P   UNL     1       1.020  -4.026  28.523  0.00  0.00    +0.558 P 
ATOM     12  O   UNL     1       1.401  -3.122  29.689  0.00  0.00    -0.106 OA
BRANCH  11  13
ATOM     13  O   UNL     1       2.353  -5.003  28.115  0.00  0.00    -0.291 OA
ATOM     14  H   UNL     1       2.593  -5.556  28.875  0.00  0.00    +0.223 HD
ENDBRANCH  11  13
ENDBRANCH   9  11
ENDBRANCH   3   9
TORSDOF 4
REMARK  Name = =
REMARK  9 active torsions:
REMARK  status: ('A' for Active; 'I' for Inactive)
REMARK    1  A    between atoms: O_2  and  O_21
REMARK    2  A    between atoms: P_5  and  O_7
REMARK    3  A    between atoms: P_5  and  O_8
REMARK    4  A    between atoms: O_8  and  C_11
REMARK    5  A    between atoms: C_9  and  C_16
REMARK    6  A    between atoms: C_18  and  O_20
REMARK    7  A    between atoms: O_21  and  P_22
REMARK    8  A    between atoms: P_22  and  O_24
REMARK    9  A    between atoms: P_22  and  O_25
REMARK                            x       y       z     vdW  Elec       q    Type
REMARK                         _______ _______ _______ _____ _____    ______ ____
ROOT
ATOM      1  O   UNL     1       1.721  -7.461  29.587  0.00  0.00    -0.200 OA
ATOM      2  C   UNL     1       2.128  -7.944  28.350  0.00  0.00    +0.549 C 
ATOM      3  O   UNL     1       1.449  -7.838  27.302  0.00  0.00    -0.200 OA
ENDROOT
BRANCH   2   4
ATOM      4  O   UNL     1       3.345  -8.574  28.270  0.00  0.00    -0.447 OA
ATOM      5  H   UNL     1       3.875  -8.668  29.037  0.00  0.00    +0.299 HD
ENDBRANCH   2   4
TORSDOF 1
