REMARK  Name = =
REMARK  15 active torsions:
REMARK  status: ('A' for Active; 'I' for Inactive)
REMARK    1  A    between atoms: P_1  and  O_3
REMARK    2  A    between atoms: P_1  and  O_4
REMARK    3  A    between atoms: P_1  and  O_8
REMARK    4  A    between atoms: P_1  and  C_13
REMARK    5  A    between atoms: O_4  and  C_5
REMARK    6  A    between atoms: C_5  and  O_7
REMARK    7  A    between atoms: O_8  and  P_9
REMARK    8  A    between atoms: P_9  and  O_11
REMARK    9  A    between atoms: P_9  and  O_12
REMARK   10  A    between atoms: C_13  and  C_14
REMARK   11  A    between atoms: O_17  and  P_18
REMARK   12  A    between atoms: P_18  and  O_20
REMARK   13  A    between atoms: P_18  and  O_21
REMARK   14  A    between atoms: O_21  and  C_24
REMARK   15  A    between atoms: C_22  and  C_29
REMARK                            x       y       z     vdW  Elec       q    Type
REMARK                         _______ _______ _______ _____ _____    ______ ____
ROOT
ATOM      1  P   UNL     1       3.800  -3.842  27.312  0.00  0.00    +0.316 P 
ENDROOT
BRANCH   1   2
ATOM      2  O   UNL     1       3.433  -3.532  25.657  0.00  0.00    -0.325 OA
ATOM      3  H   UNL     1       3.712  -4.288  25.117  0.00  0.00    +0.220 HD
ENDBRANCH   1   2
BRANCH   1   4
ATOM      4  O   UNL     1       2.501  -4.514  27.991  0.00  0.00    -0.370 OA
BRANCH   4   5
ATOM      5  C   UNL     1       1.533  -4.999  27.114  0.00  0.00    +0.513 C 
ATOM      6  O   UNL     1       1.631  -4.884  25.843  0.00  0.00    -0.203 OA
BRANCH   5   7
ATOM      7  O   UNL     1       0.400  -5.633  27.546  0.00  0.00    -0.449 OA
ATOM      8  H   UNL     1      -0.228  -5.945  26.925  0.00  0.00    +0.299 HD
ENDBRANCH   5   7
ENDBRANCH   4   5
ENDBRANCH   1   4
BRANCH   1   9
ATOM      9  O   UNL     1       3.385  -2.648  28.356  0.00  0.00    -0.210 OA
BRANCH   9  10
ATOM     10  P   UNL     1       1.967  -1.895  27.960  0.00  0.00    +0.479 P 
ATOM     11  O   UNL     1       2.036  -0.438  28.411  0.00  0.00    -0.227 OA
BRANCH  10  12
ATOM     12  O   UNL     1       1.641  -1.874  26.309  0.00  0.00    -0.302 OA
ATOM     13  H   UNL     1       2.395  -1.490  25.835  0.00  0.00    +0.222 HD
ENDBRANCH  10  12
BRANCH  10  14
ATOM     14  O   UNL     1       0.658  -2.563  28.802  0.00  0.00    -0.302 OA
ATOM     15  H   UNL     1       0.855  -2.571  29.752  0.00  0.00    +0.222 HD
ENDBRANCH  10  14
ENDBRANCH   9  10
ENDBRANCH   1   9
BRANCH   1  16
ATOM     16  C   UNL     1       5.309  -3.178  27.158  0.00  0.00    +0.177 C 
BRANCH  16  17
ATOM     17  C   UNL     1       5.530  -2.360  25.933  0.00  0.00    +0.163 C 
ATOM     18  O   UNL     1       4.762  -1.454  25.708  0.00  0.00    -0.295 OA
ATOM     19  C   UNL     1       6.636  -2.598  24.985  0.00  0.00    +0.073 C 
ENDBRANCH  16  17
ENDBRANCH   1  16
TORSDOF 10
REMARK  Name = =
REMARK  15 active torsions:
REMARK  status: ('A' for Active; 'I' for Inactive)
REMARK    1  A    between atoms: P_1  and  O_3
REMARK    2  A    between atoms: P_1  and  O_4
REMARK    3  A    between atoms: P_1  and  O_8
REMARK    4  A    between atoms: P_1  and  C_13
REMARK    5  A    between atoms: O_4  and  C_5
REMARK    6  A    between atoms: C_5  and  O_7
REMARK    7  A    between atoms: O_8  and  P_9
REMARK    8  A    between atoms: P_9  and  O_11
REMARK    9  A    between atoms: P_9  and  O_12
REMARK   10  A    between atoms: C_13  and  C_14
REMARK   11  A    between atoms: O_17  and  P_18
REMARK   12  A    between atoms: P_18  and  O_20
REMARK   13  A    between atoms: P_18  and  O_21
REMARK   14  A    between atoms: O_21  and  C_24
REMARK   15  A    between atoms: C_22  and  C_29
REMARK                            x       y       z     vdW  Elec       q    Type
REMARK                         _______ _______ _______ _____ _____    ______ ____
ROOT
ATOM      1  C   UNL     1       2.827 -10.527  26.185  0.00  0.00    +0.045 C 
ATOM      2  C   UNL     1       3.194  -9.448  26.928  0.00  0.00    +0.041 C 
ATOM      3  C   UNL     1       4.483  -8.981  27.007  0.00  0.00    +0.149 C 
ATOM      4  C   UNL     1       5.436  -9.676  26.273  0.00  0.00    +0.037 C 
ATOM      5  C   UNL     1       5.083 -10.769  25.518  0.00  0.00    +0.003 C 
ATOM      6  C   UNL     1       3.780 -11.208  25.463  0.00  0.00    +0.003 C 
ENDROOT
BRANCH   1   8
ATOM      7  O   UNL     1       0.572 -10.368  26.848  0.00  0.00    -0.283 OA
ATOM      8  C   UNL     1       1.430 -10.963  26.154  0.00  0.00    +0.234 C 
ENDBRANCH   1   8
BRANCH   3   9
ATOM      9  O   UNL     1       4.901  -7.904  27.737  0.00  0.00    -0.401 OA
BRANCH   9  10
ATOM     10  P   UNL     1       5.088  -6.337  27.016  0.00  0.00    +0.560 P 
ATOM     11  O   UNL     1       4.447  -6.398  25.677  0.00  0.00    -0.213 OA
BRANCH  10  13
ATOM     12  O   UNL     1       4.034  -4.511  28.658  0.00  0.00    -0.024 OA
ATOM     13  O   UNL     1       4.399  -5.238  28.080  0.00  0.00    -0.083 OA
ENDBRANCH  10  13
BRANCH  10  14
ATOM     14  O   UNL     1       6.780  -6.107  26.884  0.00  0.00    -0.291 OA
ATOM     15  H   UNL     1       7.147  -6.756  26.263  0.00  0.00    +0.223 HD
ENDBRANCH  10  14
ENDBRANCH   9  10
ENDBRANCH   3   9
TORSDOF 5
