REMARK  Name = =
REMARK  15 active torsions:
REMARK  status: ('A' for Active; 'I' for Inactive)
REMARK    1  A    between atoms: O_1  and  O_3
REMARK    2  A    between atoms: O_1  and  P_18
REMARK    3  A    between atoms: P_2  and  O_3
REMARK    4  A    between atoms: P_2  and  O_5
REMARK    5  A    between atoms: O_4  and  O_9
REMARK    6  A    between atoms: O_5  and  C_6
REMARK    7  A    between atoms: C_6  and  O_8
REMARK    8  A    between atoms: O_9  and  P_10
REMARK    9  A    between atoms: P_10  and  O_12
REMARK   10  A    between atoms: P_10  and  O_13
REMARK   11  A    between atoms: P_18  and  O_20
REMARK   12  A    between atoms: P_18  and  O_21
REMARK   13  A    between atoms: O_21  and  C_24
REMARK   14  A    between atoms: C_22  and  C_34
REMARK   15  A    between atoms: C_23  and  C_28
REMARK                            x       y       z     vdW  Elec       q    Type
REMARK                         _______ _______ _______ _____ _____    ______ ____
ROOT
ATOM      1  C   UNL     1       8.479  -8.153  22.751  0.00  0.00    +0.042 C 
ATOM      2  C   UNL     1       7.446  -7.226  22.896  0.00  0.00    +0.026 C 
ATOM      3  C   UNL     1       7.349  -6.514  24.097  0.00  0.00    +0.146 C 
ATOM      4  C   UNL     1       8.246  -6.705  25.138  0.00  0.00    +0.037 C 
ATOM      5  C   UNL     1       9.265  -7.619  24.991  0.00  0.00    +0.003 C 
ATOM      6  C   UNL     1       9.355  -8.316  23.805  0.00  0.00    +0.003 C 
ENDROOT
BRANCH   2   7
ATOM      7  C   UNL     1       6.514  -7.034  21.795  0.00  0.00    +0.121 C 
ATOM      8  C   UNL     1       5.099  -6.621  22.103  0.00  0.00    +0.103 C 
ATOM      9  N   UNL     1       5.143  -5.943  20.795  0.00  0.00    -0.303 N 
ATOM     10  C   UNL     1       6.535  -5.721  21.094  0.00  0.00    +0.228 C 
ATOM     11  O   UNL     1       7.286  -4.767  20.809  0.00  0.00    -0.275 OA
ATOM     12  H   UNL     1       4.517  -5.738  20.063  0.00  0.00    +0.149 HD
ENDBRANCH   2   7
BRANCH   1  14
ATOM     13  O   UNL     1       7.877  -9.965  21.302  0.00  0.00    -0.283 OA
ATOM     14  C   UNL     1       8.600  -8.946  21.549  0.00  0.00    +0.234 C 
ENDBRANCH   1  14
BRANCH   3  15
ATOM     15  O   UNL     1       6.352  -5.591  24.303  0.00  0.00    -0.402 OA
BRANCH  15  16
ATOM     16  P   UNL     1       5.397  -5.578  25.724  0.00  0.00    +0.558 P 
ATOM     17  O   UNL     1       5.079  -6.983  26.048  0.00  0.00    -0.213 OA
BRANCH  16  18
ATOM     18  O   UNL     1       6.317  -4.964  27.035  0.00  0.00    -0.291 OA
ATOM     19  H   UNL     1       5.772  -4.958  27.838  0.00  0.00    +0.223 HD
ENDBRANCH  16  18
BRANCH  16  20
ATOM     20  O   UNL     1       4.131  -4.539  25.500  0.00  0.00    -0.109 OA
BRANCH  20  21
ATOM     21  O   UNL     1       4.187  -3.567  24.845  0.00  0.00    -0.148 OA
BRANCH  21  22
ATOM     22  P   UNL     1       4.434  -3.054  26.189  0.00  0.00    +0.368 P 
BRANCH  22  23
ATOM     23  O   UNL     1       3.375  -1.817  25.820  0.00  0.00    -0.375 OA
BRANCH  23  24
ATOM     24  C   UNL     1       2.583  -1.660  24.722  0.00  0.00    +0.513 C 
ATOM     25  O   UNL     1       3.133  -1.870  23.610  0.00  0.00    -0.203 OA
BRANCH  24  26
ATOM     26  O   UNL     1       1.227  -1.292  24.683  0.00  0.00    -0.449 OA
ATOM     27  H   UNL     1       0.786  -1.216  23.860  0.00  0.00    +0.299 HD
ENDBRANCH  24  26
ENDBRANCH  23  24
ENDBRANCH  22  23
ENDBRANCH  21  22
ENDBRANCH  20  21
ENDBRANCH  16  20
ENDBRANCH  15  16
ENDBRANCH   3  15
TORSDOF 11
REMARK  Name = =
REMARK  15 active torsions:
REMARK  status: ('A' for Active; 'I' for Inactive)
REMARK    1  A    between atoms: O_1  and  O_3
REMARK    2  A    between atoms: O_1  and  P_18
REMARK    3  A    between atoms: P_2  and  O_3
REMARK    4  A    between atoms: P_2  and  O_5
REMARK    5  A    between atoms: O_4  and  O_9
REMARK    6  A    between atoms: O_5  and  C_6
REMARK    7  A    between atoms: C_6  and  O_8
REMARK    8  A    between atoms: O_9  and  P_10
REMARK    9  A    between atoms: P_10  and  O_12
REMARK   10  A    between atoms: P_10  and  O_13
REMARK   11  A    between atoms: P_18  and  O_20
REMARK   12  A    between atoms: P_18  and  O_21
REMARK   13  A    between atoms: O_21  and  C_24
REMARK   14  A    between atoms: C_22  and  C_34
REMARK   15  A    between atoms: C_23  and  C_28
REMARK                            x       y       z     vdW  Elec       q    Type
REMARK                         _______ _______ _______ _____ _____    ______ ____
ROOT
ATOM      1  P   UNL     1       6.495  -1.573  25.276  0.00  0.00    +0.499 P 
ATOM      2  O   UNL     1       7.561  -0.781  26.036  0.00  0.00    -0.225 OA
ENDROOT
BRANCH   1   3
ATOM      3  O   UNL     1       6.305  -0.729  23.795  0.00  0.00    -0.301 OA
ATOM      4  H   UNL     1       5.993   0.172  23.974  0.00  0.00    +0.222 HD
ENDBRANCH   1   3
BRANCH   1   5
ATOM      5  O   UNL     1       7.031  -3.116  24.935  0.00  0.00    -0.301 OA
ATOM      6  H   UNL     1       7.144  -3.609  25.763  0.00  0.00    +0.222 HD
ENDBRANCH   1   5
BRANCH   1   7
ATOM      7  O   UNL     1       5.071  -1.464  26.104  0.00  0.00    -0.129 OA
BRANCH   7   8
ATOM      8  O   UNL     1       5.779  -2.461  27.022  0.00  0.00    -0.240 OA
ATOM      9  H   UNL     1       5.192  -2.696  27.758  0.00  0.00    +0.254 HD
ENDBRANCH   7   8
ENDBRANCH   1   7
TORSDOF 4
REMARK  Name = =
REMARK  15 active torsions:
REMARK  status: ('A' for Active; 'I' for Inactive)
REMARK    1  A    between atoms: O_1  and  O_3
REMARK    2  A    between atoms: O_1  and  P_18
REMARK    3  A    between atoms: P_2  and  O_3
REMARK    4  A    between atoms: P_2  and  O_5
REMARK    5  A    between atoms: O_4  and  O_9
REMARK    6  A    between atoms: O_5  and  C_6
REMARK    7  A    between atoms: C_6  and  O_8
REMARK    8  A    between atoms: O_9  and  P_10
REMARK    9  A    between atoms: P_10  and  O_12
REMARK   10  A    between atoms: P_10  and  O_13
REMARK   11  A    between atoms: P_18  and  O_20
REMARK   12  A    between atoms: P_18  and  O_21
REMARK   13  A    between atoms: O_21  and  C_24
REMARK   14  A    between atoms: C_22  and  C_34
REMARK   15  A    between atoms: C_23  and  C_28
REMARK                            x       y       z     vdW  Elec       q    Type
REMARK                         _______ _______ _______ _____ _____    ______ ____
ROOT
ATOM      1  C   UNL     1       3.611  -3.580  27.677  0.00  0.00    +0.072 C 
ATOM      2  C   UNL     1       2.170  -3.295  27.750  0.00  0.00    +0.152 C 
ATOM      3  O   UNL     1       1.370  -4.003  27.144  0.00  0.00    -0.296 OA
ATOM      4  C   UNL     1       1.579  -2.160  28.546  0.00  0.00    +0.072 C 
ENDROOT
TORSDOF 0
