REMARK  Name = =
REMARK  1 active torsions:
REMARK  status: ('A' for Active; 'I' for Inactive)
REMARK    1  A    between atoms: S_1  and  N_2
REMARK                            x       y       z     vdW  Elec       q    Type
REMARK                         _______ _______ _______ _____ _____    ______ ____
ROOT
ATOM      1  S   UNL     1      -2.368  -3.199  29.809  0.00  0.00    +0.003 S 
ATOM      2  H   UNL     1      -2.847  -3.899  30.872  0.00  0.00    +0.131 HD
ENDROOT
BRANCH   1   3
ATOM      3  N   UNL     1      -1.467  -4.270  28.766  0.00  0.00    +0.002 NA
ATOM      4  O   UNL     1      -0.950  -3.886  27.768  0.00  0.00    -0.136 OA
ENDBRANCH   1   3
TORSDOF 1
