REMARK  Name = =
REMARK  2 active torsions:
REMARK  status: ('A' for Active; 'I' for Inactive)
REMARK    1  A    between atoms: C_1  and  S_8
REMARK    2  A    between atoms: S_8  and  N_9
REMARK                            x       y       z     vdW  Elec       q    Type
REMARK                         _______ _______ _______ _____ _____    ______ ____
ROOT
ATOM      1  C   UNL     1      -3.231  -3.950  31.052  0.00  0.00    +0.240 C 
ATOM      2  O   UNL     1      -3.748  -5.138  31.629  0.00  0.00    -0.439 OA
ATOM      3  C   UNL     1      -4.270  -4.998  32.910  0.00  0.00    +0.318 C 
ATOM      4  O   UNL     1      -4.272  -5.910  33.774  0.00  0.00    -0.250 OA
ATOM      5  C   UNL     1      -4.849  -3.633  33.195  0.00  0.00    +0.110 C 
ATOM      6  C   UNL     1      -5.467  -3.189  31.872  0.00  0.00    +0.016 C 
ATOM      7  C   UNL     1      -4.401  -3.003  30.843  0.00  0.00    +0.058 C 
ENDROOT
BRANCH   1   8
ATOM      8  S   UNL     1      -2.377  -4.273  29.493  0.00  0.00    +0.074 S 
BRANCH   8   9
ATOM      9  N   UNL     1      -0.753  -4.852  29.867  0.00  0.00    +0.009 NA
ATOM     10  O   UNL     1      -0.328  -5.802  29.275  0.00  0.00    -0.136 OA
ENDBRANCH   8   9
ENDBRANCH   1   8
TORSDOF 2
