REMARK  Name = =
REMARK  3 active torsions:
REMARK  status: ('A' for Active; 'I' for Inactive)
REMARK    1  A    between atoms: C_1  and  C_16
REMARK    2  A    between atoms: C_12  and  S_19
REMARK    3  A    between atoms: S_19  and  N_20
REMARK                            x       y       z     vdW  Elec       q    Type
REMARK                         _______ _______ _______ _____ _____    ______ ____
ROOT
ATOM      1  C   UNL     1      -5.149  -2.520  31.987  0.00  0.00    -0.012 C 
ATOM      2  C   UNL     1      -4.170  -2.039  31.157  0.00  0.00    -0.002 C 
ATOM      3  C   UNL     1      -3.085  -2.831  30.776  0.00  0.00    +0.014 C 
ATOM      4  C   UNL     1      -2.991  -4.123  31.240  0.00  0.00    +0.051 C 
ATOM      5  C   UNL     1      -3.964  -4.620  32.073  0.00  0.00    +0.052 C 
ATOM      6  C   UNL     1      -5.043  -3.805  32.441  0.00  0.00    +0.001 C 
ATOM      7  C   UNL     1      -3.903  -5.930  32.565  0.00  0.00    +0.198 C 
ATOM      8  O   UNL     1      -4.819  -6.343  33.327  0.00  0.00    -0.286 OA
ATOM      9  C   UNL     1      -2.837  -6.694  32.185  0.00  0.00    +0.058 C 
ATOM     10  C   UNL     1      -1.891  -6.151  31.352  0.00  0.00    +0.065 C 
ATOM     11  N   UNL     1      -1.934  -4.908  30.874  0.00  0.00    -0.311 N 
ATOM     12  H   UNL     1      -1.229  -4.567  30.278  0.00  0.00    +0.152 HD
ENDROOT
BRANCH   1  17
ATOM     13  C   UNL     1      -8.506   0.228  32.119  0.00  0.00    +0.240 C 
ATOM     14  O   UNL     1      -8.614  -1.159  31.885  0.00  0.00    -0.439 OA
ATOM     15  C   UNL     1      -7.533  -1.999  31.664  0.00  0.00    +0.321 C 
ATOM     16  O   UNL     1      -7.712  -2.959  30.884  0.00  0.00    -0.250 OA
ATOM     17  C   UNL     1      -6.276  -1.677  32.373  0.00  0.00    +0.121 C 
ATOM     18  C   UNL     1      -6.025  -0.187  32.115  0.00  0.00    +0.020 C 
ATOM     19  C   UNL     1      -7.182   0.553  32.716  0.00  0.00    +0.058 C 
BRANCH  13  20
ATOM     20  S   UNL     1      -8.823   1.068  30.550  0.00  0.00    +0.074 S 
BRANCH  20  21
ATOM     21  N   UNL     1     -10.507   0.800  30.144  0.00  0.00    +0.009 NA
ATOM     22  O   UNL     1     -11.142  -0.100  30.639  0.00  0.00    -0.136 OA
ENDBRANCH  20  21
ENDBRANCH  13  20
ENDBRANCH   1  17
TORSDOF 3
