REMARK  Name = =
REMARK  6 active torsions:
REMARK  status: ('A' for Active; 'I' for Inactive)
REMARK    1  A    between atoms: C_1  and  C_16
REMARK    2  A    between atoms: N_11  and  S_22
REMARK    3  A    between atoms: C_12  and  S_19
REMARK    4  A    between atoms: S_19  and  N_20
REMARK    5  A    between atoms: S_22  and  S_23
REMARK    6  A    between atoms: S_23  and  S_24
REMARK                            x       y       z     vdW  Elec       q    Type
REMARK                         _______ _______ _______ _____ _____    ______ ____
ROOT
ATOM      1  C   UNL     1      -4.670  -2.202  31.364  0.00  0.00    -0.012 C 
ATOM      2  C   UNL     1      -4.462  -0.841  31.342  0.00  0.00    -0.002 C 
ATOM      3  C   UNL     1      -5.532  -0.005  31.590  0.00  0.00    +0.015 C 
ATOM      4  C   UNL     1      -6.799  -0.513  31.858  0.00  0.00    +0.066 C 
ATOM      5  C   UNL     1      -6.978  -1.888  31.873  0.00  0.00    +0.053 C 
ATOM      6  C   UNL     1      -5.923  -2.747  31.628  0.00  0.00    +0.001 C 
ATOM      7  C   UNL     1      -8.220  -2.416  32.135  0.00  0.00    +0.198 C 
ATOM      8  O   UNL     1      -8.385  -3.659  32.150  0.00  0.00    -0.286 OA
ATOM      9  C   UNL     1      -9.256  -1.548  32.376  0.00  0.00    +0.059 C 
ATOM     10  C   UNL     1      -9.038  -0.197  32.351  0.00  0.00    +0.080 C 
ATOM     11  N   UNL     1      -7.824   0.317  32.096  0.00  0.00    -0.230 N 
ENDROOT
BRANCH   1  16
ATOM     12  C   UNL     1      -1.625  -4.735  30.235  0.00  0.00    +0.240 C 
ATOM     13  O   UNL     1      -2.950  -5.157  29.914  0.00  0.00    -0.439 OA
ATOM     14  C   UNL     1      -3.966  -4.255  30.259  0.00  0.00    +0.321 C 
ATOM     15  O   UNL     1      -5.152  -4.402  29.898  0.00  0.00    -0.250 OA
ATOM     16  C   UNL     1      -3.533  -3.092  31.099  0.00  0.00    +0.121 C 
ATOM     17  C   UNL     1      -2.445  -2.382  30.321  0.00  0.00    +0.020 C 
ATOM     18  C   UNL     1      -1.489  -3.335  29.658  0.00  0.00    +0.058 C 
BRANCH  12  19
ATOM     19  S   UNL     1      -0.478  -5.822  29.377  0.00  0.00    +0.074 S 
BRANCH  19  20
ATOM     20  N   UNL     1      -0.448  -7.421  30.051  0.00  0.00    +0.009 NA
ATOM     21  O   UNL     1      -0.521  -7.661  31.216  0.00  0.00    -0.136 OA
ENDBRANCH  19  20
ENDBRANCH  12  19
ENDBRANCH   1  16
BRANCH  11  22
ATOM     22  S   UNL     1      -7.643   2.070  32.086  0.00  0.00    +0.028 S 
BRANCH  22  23
ATOM     23  S   UNL     1      -7.017   2.645  30.136  0.00  0.00    -0.007 S 
BRANCH  23  24
ATOM     24  S   UNL     1      -6.278   4.633  30.277  0.00  0.00    -0.098 S 
ATOM     25  H   UNL     1      -5.863   5.050  29.051  0.00  0.00    +0.115 HD
ENDBRANCH  23  24
ENDBRANCH  22  23
ENDBRANCH  11  22
TORSDOF 6
