REMARK  Name = =
REMARK  8 active torsions:
REMARK  status: ('A' for Active; 'I' for Inactive)
REMARK    1  A    between atoms: C_1  and  C_16
REMARK    2  A    between atoms: N_11  and  S_22
REMARK    3  A    between atoms: C_12  and  S_19
REMARK    4  A    between atoms: S_19  and  N_20
REMARK    5  A    between atoms: S_22  and  S_23
REMARK    6  A    between atoms: S_23  and  C_24
REMARK    7  A    between atoms: S_23  and  S_32
REMARK    8  A    between atoms: C_27  and  O_31
REMARK                            x       y       z     vdW  Elec       q    Type
REMARK                         _______ _______ _______ _____ _____    ______ ____
ROOT
ATOM      1  C   UNL     1      -5.069  -2.595  31.212  0.00  0.00    -0.012 C 
ATOM      2  C   UNL     1      -4.086  -2.229  30.313  0.00  0.00    -0.002 C 
ATOM      3  C   UNL     1      -2.961  -2.987  30.063  0.00  0.00    +0.015 C 
ATOM      4  C   UNL     1      -2.791  -4.192  30.748  0.00  0.00    +0.066 C 
ATOM      5  C   UNL     1      -3.746  -4.566  31.634  0.00  0.00    +0.053 C 
ATOM      6  C   UNL     1      -4.863  -3.791  31.866  0.00  0.00    +0.001 C 
ATOM      7  C   UNL     1      -3.620  -5.752  32.332  0.00  0.00    +0.198 C 
ATOM      8  O   UNL     1      -4.501  -6.074  33.134  0.00  0.00    -0.286 OA
ATOM      9  C   UNL     1      -2.480  -6.501  32.066  0.00  0.00    +0.059 C 
ATOM     10  C   UNL     1      -1.529  -6.094  31.161  0.00  0.00    +0.080 C 
ATOM     11  N   UNL     1      -1.680  -4.928  30.491  0.00  0.00    -0.231 N 
ENDROOT
BRANCH   1  16
ATOM     12  C   UNL     1      -8.671  -0.870  32.500  0.00  0.00    +0.240 C 
ATOM     13  O   UNL     1      -7.460  -0.708  33.255  0.00  0.00    -0.439 OA
ATOM     14  C   UNL     1      -6.380  -1.523  32.882  0.00  0.00    +0.321 C 
ATOM     15  O   UNL     1      -5.609  -2.053  33.724  0.00  0.00    -0.250 OA
ATOM     16  C   UNL     1      -6.207  -1.721  31.393  0.00  0.00    +0.121 C 
ATOM     17  C   UNL     1      -7.499  -2.172  30.806  0.00  0.00    +0.020 C 
ATOM     18  C   UNL     1      -8.558  -2.272  31.887  0.00  0.00    +0.058 C 
BRANCH  12  19
ATOM     19  S   UNL     1      -8.710   0.408  31.248  0.00  0.00    +0.074 S 
BRANCH  19  20
ATOM     20  N   UNL     1     -10.321   0.592  30.584  0.00  0.00    +0.009 NA
ATOM     21  O   UNL     1     -11.054  -0.350  30.682  0.00  0.00    -0.136 OA
ENDBRANCH  19  20
ENDBRANCH  12  19
ENDBRANCH   1  16
BRANCH  11  22
ATOM     22  S   UNL     1      -0.553  -4.392  29.386  0.00  0.00    +0.009 S 
BRANCH  22  23
ATOM     23  S   UNL     1       1.168  -4.575  29.743  0.00  0.00    -0.109 S 
ATOM     24  H   UNL     1       1.729  -3.337  29.707  0.00  0.00    +0.110 HD
BRANCH  23  25
ATOM     25  C   UNL     1       1.405  -5.910  28.651  0.00  0.00    +0.051 C 
ATOM     26  C   UNL     1       1.501  -5.612  27.295  0.00  0.00    +0.149 C 
ATOM     27  C   UNL     1       1.692  -6.638  26.365  0.00  0.00    +0.067 C 
ATOM     28  C   UNL     1       1.790  -7.944  26.747  0.00  0.00    +0.136 C 
ATOM     29  C   UNL     1       1.698  -8.242  28.079  0.00  0.00    +0.037 C 
ATOM     30  C   UNL     1       1.506  -7.220  29.006  0.00  0.00    +0.011 C 
ATOM     31  F   UNL     1       1.413  -4.339  26.831  0.00  0.00    -0.204 F 
BRANCH  28  32
ATOM     32  O   UNL     1       1.980  -8.947  25.811  0.00  0.00    -0.505 OA
ATOM     33  H   UNL     1       2.042  -8.733  24.901  0.00  0.00    +0.292 HD
ENDBRANCH  28  32
ENDBRANCH  23  25
BRANCH  23  34
ATOM     34  S   UNL     1       1.791  -5.126  31.137  0.00  0.00    -0.117 S 
ATOM     35  H   UNL     1       1.341  -6.389  31.367  0.00  0.00    +0.113 HD
ENDBRANCH  23  34
ENDBRANCH  22  23
ENDBRANCH  11  22
TORSDOF 8
