REMARK  Name = =
REMARK  10 active torsions:
REMARK  status: ('A' for Active; 'I' for Inactive)
REMARK    1  A    between atoms: C_1  and  C_16
REMARK    2  A    between atoms: N_11  and  S_25
REMARK    3  A    between atoms: C_12  and  S_19
REMARK    4  A    between atoms: S_19  and  N_20
REMARK    5  A    between atoms: S_19  and  S_22
REMARK    6  A    between atoms: S_22  and  N_23
REMARK    7  A    between atoms: S_25  and  S_26
REMARK    8  A    between atoms: S_26  and  C_27
REMARK    9  A    between atoms: S_26  and  S_35
REMARK   10  A    between atoms: C_30  and  O_34
REMARK                            x       y       z     vdW  Elec       q    Type
REMARK                         _______ _______ _______ _____ _____    ______ ____
ROOT
ATOM      1  C   UNL     1      -2.774  -2.376  29.889  0.00  0.00    -0.012 C 
ATOM      2  C   UNL     1      -2.105  -3.217  30.750  0.00  0.00    -0.002 C 
ATOM      3  C   UNL     1      -0.825  -3.680  30.458  0.00  0.00    +0.015 C 
ATOM      4  C   UNL     1      -0.207  -3.295  29.288  0.00  0.00    +0.066 C 
ATOM      5  C   UNL     1      -0.858  -2.466  28.430  0.00  0.00    +0.053 C 
ATOM      6  C   UNL     1      -2.146  -2.000  28.722  0.00  0.00    +0.001 C 
ATOM      7  C   UNL     1      -0.281  -2.064  27.263  0.00  0.00    +0.198 C 
ATOM      8  O   UNL     1      -0.900  -1.303  26.494  0.00  0.00    -0.286 OA
ATOM      9  C   UNL     1       0.986  -2.530  26.987  0.00  0.00    +0.059 C 
ATOM     10  C   UNL     1       1.600  -3.356  27.872  0.00  0.00    +0.080 C 
ATOM     11  N   UNL     1       1.045  -3.776  29.048  0.00  0.00    -0.231 N 
ENDROOT
BRANCH   1  16
ATOM     12  C   UNL     1      -6.440  -0.875  31.093  0.00  0.00    +0.223 C 
ATOM     13  O   UNL     1      -5.339   0.046  31.044  0.00  0.00    -0.440 OA
ATOM     14  C   UNL     1      -4.189  -0.444  30.441  0.00  0.00    +0.321 C 
ATOM     15  O   UNL     1      -3.290   0.341  30.104  0.00  0.00    -0.250 OA
ATOM     16  C   UNL     1      -4.120  -1.917  30.241  0.00  0.00    +0.121 C 
ATOM     17  C   UNL     1      -4.601  -2.532  31.559  0.00  0.00    +0.020 C 
ATOM     18  C   UNL     1      -6.060  -2.173  31.740  0.00  0.00    +0.057 C 
BRANCH  12  19
ATOM     19  S   UNL     1      -7.773  -0.086  31.822  0.00  0.00    -0.033 S 
ATOM     20  H   UNL     1      -8.125   1.193  31.521  0.00  0.00    +0.117 HD
BRANCH  19  21
ATOM     21  N   UNL     1      -7.255  -0.128  33.501  0.00  0.00    +0.003 NA
ATOM     22  O   UNL     1      -6.359   0.617  33.741  0.00  0.00    -0.089 OA
ENDBRANCH  19  21
BRANCH  19  23
ATOM     23  S   UNL     1      -9.034  -0.942  31.363  0.00  0.00    +0.088 S 
BRANCH  23  24
ATOM     24  N   UNL     1      -9.806  -2.077  32.195  0.00  0.00    +0.016 NA
ATOM     25  O   UNL     1      -9.752  -3.265  32.263  0.00  0.00    -0.135 OA
ENDBRANCH  23  24
ENDBRANCH  19  23
ENDBRANCH  12  19
ENDBRANCH   1  16
BRANCH  11  26
ATOM     26  S   UNL     1       1.822  -4.778  30.098  0.00  0.00    +0.009 S 
BRANCH  26  27
ATOM     27  S   UNL     1       1.135  -5.752  31.165  0.00  0.00    -0.109 S 
ATOM     28  H   UNL     1       0.475  -4.896  31.991  0.00  0.00    +0.110 HD
BRANCH  27  29
ATOM     29  C   UNL     1      -0.136  -6.845  30.787  0.00  0.00    +0.051 C 
ATOM     30  C   UNL     1      -0.216  -7.475  29.540  0.00  0.00    +0.149 C 
ATOM     31  C   UNL     1      -1.250  -8.354  29.258  0.00  0.00    +0.067 C 
ATOM     32  C   UNL     1      -2.213  -8.627  30.179  0.00  0.00    +0.136 C 
ATOM     33  C   UNL     1      -2.161  -8.023  31.414  0.00  0.00    +0.037 C 
ATOM     34  C   UNL     1      -1.139  -7.162  31.678  0.00  0.00    +0.011 C 
ATOM     35  F   UNL     1       0.736  -7.196  28.645  0.00  0.00    -0.204 F 
BRANCH  32  36
ATOM     36  O   UNL     1      -3.263  -9.519  29.890  0.00  0.00    -0.505 OA
ATOM     37  H   UNL     1      -3.307  -9.935  29.052  0.00  0.00    +0.292 HD
ENDBRANCH  32  36
ENDBRANCH  27  29
BRANCH  27  38
ATOM     38  S   UNL     1       2.368  -6.658  31.680  0.00  0.00    -0.117 S 
ATOM     39  H   UNL     1       2.836  -7.414  30.651  0.00  0.00    +0.113 HD
ENDBRANCH  27  38
ENDBRANCH  26  27
ENDBRANCH  11  26
TORSDOF 10
