REMARK  Name = =
REMARK  0 active torsions:
REMARK  status: ('A' for Active; 'I' for Inactive)
REMARK                            x       y       z     vdW  Elec       q    Type
REMARK                         _______ _______ _______ _____ _____    ______ ____
ROOT
ATOM      1  N   UNL     1     -13.237 -44.292  27.237  0.00  0.00    -0.297 NA
ATOM      2  C   UNL     1     -12.296 -44.835  28.185  0.00  0.00    +0.069 C 
ATOM      3  C   UNL     1     -11.348 -43.709  28.444  0.00  0.00    +0.019 C 
ATOM      4  C   UNL     1     -11.827 -42.582  27.934  0.00  0.00    +0.019 C 
ATOM      5  C   UNL     1     -13.140 -42.868  27.290  0.00  0.00    +0.069 C 
ATOM      6  H   UNL     1     -13.012 -44.620  26.298  0.00  0.00    +0.123 HD
ENDROOT
TORSDOF 0
