REMARK  Name = =
REMARK  1 active torsions:
REMARK  status: ('A' for Active; 'I' for Inactive)
REMARK    1  A    between atoms: N_1  and  N_9
REMARK                            x       y       z     vdW  Elec       q    Type
REMARK                         _______ _______ _______ _____ _____    ______ ____
ROOT
ATOM      1  N   UNL     1     -12.988 -43.734  27.841  0.00  0.00    -0.215 NA
ATOM      2  C   UNL     1     -12.362 -45.011  27.789  0.00  0.00    +0.110 C 
ATOM      3  C   UNL     1     -11.520 -45.182  29.037  0.00  0.00    +0.113 C 
ATOM      4  N   UNL     1     -10.694 -44.018  29.252  0.00  0.00    -0.269 N 
ATOM      5  C   UNL     1     -11.306 -42.712  29.168  0.00  0.00    +0.113 C 
ATOM      6  C   UNL     1     -12.027 -42.661  27.820  0.00  0.00    +0.110 C 
ATOM      7  C   UNL     1      -9.327 -44.153  29.538  0.00  0.00    +0.303 C 
ATOM      8  O   UNL     1      -8.619 -43.144  29.723  0.00  0.00    -0.265 OA
ENDROOT
BRANCH   1   9
ATOM      9  N   UNL     1     -14.054 -43.564  26.991  0.00  0.00    -0.218 NA
ATOM     10  C   UNL     1     -14.500 -42.206  26.850  0.00  0.00    +0.089 C 
ATOM     11  C   UNL     1     -15.120 -42.158  25.496  0.00  0.00    +0.020 C 
ATOM     12  C   UNL     1     -14.779 -43.247  24.834  0.00  0.00    +0.020 C 
ATOM     13  C   UNL     1     -13.897 -44.121  25.689  0.00  0.00    +0.089 C 
ENDBRANCH   1   9
TORSDOF 1
