REMARK  Name = =
REMARK  6 active torsions:
REMARK  status: ('A' for Active; 'I' for Inactive)
REMARK    1  A    between atoms: C_1  and  C_26
REMARK    2  A    between atoms: C_7  and  O_41
REMARK    3  A    between atoms: C_10  and  O_39
REMARK    4  A    between atoms: C_18  and  O_40
REMARK    5  A    between atoms: N_21  and  N_34
REMARK    6  A    between atoms: C_22  and  C_29
REMARK                            x       y       z     vdW  Elec       q    Type
REMARK                         _______ _______ _______ _____ _____    ______ ____
ROOT
ATOM      1  C   UNL     1     -18.899 -41.910  25.988  0.00  0.00    +0.043 C 
ATOM      2  C   UNL     1     -19.453 -40.601  26.551  0.00  0.00    +0.006 C 
ATOM      3  C   UNL     1     -19.974 -40.785  27.951  0.00  0.00    +0.005 C 
ATOM      4  C   UNL     1     -19.447 -42.016  28.640  0.00  0.00    +0.029 C 
ATOM      5  C   UNL     1     -18.035 -42.316  28.161  0.00  0.00    +0.011 A 
ATOM      6  C   UNL     1     -17.780 -42.274  26.808  0.00  0.00    +0.012 A 
ATOM      7  C   UNL     1     -16.514 -42.569  26.337  0.00  0.00    +0.133 A 
ATOM      8  C   UNL     1     -15.541 -42.899  27.273  0.00  0.00    +0.078 A 
ATOM      9  C   UNL     1     -15.817 -42.937  28.653  0.00  0.00    +0.078 A 
ATOM     10  C   UNL     1     -17.075 -42.646  29.127  0.00  0.00    +0.133 A 
ATOM     11  C   UNL     1     -14.807 -43.278  29.627  0.00  0.00    +0.202 C 
ATOM     12  O   UNL     1     -15.019 -43.322  30.852  0.00  0.00    -0.286 OA
ATOM     13  C   UNL     1     -13.458 -43.593  29.167  0.00  0.00    +0.076 C 
ATOM     14  C   UNL     1     -13.185 -43.558  27.840  0.00  0.00    +0.045 C 
ATOM     15  C   UNL     1     -11.906 -43.859  27.424  0.00  0.00    +0.003 C 
ATOM     16  C   UNL     1     -10.938 -44.187  28.348  0.00  0.00    +0.003 C 
ATOM     17  C   UNL     1     -11.198 -44.229  29.705  0.00  0.00    +0.037 C 
ATOM     18  C   UNL     1     -12.485 -43.924  30.113  0.00  0.00    +0.137 C 
ATOM     19  C   UNL     1     -14.201 -43.212  26.825  0.00  0.00    +0.199 C 
ATOM     20  O   UNL     1     -13.881 -43.199  25.616  0.00  0.00    -0.286 OA
ENDROOT
BRANCH   1  26
ATOM     21  N   UNL     1     -18.494 -41.504  23.546  0.00  0.00    -0.215 NA
ATOM     22  C   UNL     1     -19.234 -41.057  22.423  0.00  0.00    +0.111 C 
ATOM     23  C   UNL     1     -20.501 -41.727  22.059  0.00  0.00    +0.113 C 
ATOM     24  N   UNL     1     -20.913 -42.705  23.037  0.00  0.00    -0.269 N 
ATOM     25  C   UNL     1     -20.608 -42.276  24.379  0.00  0.00    +0.112 C 
ATOM     26  C   UNL     1     -19.117 -42.146  24.581  0.00  0.00    +0.097 C 
ATOM     27  C   UNL     1     -21.531 -43.905  22.663  0.00  0.00    +0.303 C 
ATOM     28  O   UNL     1     -21.727 -44.135  21.437  0.00  0.00    -0.265 OA
BRANCH  22  29
ATOM     29  C   UNL     1     -19.478 -39.537  22.386  0.00  0.00    +0.098 C 
ATOM     30  C   UNL     1     -19.984 -39.100  21.004  0.00  0.00    +0.106 C 
ATOM     31  C   UNL     1     -21.180 -38.514  21.604  0.00  0.00    +0.224 C 
ATOM     32  O   UNL     1     -22.194 -37.817  21.329  0.00  0.00    -0.275 OA
ATOM     33  N   UNL     1     -20.761 -39.094  22.861  0.00  0.00    -0.304 N 
ATOM     34  H   UNL     1     -21.202 -39.162  23.739  0.00  0.00    +0.149 HD
ENDBRANCH  22  29
BRANCH  21  35
ATOM     35  N   UNL     1     -17.211 -41.659  23.214  0.00  0.00    -0.218 NA
ATOM     36  C   UNL     1     -16.716 -41.786  21.927  0.00  0.00    +0.089 C 
ATOM     37  C   UNL     1     -15.978 -40.511  21.623  0.00  0.00    +0.020 C 
ATOM     38  C   UNL     1     -15.766 -39.887  22.748  0.00  0.00    +0.020 C 
ATOM     39  C   UNL     1     -16.344 -40.701  23.848  0.00  0.00    +0.089 C 
ENDBRANCH  21  35
ENDBRANCH   1  26
BRANCH  10  40
ATOM     40  O   UNL     1     -17.462 -42.650  30.443  0.00  0.00    -0.506 OA
ATOM     41  H   UNL     1     -18.345 -42.437  30.672  0.00  0.00    +0.292 HD
ENDBRANCH  10  40
BRANCH  18  42
ATOM     42  O   UNL     1     -12.765 -43.961  31.463  0.00  0.00    -0.505 OA
ATOM     43  H   UNL     1     -13.628 -43.759  31.768  0.00  0.00    +0.292 HD
ENDBRANCH  18  42
BRANCH   7  44
ATOM     44  O   UNL     1     -16.215 -42.544  25.006  0.00  0.00    -0.506 OA
ATOM     45  H   UNL     1     -16.877 -42.321  24.381  0.00  0.00    +0.292 HD
ENDBRANCH   7  44
TORSDOF 6
