REMARK  Name = =
REMARK  1 active torsions:
REMARK  status: ('A' for Active; 'I' for Inactive)
REMARK    1  A    between atoms: C_1  and  S_7
REMARK                            x       y       z     vdW  Elec       q    Type
REMARK                         _______ _______ _______ _____ _____    ______ ____
ROOT
ATOM      1  C   UNL     1      56.704 161.137  41.681  0.00  0.00    +0.021 C 
ATOM      2  C   UNL     1      55.926 160.013  41.860  0.00  0.00    +0.006 C 
ATOM      3  C   UNL     1      54.546 160.086  41.883  0.00  0.00    +0.000 C 
ATOM      4  C   UNL     1      53.891 161.291  41.727  0.00  0.00    +0.000 C 
ATOM      5  C   UNL     1      54.674 162.414  41.548  0.00  0.00    +0.000 C 
ATOM      6  C   UNL     1      56.051 162.342  41.526  0.00  0.00    +0.006 C 
ENDROOT
BRANCH   1   7
ATOM      7  S   UNL     1      58.500 161.072  41.648  0.00  0.00    -0.141 S 
ATOM      8  H   UNL     1      58.910 159.787  41.820  0.00  0.00    +0.107 HD
ENDBRANCH   1   7
TORSDOF 1
