REMARK  Name = =
REMARK  3 active torsions:
REMARK  status: ('A' for Active; 'I' for Inactive)
REMARK    1  A    between atoms: S_1  and  C_4
REMARK    2  A    between atoms: S_1  and  S_10
REMARK    3  A    between atoms: S_10  and  C_11
REMARK                            x       y       z     vdW  Elec       q    Type
REMARK                         _______ _______ _______ _____ _____    ______ ____
ROOT
ATOM      1  S   UNL     1      60.796 164.807  38.279  0.00  0.00    +0.054 S 
ATOM      2  O   UNL     1      61.835 163.833  38.644  0.00  0.00    -0.158 OA
ATOM      3  O   UNL     1      59.489 164.149  38.540  0.00  0.00    -0.158 OA
ENDROOT
BRANCH   1   4
ATOM      4  C   UNL     1      61.076 165.243  36.624  0.00  0.00    +0.117 C 
ATOM      5  C   UNL     1      59.987 165.491  35.815  0.00  0.00    +0.019 C 
ATOM      6  C   UNL     1      60.221 165.837  34.499  0.00  0.00    +0.001 C 
ATOM      7  C   UNL     1      61.489 165.937  33.991  0.00  0.00    +0.000 C 
ATOM      8  C   UNL     1      62.555 165.681  34.829  0.00  0.00    +0.001 C 
ATOM      9  C   UNL     1      62.353 165.328  36.168  0.00  0.00    +0.019 C 
ENDBRANCH   1   4
BRANCH   1  10
ATOM     10  S   UNL     1      60.556 166.582  39.226  0.00  0.00    +0.039 S 
BRANCH  10  11
ATOM     11  C   UNL     1      61.317 167.933  38.585  0.00  0.00    +0.047 C 
ATOM     12  C   UNL     1      60.760 168.690  37.548  0.00  0.00    +0.008 C 
ATOM     13  C   UNL     1      61.403 169.786  37.045  0.00  0.00    +0.001 C 
ATOM     14  C   UNL     1      62.610 170.202  37.516  0.00  0.00    +0.000 C 
ATOM     15  C   UNL     1      63.190 169.485  38.536  0.00  0.00    +0.001 C 
ATOM     16  C   UNL     1      62.558 168.383  39.051  0.00  0.00    +0.008 C 
ENDBRANCH  10  11
ENDBRANCH   1  10
TORSDOF 3
