REMARK  Name = =
REMARK  8 active torsions:
REMARK  status: ('A' for Active; 'I' for Inactive)
REMARK    1  A    between atoms: C_4  and  O_20
REMARK    2  A    between atoms: C_6  and  O_19
REMARK    3  A    between atoms: C_10  and  S_21
REMARK    4  A    between atoms: C_11  and  C_12
REMARK    5  A    between atoms: C_15  and  O_18
REMARK    6  A    between atoms: S_21  and  C_22
REMARK    7  A    between atoms: S_21  and  S_28
REMARK    8  A    between atoms: S_28  and  C_31
REMARK                            x       y       z     vdW  Elec       q    Type
REMARK                         _______ _______ _______ _____ _____    ______ ____
ROOT
ATOM      1  O   UNL     1      58.053 164.966  40.454  0.00  0.00    -0.453 OA
ATOM      2  C   UNL     1      57.300 166.018  40.551  0.00  0.00    +0.154 A 
ATOM      3  C   UNL     1      57.750 167.198  40.005  0.00  0.00    +0.108 A 
ATOM      4  C   UNL     1      56.987 168.335  40.084  0.00  0.00    +0.143 C 
ATOM      5  C   UNL     1      55.754 168.286  40.721  0.00  0.00    +0.073 C 
ATOM      6  C   UNL     1      55.269 167.122  41.278  0.00  0.00    +0.140 C 
ATOM      7  C   UNL     1      56.061 166.002  41.180  0.00  0.00    +0.074 C 
ATOM      8  C   UNL     1      58.993 167.196  39.376  0.00  0.00    +0.210 A 
ATOM      9  O   UNL     1      59.359 168.291  38.896  0.00  0.00    -0.286 OA
ATOM     10  C   UNL     1      59.793 166.042  39.279  0.00  0.00    +0.101 A 
ATOM     11  C   UNL     1      59.247 164.922  39.864  0.00  0.00    +0.154 A 
ENDROOT
BRANCH  11  12
ATOM     12  C   UNL     1      59.873 163.584  39.914  0.00  0.00    +0.035 C 
ATOM     13  C   UNL     1      59.709 162.820  38.745  0.00  0.00    +0.006 C 
ATOM     14  C   UNL     1      60.147 161.528  38.668  0.00  0.00    +0.037 C 
ATOM     15  C   UNL     1      60.760 160.984  39.774  0.00  0.00    +0.134 C 
ATOM     16  C   UNL     1      60.927 161.720  40.926  0.00  0.00    +0.037 C 
ATOM     17  C   UNL     1      60.474 163.042  40.999  0.00  0.00    +0.006 C 
BRANCH  15  18
ATOM     18  O   UNL     1      61.199 159.659  39.662  0.00  0.00    -0.506 OA
ATOM     19  H   UNL     1      61.069 159.188  38.862  0.00  0.00    +0.292 HD
ENDBRANCH  15  18
ENDBRANCH  11  12
BRANCH   6  20
ATOM     20  O   UNL     1      54.015 167.102  41.917  0.00  0.00    -0.505 OA
ATOM     21  H   UNL     1      53.501 167.884  41.965  0.00  0.00    +0.292 HD
ENDBRANCH   6  20
BRANCH   4  22
ATOM     22  O   UNL     1      57.439 169.525  39.537  0.00  0.00    -0.505 OA
ATOM     23  H   UNL     1      58.271 169.557  39.107  0.00  0.00    +0.292 HD
ENDBRANCH   4  22
BRANCH  10  24
ATOM     24  S   UNL     1      61.200 165.997  38.478  0.00  0.00    -0.066 S 
ATOM     25  H   UNL     1      61.836 164.805  38.631  0.00  0.00    +0.114 HD
BRANCH  24  26
ATOM     26  C   UNL     1      60.776 166.334  36.913  0.00  0.00    +0.028 C 
ATOM     27  C   UNL     1      60.609 165.298  36.013  0.00  0.00    +0.006 C 
ATOM     28  C   UNL     1      60.260 165.502  34.716  0.00  0.00    +0.001 C 
ATOM     29  C   UNL     1      60.049 166.752  34.211  0.00  0.00    +0.000 C 
ATOM     30  C   UNL     1      60.200 167.811  35.057  0.00  0.00    +0.001 C 
ATOM     31  C   UNL     1      60.561 167.588  36.398  0.00  0.00    +0.006 C 
ENDBRANCH  24  26
BRANCH  24  32
ATOM     32  S   UNL     1      62.276 167.221  39.048  0.00  0.00    +0.037 S 
ATOM     33  O   UNL     1      63.012 166.775  40.252  0.00  0.00    -0.159 OA
ATOM     34  O   UNL     1      61.612 168.425  39.535  0.00  0.00    -0.159 OA
BRANCH  32  35
ATOM     35  C   UNL     1      63.483 167.826  38.061  0.00  0.00    +0.116 C 
ATOM     36  C   UNL     1      63.581 169.087  37.514  0.00  0.00    +0.019 C 
ATOM     37  C   UNL     1      64.604 169.454  36.718  0.00  0.00    +0.001 C 
ATOM     38  C   UNL     1      65.627 168.607  36.387  0.00  0.00    +0.000 C 
ATOM     39  C   UNL     1      65.575 167.337  36.908  0.00  0.00    +0.001 C 
ATOM     40  C   UNL     1      64.534 166.960  37.720  0.00  0.00    +0.019 C 
ENDBRANCH  32  35
ENDBRANCH  24  32
ENDBRANCH  10  24
TORSDOF 8
