REMARK  Name = =
REMARK  9 active torsions:
REMARK  status: ('A' for Active; 'I' for Inactive)
REMARK    1  A    between atoms: C_1  and  C_3
REMARK    2  A    between atoms: C_1  and  C_23
REMARK    3  A    between atoms: C_2  and  C_34
REMARK    4  A    between atoms: C_9  and  C_20
REMARK    5  A    between atoms: C_20  and  O_22
REMARK    6  A    between atoms: C_23  and  S_25
REMARK    7  A    between atoms: C_24  and  C_31
REMARK    8  A    between atoms: C_31  and  O_33
REMARK    9  A    between atoms: C_34  and  O_36
REMARK                            x       y       z     vdW  Elec       q    Type
REMARK                         _______ _______ _______ _____ _____    ______ ____
ROOT
ATOM      1  C   UNL     1      51.496 157.160  29.857  0.00  0.00    -0.010 C 
ATOM      2  C   UNL     1      51.031 156.048  30.485  0.00  0.00    +0.078 C 
ENDROOT
BRANCH   1   3
ATOM      3  C   UNL     1      52.513 156.950  28.788  0.00  0.00    +0.020 C 
ATOM      4  C   UNL     1      52.247 155.666  28.028  0.00  0.00    +0.004 C 
ATOM      5  C   UNL     1      53.032 155.510  26.756  0.00  0.00    +0.001 C 
ATOM      6  C   UNL     1      52.564 154.283  26.055  0.00  0.00    +0.004 C 
ATOM      7  C   UNL     1      53.506 153.612  25.141  0.00  0.00    +0.005 C 
ATOM      8  C   UNL     1      54.018 152.349  25.780  0.00  0.00    +0.033 C 
ATOM      9  C   UNL     1      52.896 151.429  26.058  0.00  0.00    +0.049 C 
ATOM     10  C   UNL     1      51.762 151.910  26.533  0.00  0.00    -0.024 C 
ATOM     11  C   UNL     1      51.662 153.374  26.769  0.00  0.00    +0.022 C 
ATOM     12  C   UNL     1      50.774 153.852  27.620  0.00  0.00    +0.004 C 
ATOM     13  C   UNL     1      50.793 155.356  27.772  0.00  0.00    +0.001 C 
ATOM     14  C   UNL     1      52.783 156.651  25.784  0.00  0.00    +0.000 C 
ATOM     15  C   UNL     1      52.292 157.884  26.446  0.00  0.00    +0.000 C 
ATOM     16  C   UNL     1      52.799 158.031  27.859  0.00  0.00    +0.004 C 
ATOM     17  C   UNL     1      54.337 158.160  27.779  0.00  0.00    +0.000 C 
ATOM     18  C   UNL     1      54.649 157.976  29.252  0.00  0.00    +0.000 C 
ATOM     19  C   UNL     1      53.833 156.709  29.540  0.00  0.00    +0.004 C 
BRANCH   9  20
ATOM     20  C   UNL     1      53.015 149.991  25.821  0.00  0.00    +0.334 C 
ATOM     21  O   UNL     1      53.938 149.586  25.062  0.00  0.00    -0.245 OA
BRANCH  20  22
ATOM     22  O   UNL     1      52.156 149.104  26.403  0.00  0.00    -0.477 OA
ATOM     23  H   UNL     1      51.473 149.413  26.965  0.00  0.00    +0.295 HD
ENDBRANCH  20  22
ENDBRANCH   9  20
ENDBRANCH   1   3
BRANCH   1  24
ATOM     24  C   UNL     1      50.826 158.380  30.260  0.00  0.00    +0.030 C 
ATOM     25  C   UNL     1      51.175 159.583  30.367  0.00  0.00    +0.088 C 
BRANCH  24  26
ATOM     26  S   UNL     1      48.946 158.077  30.351  0.00  0.00    -0.108 S 
ATOM     27  N   UNL     1      48.497 158.745  31.815  0.00  0.00    -0.236 NA
ATOM     28  C   UNL     1      47.544 159.819  31.759  0.00  0.00    +0.195 C 
ATOM     29  O   UNL     1      47.077 160.230  30.676  0.00  0.00    -0.291 OA
ATOM     30  C   UNL     1      47.079 160.485  33.011  0.00  0.00    +0.053 C 
ATOM     31  S   UNL     1      48.548 159.476  29.353  0.00  0.00    -0.038 S 
ATOM     32  H   UNL     1      48.489 156.820  30.107  0.00  0.00    +0.114 HD
ATOM     33  H   UNL     1      49.340 159.101  32.266  0.00  0.00    +0.137 HD
ATOM     34  H   UNL     1      48.044 159.134  28.137  0.00  0.00    +0.132 HD
ENDBRANCH  24  26
BRANCH  25  35
ATOM     35  C   UNL     1      52.219 160.530  30.414  0.00  0.00    +0.339 C 
ATOM     36  O   UNL     1      51.921 161.807  30.102  0.00  0.00    -0.245 OA
BRANCH  35  37
ATOM     37  O   UNL     1      53.520 160.381  30.741  0.00  0.00    -0.477 OA
ATOM     38  H   UNL     1      53.850 159.537  30.978  0.00  0.00    +0.295 HD
ENDBRANCH  35  37
ENDBRANCH  25  35
ENDBRANCH   1  24
BRANCH   2  39
ATOM     39  C   UNL     1      51.395 154.679  30.400  0.00  0.00    +0.338 C 
ATOM     40  O   UNL     1      52.333 154.093  29.835  0.00  0.00    -0.245 OA
BRANCH  39  41
ATOM     41  O   UNL     1      50.548 153.715  31.083  0.00  0.00    -0.477 OA
ATOM     42  H   UNL     1      49.795 154.007  31.558  0.00  0.00    +0.295 HD
ENDBRANCH  39  41
ENDBRANCH   2  39
TORSDOF 9
