MODEL 1
REMARK VINA RESULT:    -7.384      0.000      0.000
REMARK INTER + INTRA:         -12.354
REMARK INTER:                 -11.054
REMARK INTRA:                  -1.301
REMARK UNBOUND:                -1.301
REMARK  Name = =
REMARK  10 active torsions:
REMARK  status: ('A' for Active; 'I' for Inactive)
REMARK    1  A    between atoms: C_2  and  C_30
REMARK    2  A    between atoms: C_17  and  C_18
REMARK    3  A    between atoms: C_18  and  O_20
REMARK    4  A    between atoms: O_20  and  O_21
REMARK    5  A    between atoms: O_21  and  P_22
REMARK    6  A    between atoms: P_22  and  O_24
REMARK    7  A    between atoms: P_22  and  O_25
REMARK    8  A    between atoms: O_25  and  P_26
REMARK    9  A    between atoms: P_26  and  O_28
REMARK   10  A    between atoms: P_26  and  O_29
REMARK                            x       y       z     vdW  Elec       q    Type
REMARK                         _______ _______ _______ _____ _____    ______ ____
ROOT
ATOM      1  N   UNL     1     -12.710   0.554  27.854  0.00  0.00    -0.256 N 
ATOM      2  C   UNL     1     -12.958   1.604  28.772  0.00  0.00    +0.189 C 
ATOM      3  C   UNL     1     -13.402   2.455  27.640  0.00  0.00    +0.129 C 
ATOM      4  C   UNL     1     -12.737   1.463  26.782  0.00  0.00    +0.231 C 
ATOM      5  O   UNL     1     -12.335   1.390  25.594  0.00  0.00    -0.275 OA
ATOM      6  S   UNL     1     -14.299   1.091  29.902  0.00  0.00    -0.104 S 
ATOM      7  C   UNL     1     -13.849  -0.569  30.468  0.00  0.00    +0.084 C 
ATOM      8  C   UNL     1     -12.555  -0.914  29.790  0.00  0.00    -0.007 C 
ATOM      9  C   UNL     1     -12.544  -0.822  28.303  0.00  0.00    +0.126 C 
ATOM     10  C   UNL     1     -13.462  -1.746  27.638  0.00  0.00    +0.057 C 
ATOM     11  C   UNL     1     -13.064  -2.921  27.215  0.00  0.00    +0.009 C 
ATOM     12  C   UNL     1     -11.697  -3.355  27.387  0.00  0.00    -0.002 C 
ATOM     13  C   UNL     1     -10.809  -2.594  27.958  0.00  0.00    -0.005 C 
ATOM     14  C   UNL     1     -11.148  -1.256  28.456  0.00  0.00    +0.133 C 
ATOM     15 CL   UNL     1      -9.929  -0.011  27.998  0.00  0.00    -0.105 Cl
ATOM     16 CL   UNL     1     -15.172  -1.273  27.388  0.00  0.00    -0.085 Cl
ATOM     17  C   UNL     1     -11.305  -1.302  29.946  0.00  0.00    +0.070 C 
ENDROOT
BRANCH  17  18
ATOM     18  C   UNL     1     -10.379  -1.657  30.998  0.00  0.00    +0.372 C 
ATOM     19  O   UNL     1     -10.709  -1.404  32.182  0.00  0.00    -0.242 OA
BRANCH  18  20
ATOM     20  O   UNL     1      -9.158  -2.255  30.787  0.00  0.00    -0.282 OA
BRANCH  20  21
ATOM     21  O   UNL     1      -8.009  -1.560  30.699  0.00  0.00    -0.070 OA
BRANCH  21  22
ATOM     22  P   UNL     1      -6.951  -1.877  31.941  0.00  0.00    +0.519 P 
ATOM     23  O   UNL     1      -5.994  -0.746  32.226  0.00  0.00    -0.224 OA
BRANCH  22  24
ATOM     24  O   UNL     1      -7.858  -2.262  33.329  0.00  0.00    -0.300 OA
ATOM     25  H   UNL     1      -8.396  -1.496  33.586  0.00  0.00    +0.222 HD
ENDBRANCH  22  24
BRANCH  22  26
ATOM     26  O   UNL     1      -6.081  -3.293  31.530  0.00  0.00    -0.184 OA
BRANCH  26  27
ATOM     27  P   UNL     1      -4.802  -3.460  32.605  0.00  0.00    +0.481 P 
ATOM     28  O   UNL     1      -4.374  -4.900  32.770  0.00  0.00    -0.227 OA
BRANCH  27  29
ATOM     29  O   UNL     1      -3.449  -2.577  32.121  0.00  0.00    -0.302 OA
ATOM     30  H   UNL     1      -3.411  -1.745  32.618  0.00  0.00    +0.222 HD
ENDBRANCH  27  29
BRANCH  27  31
ATOM     31  O   UNL     1      -5.315  -2.912  34.120  0.00  0.00    -0.302 OA
ATOM     32  H   UNL     1      -4.553  -2.851  34.717  0.00  0.00    +0.222 HD
ENDBRANCH  27  31
ENDBRANCH  26  27
ENDBRANCH  22  26
ENDBRANCH  21  22
ENDBRANCH  20  21
ENDBRANCH  18  20
ENDBRANCH  17  18
BRANCH   2  33
ATOM     33  C   UNL     1     -11.793   2.103  29.500  0.00  0.00    +0.101 C 
ATOM     34  N   UNL     1     -10.862   2.482  30.069  0.00  0.00    -0.193 NA
ENDBRANCH   2  33
TORSDOF 10
ENDMDL
