MODEL 1
REMARK VINA RESULT:    -8.926      0.000      0.000
REMARK INTER + INTRA:         -14.463
REMARK INTER:                 -12.840
REMARK INTRA:                  -1.623
REMARK UNBOUND:                -1.623
REMARK  Name = =
REMARK  9 active torsions:
REMARK  status: ('A' for Active; 'I' for Inactive)
REMARK    1  A    between atoms: N_1  and  C_23
REMARK    2  A    between atoms: C_10  and  P_11
REMARK    3  A    between atoms: P_11  and  O_21
REMARK    4  A    between atoms: C_22  and  O_31
REMARK    5  A    between atoms: O_31  and  P_33
REMARK    6  A    between atoms: P_33  and  O_35
REMARK    7  A    between atoms: O_35  and  P_36
REMARK    8  A    between atoms: P_36  and  O_38
REMARK    9  A    between atoms: P_36  and  O_39
REMARK                            x       y       z     vdW  Elec       q    Type
REMARK                         _______ _______ _______ _____ _____    ______ ____
ROOT
ATOM      1  N   UNL     1       0.360  -4.568  29.009  0.00  0.00    -0.290 N 
ATOM      2  C   UNL     1       1.596  -4.503  29.808  0.00  0.00    +0.096 C 
ATOM      3  C   UNL     1       1.565  -5.555  30.894  0.00  0.00    +0.048 C 
ATOM      4  C   UNL     1       0.377  -6.421  30.806  0.00  0.00    -0.022 C 
ATOM      5  C   UNL     1      -0.385  -6.628  29.678  0.00  0.00    +0.004 C 
ATOM      6  C   UNL     1      -1.481  -7.441  29.651  0.00  0.00    -0.002 C 
ATOM      7  C   UNL     1      -1.867  -8.103  30.801  0.00  0.00    -0.000 C 
ATOM      8  C   UNL     1      -1.117  -7.909  31.945  0.00  0.00    -0.000 C 
ATOM      9  C   UNL     1      -0.008  -7.084  31.965  0.00  0.00    -0.004 C 
ATOM     10  C   UNL     1       0.085  -5.878  28.441  0.00  0.00    +0.205 C 
ENDROOT
BRANCH  10  11
ATOM     11  P   UNL     1       1.314  -6.677  27.528  0.00  0.00    +0.333 P 
ATOM     12  O   UNL     1       1.231  -7.855  28.263  0.00  0.00    -0.137 OA
ATOM     13  O   UNL     1       2.909  -6.713  28.138  0.00  0.00    -0.290 OA
ATOM     14  C   UNL     1       3.826  -6.919  27.185  0.00  0.00    +0.157 C 
ATOM     15  C   UNL     1       3.425  -6.742  25.767  0.00  0.00    +0.173 C 
ATOM     16  O   UNL     1       4.562  -6.501  25.033  0.00  0.00    -0.351 OA
ATOM     17  C   UNL     1       5.583  -6.151  25.868  0.00  0.00    +0.145 C 
ATOM     18  C   UNL     1       5.037  -5.980  27.259  0.00  0.00    +0.065 C 
ATOM     19  C   UNL     1       2.553  -5.484  25.642  0.00  0.00    +0.184 C 
ATOM     20  O   UNL     1       1.819  -5.413  26.805  0.00  0.00    -0.287 OA
BRANCH  11  21
ATOM     21  O   UNL     1       0.990  -7.504  26.166  0.00  0.00    -0.319 OA
ATOM     22  H   UNL     1       0.612  -8.367  26.394  0.00  0.00    +0.220 HD
ENDBRANCH  11  21
ENDBRANCH  10  11
BRANCH   1  24
ATOM     23  C   UNL     1      -0.155  -2.433  27.982  0.00  0.00    +0.164 C 
ATOM     24  C   UNL     1      -0.466  -3.432  28.863  0.00  0.00    +0.121 C 
ATOM     25  C   UNL     1      -1.630  -3.286  29.610  0.00  0.00    +0.193 C 
ATOM     26  C   UNL     1      -2.445  -2.178  29.469  0.00  0.00    +0.178 C 
ATOM     27  C   UNL     1      -2.130  -1.176  28.582  0.00  0.00    +0.043 C 
ATOM     28  C   UNL     1      -0.978  -1.307  27.836  0.00  0.00    +0.042 C 
ATOM     29  O   UNL     1      -3.522  -2.306  30.332  0.00  0.00    -0.435 OA
ATOM     30  C   UNL     1      -3.262  -3.395  31.230  0.00  0.00    +0.429 C 
ATOM     31  O   UNL     1      -2.221  -4.076  30.556  0.00  0.00    -0.433 OA
BRANCH  23  32
ATOM     32  O   UNL     1       0.970  -2.449  27.180  0.00  0.00    -0.413 OA
BRANCH  32  34
ATOM     33  S   UNL     1       3.808  -2.239  27.164  0.00  0.00    +0.053 S 
ATOM     34  P   UNL     1       2.314  -1.423  27.406  0.00  0.00    +0.462 P 
ATOM     35  O   UNL     1       2.252  -0.901  28.841  0.00  0.00    -0.232 OA
BRANCH  34  36
ATOM     36  O   UNL     1       2.208  -0.087  26.363  0.00  0.00    -0.190 OA
BRANCH  36  37
ATOM     37  P   UNL     1       2.253  -0.547  24.746  0.00  0.00    +0.481 P 
ATOM     38  O   UNL     1       3.669  -0.670  24.225  0.00  0.00    -0.227 OA
BRANCH  37  39
ATOM     39  O   UNL     1       1.442  -2.029  24.554  0.00  0.00    -0.302 OA
ATOM     40  H   UNL     1       1.902  -2.566  23.891  0.00  0.00    +0.222 HD
ENDBRANCH  37  39
BRANCH  37  41
ATOM     41  O   UNL     1       1.412   0.619  23.847  0.00  0.00    -0.302 OA
ATOM     42  H   UNL     1       1.293   1.418  24.384  0.00  0.00    +0.222 HD
ENDBRANCH  37  41
ENDBRANCH  36  37
ENDBRANCH  34  36
ENDBRANCH  32  34
ENDBRANCH  23  32
ENDBRANCH   1  24
TORSDOF 9
ENDMDL
