REMARK  Name = =
REMARK  9 active torsions:
REMARK  status: ('A' for Active; 'I' for Inactive)
REMARK    1  A    between atoms: N_1  and  C_23
REMARK    2  A    between atoms: C_10  and  P_11
REMARK    3  A    between atoms: P_11  and  O_21
REMARK    4  A    between atoms: C_22  and  O_31
REMARK    5  A    between atoms: O_31  and  P_33
REMARK    6  A    between atoms: P_33  and  O_35
REMARK    7  A    between atoms: O_35  and  P_36
REMARK    8  A    between atoms: P_36  and  O_38
REMARK    9  A    between atoms: P_36  and  O_39
REMARK                            x       y       z     vdW  Elec       q    Type
REMARK                         _______ _______ _______ _____ _____    ______ ____
ROOT
ATOM      1  N   UNL     1       1.010  -4.107  28.239  0.00  0.00    -0.290 N 
ATOM      2  C   UNL     1       2.085  -3.249  28.766  0.00  0.00    +0.096 C 
ATOM      3  C   UNL     1       3.399  -3.604  28.106  0.00  0.00    +0.048 C 
ATOM      4  C   UNL     1       3.245  -4.624  27.056  0.00  0.00    -0.022 C 
ATOM      5  C   UNL     1       2.080  -4.914  26.381  0.00  0.00    +0.004 C 
ATOM      6  C   UNL     1       1.990  -5.874  25.415  0.00  0.00    -0.002 C 
ATOM      7  C   UNL     1       3.112  -6.607  25.076  0.00  0.00    -0.000 C 
ATOM      8  C   UNL     1       4.292  -6.333  25.741  0.00  0.00    -0.000 C 
ATOM      9  C   UNL     1       4.375  -5.359  26.719  0.00  0.00    -0.004 C 
ATOM     10  C   UNL     1       0.878  -4.077  26.792  0.00  0.00    +0.205 C 
ENDROOT
BRANCH  10  11
ATOM     11  P   UNL     1       0.742  -2.555  25.988  0.00  0.00    +0.333 P 
ATOM     12  O   UNL     1      -0.402  -2.179  26.684  0.00  0.00    -0.137 OA
ATOM     13  O   UNL     1      -0.328  -2.409  24.665  0.00  0.00    -0.290 OA
ATOM     14  C   UNL     1      -0.019  -1.389  23.855  0.00  0.00    +0.157 C 
ATOM     15  C   UNL     1       1.324  -0.770  23.979  0.00  0.00    +0.173 C 
ATOM     16  O   UNL     1       1.610  -0.140  22.791  0.00  0.00    -0.351 OA
ATOM     17  C   UNL     1       0.767  -0.591  21.817  0.00  0.00    +0.145 C 
ATOM     18  C   UNL     1      -0.036  -1.740  22.362  0.00  0.00    +0.065 C 
ATOM     19  C   UNL     1       2.376  -1.875  24.149  0.00  0.00    +0.184 C 
ATOM     20  O   UNL     1       1.768  -2.869  24.882  0.00  0.00    -0.287 OA
BRANCH  11  21
ATOM     21  O   UNL     1       1.503  -1.218  26.516  0.00  0.00    -0.319 OA
ATOM     22  H   UNL     1       1.005  -0.832  27.253  0.00  0.00    +0.220 HD
ENDBRANCH  11  21
ENDBRANCH  10  11
BRANCH   1  24
ATOM     23  C   UNL     1      -0.738  -4.333  29.904  0.00  0.00    +0.164 C 
ATOM     24  C   UNL     1       0.223  -4.894  29.109  0.00  0.00    +0.121 C 
ATOM     25  C   UNL     1       0.394  -6.272  29.188  0.00  0.00    +0.193 C 
ATOM     26  C   UNL     1      -0.376  -7.048  30.034  0.00  0.00    +0.178 C 
ATOM     27  C   UNL     1      -1.341  -6.481  30.832  0.00  0.00    +0.043 C 
ATOM     28  C   UNL     1      -1.521  -5.116  30.764  0.00  0.00    +0.042 C 
ATOM     29  O   UNL     1       0.014  -8.371  29.901  0.00  0.00    -0.435 OA
ATOM     30  C   UNL     1       1.232  -8.416  29.143  0.00  0.00    +0.429 C 
ATOM     31  O   UNL     1       1.242  -7.132  28.549  0.00  0.00    -0.433 OA
BRANCH  23  32
ATOM     32  O   UNL     1      -1.012  -2.979  29.926  0.00  0.00    -0.413 OA
BRANCH  32  34
ATOM     33  S   UNL     1      -3.699  -3.239  29.025  0.00  0.00    +0.053 S 
ATOM     34  P   UNL     1      -2.588  -2.328  29.971  0.00  0.00    +0.462 P 
ATOM     35  O   UNL     1      -2.508  -0.905  29.422  0.00  0.00    -0.232 OA
BRANCH  34  36
ATOM     36  O   UNL     1      -3.134  -2.236  31.576  0.00  0.00    -0.190 OA
BRANCH  36  37
ATOM     37  P   UNL     1      -4.804  -2.059  31.663  0.00  0.00    +0.481 P 
ATOM     38  O   UNL     1      -5.306  -0.930  30.788  0.00  0.00    -0.227 OA
BRANCH  37  39
ATOM     39  O   UNL     1      -5.555  -3.514  31.207  0.00  0.00    -0.302 OA
ATOM     40  H   UNL     1      -5.231  -4.235  31.769  0.00  0.00    +0.222 HD
ENDBRANCH  37  39
BRANCH  37  41
ATOM     41  O   UNL     1      -5.214  -1.754  33.280  0.00  0.00    -0.302 OA
ATOM     42  H   UNL     1      -4.798  -0.927  33.569  0.00  0.00    +0.222 HD
ENDBRANCH  37  41
ENDBRANCH  36  37
ENDBRANCH  34  36
ENDBRANCH  32  34
ENDBRANCH  23  32
ENDBRANCH   1  24
TORSDOF 9
