MODEL 1
REMARK VINA RESULT:   -12.436      0.000      0.000
REMARK INTER + INTRA:         -18.856
REMARK INTER:                 -19.343
REMARK INTRA:                   0.487
REMARK UNBOUND:                 0.487
REMARK  Name = =
REMARK  10 active torsions:
REMARK  status: ('A' for Active; 'I' for Inactive)
REMARK    1  A    between atoms: C_1  and  C_16
REMARK    2  A    between atoms: C_11  and  N_34
REMARK    3  A    between atoms: C_15  and  O_21
REMARK    4  A    between atoms: O_21  and  C_24
REMARK    5  A    between atoms: S_22  and  C_24
REMARK    6  A    between atoms: S_22  and  C_25
REMARK    7  A    between atoms: C_25  and  C_27
REMARK    8  A    between atoms: N_34  and  O_38
REMARK    9  A    between atoms: O_38  and  C_39
REMARK   10  A    between atoms: C_39  and  O_41
REMARK                            x       y       z     vdW  Elec       q    Type
REMARK                         _______ _______ _______ _____ _____    ______ ____
ROOT
ATOM      1  C   UNL     1     -12.945 -44.773  30.218  0.00  0.00    +0.020 C 
ATOM      2  C   UNL     1     -13.392 -44.421  28.969  0.00  0.00    -0.003 C 
ATOM      3  C   UNL     1     -14.532 -43.532  28.763  0.00  0.00    -0.003 C 
ATOM      4  C   UNL     1     -14.829 -43.123  27.487  0.00  0.00    -0.005 C 
ATOM      5  C   UNL     1     -13.932 -43.358  26.327  0.00  0.00    +0.032 C 
ATOM      6  C   UNL     1     -13.114 -44.570  26.484  0.00  0.00    +0.031 C 
ATOM      7  C   UNL     1     -12.648 -44.875  27.862  0.00  0.00    -0.022 C 
ATOM      8  C   UNL     1     -11.516 -45.649  28.025  0.00  0.00    -0.004 C 
ATOM      9  C   UNL     1     -11.123 -45.975  29.291  0.00  0.00    -0.000 C 
ATOM     10  C   UNL     1     -11.782 -45.577  30.407  0.00  0.00    +0.002 C 
ATOM     11  C   UNL     1     -15.982 -42.430  27.216  0.00  0.00    +0.090 C 
ATOM     12  C   UNL     1     -16.848 -42.151  28.257  0.00  0.00    +0.018 C 
ATOM     13  C   UNL     1     -16.546 -42.564  29.530  0.00  0.00    +0.001 C 
ATOM     14  C   UNL     1     -15.371 -43.273  29.817  0.00  0.00    -0.000 C 
ENDROOT
BRANCH   1  16
ATOM     15  C   UNL     1     -13.156 -42.851  31.705  0.00  0.00    +0.157 C 
ATOM     16  C   UNL     1     -13.443 -44.172  31.449  0.00  0.00    +0.115 C 
ATOM     17  N   UNL     1     -14.247 -44.820  32.302  0.00  0.00    -0.241 NA
ATOM     18  C   UNL     1     -14.811 -44.305  33.398  0.00  0.00    +0.099 C 
ATOM     19  C   UNL     1     -14.532 -42.984  33.666  0.00  0.00    +0.024 C 
ATOM     20  C   UNL     1     -13.709 -42.263  32.822  0.00  0.00    +0.040 C 
BRANCH  15  21
ATOM     21  O   UNL     1     -12.344 -42.065  30.914  0.00  0.00    -0.461 OA
BRANCH  21  22
ATOM     22  C   UNL     1     -11.032 -41.829  31.052  0.00  0.00    +0.276 C 
BRANCH  22  23
ATOM     23  S   UNL     1     -10.177 -41.641  29.700  0.00  0.00    +0.003 S 
ATOM     24  O   UNL     1     -11.224 -42.056  28.686  0.00  0.00    -0.165 OA
ATOM     25  H   UNL     1      -9.657 -40.402  29.486  0.00  0.00    +0.124 HD
BRANCH  23  26
ATOM     26  C   UNL     1      -8.775 -42.650  29.698  0.00  0.00    +0.247 C 
ATOM     27  O   UNL     1      -7.905 -42.643  28.856  0.00  0.00    -0.280 OA
BRANCH  26  28
ATOM     28  C   UNL     1      -8.650 -43.615  30.856  0.00  0.00    +0.236 C 
ATOM     29  O   UNL     1      -8.082 -42.994  31.973  0.00  0.00    -0.444 OA
ATOM     30  C   UNL     1      -6.904 -43.493  32.524  0.00  0.00    +0.317 C 
ATOM     31  O   UNL     1      -6.075 -42.709  33.039  0.00  0.00    -0.250 OA
ATOM     32  C   UNL     1      -6.601 -44.953  32.517  0.00  0.00    +0.110 C 
ATOM     33  C   UNL     1      -7.533 -45.673  31.550  0.00  0.00    +0.016 C 
ATOM     34  C   UNL     1      -7.730 -44.716  30.393  0.00  0.00    +0.053 C 
ENDBRANCH  26  28
ENDBRANCH  23  26
ENDBRANCH  22  23
ENDBRANCH  21  22
ENDBRANCH  15  21
ENDBRANCH   1  16
BRANCH  11  35
ATOM     35  N   UNL     1     -16.311 -41.988  25.909  0.00  0.00    -0.079 N 
ATOM     36  C   UNL     1     -17.627 -42.125  25.425  0.00  0.00    +0.337 C 
ATOM     37  O   UNL     1     -18.517 -42.661  26.166  0.00  0.00    -0.249 OA
ATOM     38  N   UNL     1     -18.063 -41.708  24.149  0.00  0.00    -0.311 N 
ATOM     39  H   UNL     1     -17.428 -41.286  23.526  0.00  0.00    +0.147 HD
ATOM     40  H   UNL     1     -19.002 -41.839  23.883  0.00  0.00    +0.147 HD
BRANCH  35  41
ATOM     41  O   UNL     1     -15.349 -41.429  25.120  0.00  0.00    -0.305 OA
BRANCH  41  42
ATOM     42  C   UNL     1     -15.210 -41.679  23.777  0.00  0.00    +0.531 C 
ATOM     43  O   UNL     1     -15.325 -42.868  23.377  0.00  0.00    -0.201 OA
BRANCH  42  44
ATOM     44  O   UNL     1     -14.949 -40.717  22.804  0.00  0.00    -0.448 OA
ATOM     45  H   UNL     1     -14.064 -40.498  22.587  0.00  0.00    +0.299 HD
ENDBRANCH  42  44
ENDBRANCH  41  42
ENDBRANCH  35  41
ENDBRANCH  11  35
TORSDOF 10
ENDMDL
