REMARK  Name = =
REMARK  1 active torsions:
REMARK  status: ('A' for Active; 'I' for Inactive)
REMARK    1  A    between atoms: C_5  and  O_7
REMARK                            x       y       z     vdW  Elec       q    Type
REMARK                         _______ _______ _______ _____ _____    ______ ____
ROOT
ATOM      1  N   UNL     1      -3.692  -3.774  32.455  0.00  0.00    -0.206 N 
ATOM      2  C   UNL     1      -3.642  -5.186  32.568  0.00  0.00    +0.306 C 
ATOM      3  O   UNL     1      -4.212  -5.862  31.671  0.00  0.00    -0.253 OA
ATOM      4  N   UNL     1      -2.961  -5.809  33.675  0.00  0.00    -0.313 N 
ATOM      5  C   UNL     1      -4.352  -3.102  31.382  0.00  0.00    +0.405 C 
ATOM      6  O   UNL     1      -4.919  -3.779  30.490  0.00  0.00    -0.226 OA
ATOM      7  H   UNL     1      -3.251  -3.232  33.148  0.00  0.00    +0.162 HD
ATOM      8  H   UNL     1      -2.525  -5.253  34.360  0.00  0.00    +0.146 HD
ATOM      9  H   UNL     1      -2.932  -6.791  33.746  0.00  0.00    +0.146 HD
ENDROOT
BRANCH   5  10
ATOM     10  O   UNL     1      -4.334  -1.720  31.378  0.00  0.00    -0.466 OA
ATOM     11  H   UNL     1      -3.898  -1.255  32.065  0.00  0.00    +0.297 HD
ENDBRANCH   5  10
TORSDOF 1
