REMARK  Name = =
REMARK  2 active torsions:
REMARK  status: ('A' for Active; 'I' for Inactive)
REMARK    1  A    between atoms: N_1  and  N_7
REMARK    2  A    between atoms: C_5  and  O_13
REMARK                            x       y       z     vdW  Elec       q    Type
REMARK                         _______ _______ _______ _____ _____    ______ ____
ROOT
ATOM      1  N   UNL     1      -4.552  -4.004  31.661  0.00  0.00    -0.117 N 
ATOM      2  C   UNL     1      -4.219  -4.950  32.646  0.00  0.00    +0.323 C 
ATOM      3  O   UNL     1      -3.461  -5.889  32.358  0.00  0.00    -0.251 OA
ATOM      4  N   UNL     1      -4.750  -4.818  33.947  0.00  0.00    -0.312 N 
ATOM      5  C   UNL     1      -4.013  -4.156  30.337  0.00  0.00    +0.423 C 
ATOM      6  O   UNL     1      -3.254  -5.157  30.146  0.00  0.00    -0.225 OA
ATOM      7  H   UNL     1      -5.350  -4.067  34.160  0.00  0.00    +0.147 HD
ATOM      8  H   UNL     1      -4.520  -5.477  34.642  0.00  0.00    +0.147 HD
ENDROOT
BRANCH   1   9
ATOM      9  N   UNL     1      -5.373  -2.923  31.842  0.00  0.00    -0.188 NA
ATOM     10  C   UNL     1      -6.740  -3.141  32.088  0.00  0.00    +0.098 C 
ATOM     11  C   UNL     1      -7.458  -1.896  32.488  0.00  0.00    +0.045 C 
ATOM     12  C   UNL     1      -6.914  -0.684  31.785  0.00  0.00    -0.028 C 
ATOM     13  C   UNL     1      -5.598  -0.607  31.684  0.00  0.00    -0.012 C 
ATOM     14  C   UNL     1      -4.788  -1.707  32.265  0.00  0.00    +0.118 C 
ENDBRANCH   1   9
BRANCH   5  15
ATOM     15  O   UNL     1      -4.287  -3.281  29.305  0.00  0.00    -0.465 OA
ATOM     16  H   UNL     1      -4.847  -2.544  29.452  0.00  0.00    +0.297 HD
ENDBRANCH   5  15
TORSDOF 2
