REMARK  Name = =
REMARK  4 active torsions:
REMARK  status: ('A' for Active; 'I' for Inactive)
REMARK    1  A    between atoms: N_1  and  N_7
REMARK    2  A    between atoms: C_5  and  O_15
REMARK    3  A    between atoms: C_9  and  C_13
REMARK    4  A    between atoms: C_13  and  O_14
REMARK                            x       y       z     vdW  Elec       q    Type
REMARK                         _______ _______ _______ _____ _____    ______ ____
ROOT
ATOM      1  N   UNL     1      -4.769  -3.985  31.695  0.00  0.00    -0.117 N 
ATOM      2  C   UNL     1      -4.429  -4.956  32.672  0.00  0.00    +0.323 C 
ATOM      3  O   UNL     1      -3.692  -5.923  32.359  0.00  0.00    -0.251 OA
ATOM      4  N   UNL     1      -4.872  -4.913  34.015  0.00  0.00    -0.312 N 
ATOM      5  C   UNL     1      -4.230  -4.189  30.373  0.00  0.00    +0.423 C 
ATOM      6  O   UNL     1      -4.504  -3.362  29.490  0.00  0.00    -0.225 OA
ATOM      7  H   UNL     1      -5.452  -4.178  34.319  0.00  0.00    +0.147 HD
ATOM      8  H   UNL     1      -4.600  -5.618  34.646  0.00  0.00    +0.147 HD
ENDROOT
BRANCH   1   9
ATOM      9  N   UNL     1      -5.545  -2.909  31.916  0.00  0.00    -0.188 NA
ATOM     10  C   UNL     1      -6.898  -3.072  32.301  0.00  0.00    +0.100 C 
ATOM     11  C   UNL     1      -7.724  -2.045  31.571  0.00  0.00    +0.069 C 
ATOM     12  C   UNL     1      -7.205  -0.701  31.904  0.00  0.00    -0.026 C 
ATOM     13  C   UNL     1      -5.939  -0.538  32.226  0.00  0.00    -0.012 C 
ATOM     14  C   UNL     1      -4.988  -1.676  32.270  0.00  0.00    +0.118 C 
BRANCH  11  15
ATOM     15  C   UNL     1      -9.183  -2.097  31.982  0.00  0.00    +0.143 C 
BRANCH  15  16
ATOM     16  O   UNL     1      -9.695  -3.371  31.865  0.00  0.00    -0.382 OA
ATOM     17  H   UNL     1     -10.627  -3.371  32.134  0.00  0.00    +0.210 HD
ENDBRANCH  15  16
ENDBRANCH  11  15
ENDBRANCH   1   9
BRANCH   5  18
ATOM     18  O   UNL     1      -3.422  -5.272  30.060  0.00  0.00    -0.465 OA
ATOM     19  H   UNL     1      -3.208  -5.903  30.719  0.00  0.00    +0.297 HD
ENDBRANCH   5  18
TORSDOF 4
