REMARK  Name = =
REMARK  5 active torsions:
REMARK  status: ('A' for Active; 'I' for Inactive)
REMARK    1  A    between atoms: N_1  and  N_7
REMARK    2  A    between atoms: C_3  and  C_14
REMARK    3  A    between atoms: C_11  and  O_13
REMARK    4  A    between atoms: C_14  and  N_15
REMARK    5  A    between atoms: C_14  and  O_18
REMARK                            x       y       z     vdW  Elec       q    Type
REMARK                         _______ _______ _______ _____ _____    ______ ____
ROOT
ATOM      1  N   UNL     1      -6.597  -2.261  32.309  0.00  0.00    -0.192 NA
ATOM      2  C   UNL     1      -7.636  -2.709  33.212  0.00  0.00    +0.097 C 
ATOM      3  C   UNL     1      -9.014  -2.554  32.610  0.00  0.00    +0.061 C 
ATOM      4  C   UNL     1      -9.106  -1.186  32.000  0.00  0.00    +0.007 C 
ATOM      5  C   UNL     1      -8.112  -0.847  31.180  0.00  0.00    +0.019 C 
ATOM      6  C   UNL     1      -7.061  -1.927  31.020  0.00  0.00    +0.093 C 
ENDROOT
BRANCH   1   7
ATOM      7  N   UNL     1      -5.527  -3.140  32.283  0.00  0.00    -0.118 N 
ATOM      8  C   UNL     1      -4.797  -3.346  33.503  0.00  0.00    +0.323 C 
ATOM      9  O   UNL     1      -3.833  -4.141  33.480  0.00  0.00    -0.251 OA
ATOM     10  N   UNL     1      -5.162  -2.659  34.702  0.00  0.00    -0.312 N 
ATOM     11  C   UNL     1      -5.102  -3.845  31.129  0.00  0.00    +0.423 C 
ATOM     12  O   UNL     1      -5.625  -3.761  30.011  0.00  0.00    -0.225 OA
ATOM     13  H   UNL     1      -5.925  -2.037  34.700  0.00  0.00    +0.147 HD
ATOM     14  H   UNL     1      -4.651  -2.808  35.530  0.00  0.00    +0.147 HD
BRANCH  11  15
ATOM     15  O   UNL     1      -4.002  -4.715  31.232  0.00  0.00    -0.465 OA
ATOM     16  H   UNL     1      -3.564  -4.821  32.053  0.00  0.00    +0.297 HD
ENDBRANCH  11  15
ENDBRANCH   1   7
BRANCH   3  17
ATOM     17  C   UNL     1     -10.089  -2.698  33.667  0.00  0.00    +0.173 C 
BRANCH  17  18
ATOM     18  N   UNL     1     -11.069  -3.696  33.310  0.00  0.00    -0.248 NA
ATOM     19  C   UNL     1     -10.863  -5.076  33.669  0.00  0.00    +0.092 C 
ATOM     20  C   UNL     1     -11.878  -4.244  34.402  0.00  0.00    +0.092 C 
ENDBRANCH  17  18
BRANCH  17  21
ATOM     21  O   UNL     1     -10.768  -1.494  33.838  0.00  0.00    -0.370 OA
ATOM     22  H   UNL     1     -10.137  -0.798  34.080  0.00  0.00    +0.212 HD
ENDBRANCH  17  21
ENDBRANCH   3  17
TORSDOF 5
