REMARK  Name = =
REMARK  6 active torsions:
REMARK  status: ('A' for Active; 'I' for Inactive)
REMARK    1  A    between atoms: N_1  and  N_7
REMARK    2  A    between atoms: C_3  and  C_14
REMARK    3  A    between atoms: C_11  and  O_13
REMARK    4  A    between atoms: C_14  and  C_15
REMARK    5  A    between atoms: C_14  and  N_20
REMARK    6  A    between atoms: C_14  and  O_23
REMARK                            x       y       z     vdW  Elec       q    Type
REMARK                         _______ _______ _______ _____ _____    ______ ____
ROOT
ATOM      1  N   UNL     1      -4.331  -2.278  30.705  0.00  0.00    -0.187 NA
ATOM      2  C   UNL     1      -2.930  -2.473  30.916  0.00  0.00    +0.101 C 
ATOM      3  C   UNL     1      -2.426  -3.855  30.906  0.00  0.00    +0.078 C 
ATOM      4  C   UNL     1      -3.377  -4.810  31.589  0.00  0.00    -0.024 C 
ATOM      5  C   UNL     1      -4.655  -4.587  31.468  0.00  0.00    -0.012 C 
ATOM      6  C   UNL     1      -5.154  -3.435  30.685  0.00  0.00    +0.118 C 
ENDROOT
BRANCH   1   7
ATOM      7  N   UNL     1      -4.883  -1.268  31.530  0.00  0.00    -0.117 N 
ATOM      8  C   UNL     1      -4.677   0.076  31.148  0.00  0.00    +0.323 C 
ATOM      9  O   UNL     1      -5.165   0.985  31.889  0.00  0.00    -0.251 OA
ATOM     10  N   UNL     1      -3.972   0.491  30.007  0.00  0.00    -0.312 N 
ATOM     11  C   UNL     1      -5.619  -1.560  32.698  0.00  0.00    +0.423 C 
ATOM     12  O   UNL     1      -5.784  -2.763  33.040  0.00  0.00    -0.225 OA
ATOM     13  H   UNL     1      -3.576  -0.178  29.403  0.00  0.00    +0.147 HD
ATOM     14  H   UNL     1      -3.874   1.451  29.811  0.00  0.00    +0.147 HD
BRANCH  11  15
ATOM     15  O   UNL     1      -6.166  -0.573  33.482  0.00  0.00    -0.465 OA
ATOM     16  H   UNL     1      -6.056   0.327  33.247  0.00  0.00    +0.297 HD
ENDBRANCH  11  15
ENDBRANCH   1   7
BRANCH   3  17
ATOM     17  C   UNL     1      -1.957  -4.464  29.620  0.00  0.00    +0.141 C 
BRANCH  17  18
ATOM     18  C   UNL     1      -1.464  -5.880  29.861  0.00  0.00    +0.040 C 
ATOM     19  C   UNL     1      -0.702  -6.006  31.176  0.00  0.00    +0.004 C 
ATOM     20  C   UNL     1      -0.247  -7.469  31.018  0.00  0.00    +0.000 C 
ATOM     21  C   UNL     1       0.430  -7.366  29.647  0.00  0.00    +0.000 C 
ATOM     22  C   UNL     1      -0.439  -6.344  28.894  0.00  0.00    +0.004 C 
ENDBRANCH  17  18
BRANCH  17  23
ATOM     23  N   UNL     1      -1.117  -3.689  28.840  0.00  0.00    -0.251 NA
ATOM     24  C   UNL     1      -1.189  -2.196  28.785  0.00  0.00    +0.092 C 
ATOM     25  C   UNL     1      -1.369  -3.050  27.606  0.00  0.00    +0.092 C 
ENDBRANCH  17  23
BRANCH  17  26
ATOM     26  O   UNL     1      -3.158  -4.681  28.864  0.00  0.00    -0.373 OA
ATOM     27  H   UNL     1      -3.773  -5.223  29.382  0.00  0.00    +0.212 HD
ENDBRANCH  17  26
ENDBRANCH   3  17
TORSDOF 6
