REMARK  Name = =
REMARK  8 active torsions:
REMARK  status: ('A' for Active; 'I' for Inactive)
REMARK    1  A    between atoms: N_1  and  N_7
REMARK    2  A    between atoms: C_3  and  C_14
REMARK    3  A    between atoms: C_11  and  O_13
REMARK    4  A    between atoms: C_14  and  C_15
REMARK    5  A    between atoms: C_14  and  N_20
REMARK    6  A    between atoms: C_14  and  O_26
REMARK    7  A    between atoms: C_21  and  O_23
REMARK    8  A    between atoms: O_23  and  N_24
REMARK                            x       y       z     vdW  Elec       q    Type
REMARK                         _______ _______ _______ _____ _____    ______ ____
ROOT
ATOM      1  N   UNL     1      -2.733  -2.753  30.926  0.00  0.00    -0.192 NA
ATOM      2  C   UNL     1      -2.235  -4.104  31.074  0.00  0.00    +0.096 C 
ATOM      3  C   UNL     1      -1.215  -4.360  30.020  0.00  0.00    +0.057 C 
ATOM      4  C   UNL     1      -1.913  -4.284  28.703  0.00  0.00    +0.007 C 
ATOM      5  C   UNL     1      -2.577  -3.122  28.525  0.00  0.00    +0.019 C 
ATOM      6  C   UNL     1      -2.482  -2.172  29.654  0.00  0.00    +0.093 C 
ENDROOT
BRANCH   1   7
ATOM      7  N   UNL     1      -4.024  -2.575  31.417  0.00  0.00    -0.118 N 
ATOM      8  C   UNL     1      -4.623  -3.621  32.144  0.00  0.00    +0.323 C 
ATOM      9  O   UNL     1      -5.787  -3.483  32.580  0.00  0.00    -0.251 OA
ATOM     10  N   UNL     1      -3.927  -4.812  32.385  0.00  0.00    -0.312 N 
ATOM     11  C   UNL     1      -4.754  -1.372  31.223  0.00  0.00    +0.423 C 
ATOM     12  O   UNL     1      -5.918  -1.234  31.661  0.00  0.00    -0.225 OA
ATOM     13  H   UNL     1      -3.011  -4.924  32.043  0.00  0.00    +0.147 HD
ATOM     14  H   UNL     1      -4.354  -5.537  32.896  0.00  0.00    +0.147 HD
BRANCH  11  15
ATOM     15  O   UNL     1      -4.175  -0.329  30.539  0.00  0.00    -0.465 OA
ATOM     16  H   UNL     1      -3.304  -0.415  30.204  0.00  0.00    +0.297 HD
ENDBRANCH  11  15
ENDBRANCH   1   7
BRANCH   3  17
ATOM     17  C   UNL     1      -0.378  -5.569  30.194  0.00  0.00    +0.139 C 
BRANCH  17  18
ATOM     18  C   UNL     1       0.169  -6.220  29.010  0.00  0.00    +0.039 C 
ATOM     19  C   UNL     1       0.105  -5.534  27.694  0.00  0.00    +0.004 C 
ATOM     20  C   UNL     1       1.099  -6.388  26.875  0.00  0.00    +0.000 C 
ATOM     21  C   UNL     1       2.279  -6.386  27.806  0.00  0.00    +0.000 C 
ATOM     22  C   UNL     1       1.641  -6.554  29.170  0.00  0.00    +0.004 C 
ENDBRANCH  17  18
BRANCH  17  23
ATOM     23  N   UNL     1      -1.242  -6.566  30.859  0.00  0.00    -0.225 NA
ATOM     24  C   UNL     1      -0.832  -7.923  30.973  0.00  0.00    +0.220 C 
ATOM     25  C   UNL     1      -1.912  -7.537  29.990  0.00  0.00    +0.125 C 
BRANCH  24  26
ATOM     26  O   UNL     1      -1.356  -8.586  32.132  0.00  0.00    -0.224 OA
BRANCH  26  27
ATOM     27  N   UNL     1      -1.260  -8.015  33.377  0.00  0.00    +0.103 NA
ATOM     28  O   UNL     1      -0.131  -7.591  33.744  0.00  0.00    -0.069 OA
ENDBRANCH  26  27
ENDBRANCH  24  26
ENDBRANCH  17  23
BRANCH  17  29
ATOM     29  O   UNL     1       0.627  -5.267  31.104  0.00  0.00    -0.373 OA
ATOM     30  H   UNL     1       0.240  -4.836  31.882  0.00  0.00    +0.212 HD
ENDBRANCH  17  29
ENDBRANCH   3  17
TORSDOF 8
