REMARK  Name = =
REMARK  12 active torsions:
REMARK  status: ('A' for Active; 'I' for Inactive)
REMARK    1  A    between atoms: N_1  and  N_7
REMARK    2  A    between atoms: C_3  and  C_14
REMARK    3  A    between atoms: C_6  and  N_27
REMARK    4  A    between atoms: C_11  and  O_13
REMARK    5  A    between atoms: C_14  and  C_15
REMARK    6  A    between atoms: C_14  and  N_20
REMARK    7  A    between atoms: C_14  and  O_26
REMARK    8  A    between atoms: C_21  and  O_23
REMARK    9  A    between atoms: O_23  and  N_24
REMARK   10  A    between atoms: N_27  and  C_28
REMARK   11  A    between atoms: C_28  and  C_29
REMARK   12  A    between atoms: C_29  and  O_30
REMARK                            x       y       z     vdW  Elec       q    Type
REMARK                         _______ _______ _______ _____ _____    ______ ____
ROOT
ATOM      1  N   UNL     1      -3.159  -5.099  30.927  0.00  0.00    -0.173 NA
ATOM      2  C   UNL     1      -1.906  -4.541  31.280  0.00  0.00    +0.103 C 
ATOM      3  C   UNL     1      -1.231  -3.800  30.115  0.00  0.00    +0.079 C 
ATOM      4  C   UNL     1      -2.147  -2.793  29.669  0.00  0.00    -0.023 C 
ATOM      5  C   UNL     1      -3.456  -2.974  29.773  0.00  0.00    +0.004 C 
ATOM      6  C   UNL     1      -4.111  -4.177  30.336  0.00  0.00    +0.171 C 
ENDROOT
BRANCH   1   7
ATOM      7  N   UNL     1      -3.749  -5.720  32.030  0.00  0.00    -0.116 N 
ATOM      8  C   UNL     1      -3.999  -5.128  33.287  0.00  0.00    +0.323 C 
ATOM      9  O   UNL     1      -3.723  -3.964  33.635  0.00  0.00    -0.251 OA
ATOM     10  N   UNL     1      -4.642  -5.923  34.307  0.00  0.00    -0.312 N 
ATOM     11  C   UNL     1      -4.137  -7.084  31.866  0.00  0.00    +0.423 C 
ATOM     12  O   UNL     1      -4.679  -7.741  32.800  0.00  0.00    -0.225 OA
ATOM     13  H   UNL     1      -4.895  -6.855  34.118  0.00  0.00    +0.147 HD
ATOM     14  H   UNL     1      -4.827  -5.533  35.192  0.00  0.00    +0.147 HD
BRANCH  11  15
ATOM     15  O   UNL     1      -3.937  -7.743  30.683  0.00  0.00    -0.465 OA
ATOM     16  H   UNL     1      -3.539  -7.299  29.961  0.00  0.00    +0.297 HD
ENDBRANCH  11  15
ENDBRANCH   1   7
BRANCH   3  17
ATOM     17  C   UNL     1      -0.569  -4.748  29.162  0.00  0.00    +0.143 C 
BRANCH  17  18
ATOM     18  C   UNL     1       0.415  -4.092  28.335  0.00  0.00    +0.040 C 
ATOM     19  C   UNL     1       1.041  -4.911  27.216  0.00  0.00    +0.004 C 
ATOM     20  C   UNL     1       1.837  -3.774  26.533  0.00  0.00    +0.000 C 
ATOM     21  C   UNL     1       0.903  -2.586  26.510  0.00  0.00    +0.000 C 
ATOM     22  C   UNL     1      -0.263  -3.067  27.373  0.00  0.00    +0.004 C 
ENDBRANCH  17  18
BRANCH  17  23
ATOM     23  N   UNL     1      -0.275  -5.885  29.905  0.00  0.00    -0.224 NA
ATOM     24  C   UNL     1       0.741  -6.118  30.841  0.00  0.00    +0.220 C 
ATOM     25  C   UNL     1       0.315  -7.089  29.729  0.00  0.00    +0.125 C 
BRANCH  24  26
ATOM     26  O   UNL     1       1.921  -5.401  30.732  0.00  0.00    -0.224 OA
BRANCH  26  27
ATOM     27  N   UNL     1       2.280  -4.356  31.553  0.00  0.00    +0.103 NA
ATOM     28  O   UNL     1       3.150  -4.596  32.429  0.00  0.00    -0.069 OA
ENDBRANCH  26  27
ENDBRANCH  24  26
ENDBRANCH  17  23
BRANCH  17  29
ATOM     29  O   UNL     1      -1.638  -5.161  28.294  0.00  0.00    -0.373 OA
ATOM     30  H   UNL     1      -2.323  -5.608  28.815  0.00  0.00    +0.212 HD
ENDBRANCH  17  29
ENDBRANCH   3  17
BRANCH   6  31
ATOM     31  N   UNL     1      -5.125  -3.806  31.303  0.00  0.00    -0.196 NA
BRANCH  31  32
ATOM     32  C   UNL     1      -5.223  -2.388  31.401  0.00  0.00    +0.122 C 
BRANCH  32  33
ATOM     33  C   UNL     1      -5.965  -2.035  32.685  0.00  0.00    +0.156 C 
BRANCH  33  34
ATOM     34  O   UNL     1      -5.943  -0.671  32.829  0.00  0.00    -0.380 OA
ATOM     35  H   UNL     1      -6.411  -0.424  33.642  0.00  0.00    +0.211 HD
ENDBRANCH  33  34
ENDBRANCH  32  33
ENDBRANCH  31  32
ENDBRANCH   6  31
TORSDOF 12
