REMARK  Name = =
REMARK  14 active torsions:
REMARK  status: ('A' for Active; 'I' for Inactive)
REMARK    1  A    between atoms: N_1  and  N_18
REMARK    2  A    between atoms: C_2  and  C_7
REMARK    3  A    between atoms: C_3  and  C_25
REMARK    4  A    between atoms: C_6  and  N_38
REMARK    5  A    between atoms: C_11  and  O_17
REMARK    6  A    between atoms: C_22  and  O_24
REMARK    7  A    between atoms: C_25  and  C_26
REMARK    8  A    between atoms: C_25  and  N_31
REMARK    9  A    between atoms: C_25  and  O_37
REMARK   10  A    between atoms: C_32  and  O_34
REMARK   11  A    between atoms: O_34  and  N_35
REMARK   12  A    between atoms: N_38  and  C_39
REMARK   13  A    between atoms: C_39  and  C_40
REMARK   14  A    between atoms: C_40  and  O_41
REMARK                            x       y       z     vdW  Elec       q    Type
REMARK                         _______ _______ _______ _____ _____    ______ ____
ROOT
ATOM      1  N   UNL     1       3.942 -11.435  25.055  0.00  0.00    -0.174 NA
ATOM      2  C   UNL     1       3.001 -10.386  25.117  0.00  0.00    +0.086 C 
ATOM      3  C   UNL     1       3.576  -9.036  24.943  0.00  0.00    +0.077 C 
ATOM      4  C   UNL     1       5.116  -9.151  24.731  0.00  0.00    -0.023 C 
ATOM      5  C   UNL     1       5.838 -10.143  25.134  0.00  0.00    +0.004 C 
ATOM      6  C   UNL     1       5.117 -11.269  25.854  0.00  0.00    +0.171 C 
ENDROOT
BRANCH   2   7
ATOM      7  C   UNL     1       2.215 -10.507  26.461  0.00  0.00    +0.022 C 
ATOM      8  C   UNL     1       2.653  -9.541  27.499  0.00  0.00    +0.028 C 
ATOM      9  C   UNL     1       1.668  -8.550  27.983  0.00  0.00    -0.023 C 
ATOM     10  C   UNL     1       0.353  -8.909  28.084  0.00  0.00    +0.008 C 
ATOM     11  C   UNL     1      -0.641  -8.084  28.539  0.00  0.00    +0.129 C 
ATOM     12  C   UNL     1      -0.303  -6.807  28.921  0.00  0.00    +0.036 C 
ATOM     13  C   UNL     1       1.016  -6.412  28.830  0.00  0.00    +0.003 C 
ATOM     14  C   UNL     1       2.012  -7.264  28.366  0.00  0.00    -0.004 C 
ATOM     15  C   UNL     1       0.077 -10.310  27.632  0.00  0.00    +0.029 C 
ATOM     16  C   UNL     1       0.746 -10.334  26.236  0.00  0.00    +0.007 C 
BRANCH  11  17
ATOM     17  O   UNL     1      -1.948  -8.513  28.618  0.00  0.00    -0.506 OA
ATOM     18  H   UNL     1      -2.172  -9.384  28.356  0.00  0.00    +0.292 HD
ENDBRANCH  11  17
ENDBRANCH   2   7
BRANCH   1  19
ATOM     19  N   UNL     1       3.736 -12.589  24.414  0.00  0.00    -0.116 N 
ATOM     20  C   UNL     1       3.131 -13.697  25.095  0.00  0.00    +0.323 C 
ATOM     21  O   UNL     1       2.786 -13.613  26.280  0.00  0.00    -0.251 OA
ATOM     22  N   UNL     1       2.909 -14.928  24.433  0.00  0.00    -0.312 N 
ATOM     23  C   UNL     1       4.053 -12.881  23.042  0.00  0.00    +0.423 C 
ATOM     24  O   UNL     1       4.583 -11.999  22.341  0.00  0.00    -0.225 OA
ATOM     25  H   UNL     1       3.170 -15.034  23.490  0.00  0.00    +0.147 HD
ATOM     26  H   UNL     1       2.494 -15.679  24.916  0.00  0.00    +0.147 HD
BRANCH  23  27
ATOM     27  O   UNL     1       3.791 -14.117  22.449  0.00  0.00    -0.465 OA
ATOM     28  H   UNL     1       3.393 -14.802  22.950  0.00  0.00    +0.297 HD
ENDBRANCH  23  27
ENDBRANCH   1  19
BRANCH   3  29
ATOM     29  C   UNL     1       3.213  -8.192  23.781  0.00  0.00    +0.143 C 
BRANCH  29  30
ATOM     30  C   UNL     1       1.850  -8.210  23.211  0.00  0.00    +0.040 C 
ATOM     31  C   UNL     1       1.382  -9.401  22.462  0.00  0.00    +0.004 C 
ATOM     32  C   UNL     1       0.291  -8.852  21.520  0.00  0.00    +0.000 C 
ATOM     33  C   UNL     1       0.878  -7.566  21.065  0.00  0.00    +0.000 C 
ATOM     34  C   UNL     1       1.814  -7.108  22.123  0.00  0.00    +0.004 C 
ENDBRANCH  29  30
BRANCH  29  35
ATOM     35  N   UNL     1       3.361  -6.750  24.173  0.00  0.00    -0.224 NA
ATOM     36  C   UNL     1       2.495  -6.227  25.189  0.00  0.00    +0.220 C 
ATOM     37  C   UNL     1       3.989  -6.349  25.368  0.00  0.00    +0.125 C 
BRANCH  36  38
ATOM     38  O   UNL     1       2.031  -4.872  25.034  0.00  0.00    -0.224 OA
BRANCH  38  39
ATOM     39  N   UNL     1       1.392  -4.251  26.071  0.00  0.00    +0.103 NA
ATOM     40  O   UNL     1       1.224  -3.015  25.997  0.00  0.00    -0.069 OA
ENDBRANCH  38  39
ENDBRANCH  36  38
ENDBRANCH  29  35
BRANCH  29  41
ATOM     41  O   UNL     1       4.142  -8.337  22.766  0.00  0.00    -0.373 OA
ATOM     42  H   UNL     1       5.036  -8.325  23.142  0.00  0.00    +0.212 HD
ENDBRANCH  29  41
ENDBRANCH   3  29
BRANCH   6  43
ATOM     43  N   UNL     1       5.965 -12.426  25.898  0.00  0.00    -0.196 NA
BRANCH  43  44
ATOM     44  C   UNL     1       7.244 -11.989  26.453  0.00  0.00    +0.122 C 
BRANCH  44  45
ATOM     45  C   UNL     1       7.258 -12.162  27.960  0.00  0.00    +0.156 C 
BRANCH  45  46
ATOM     46  O   UNL     1       8.067 -11.219  28.580  0.00  0.00    -0.380 OA
ATOM     47  H   UNL     1       8.051 -11.360  29.540  0.00  0.00    +0.211 HD
ENDBRANCH  45  46
ENDBRANCH  44  45
ENDBRANCH  43  44
ENDBRANCH   6  43
TORSDOF 14
