REMARK  Name = =
REMARK  6 active torsions:
REMARK  status: ('A' for Active; 'I' for Inactive)
REMARK    1  A    between atoms: C_1  and  O_18
REMARK    2  A    between atoms: C_2  and  N_7
REMARK    3  A    between atoms: C_3  and  O_17
REMARK    4  A    between atoms: C_5  and  O_16
REMARK    5  A    between atoms: C_6  and  C_14
REMARK    6  A    between atoms: O_18  and  N_19
REMARK                            x       y       z     vdW  Elec       q    Type
REMARK                         _______ _______ _______ _____ _____    ______ ____
ROOT
ATOM      1  C   UNL     1       0.045  -7.251  30.220  0.00  0.00    +0.193 C 
ATOM      2  C   UNL     1      -1.275  -7.821  30.221  0.00  0.00    +0.127 C 
ATOM      3  C   UNL     1      -1.792  -8.471  29.165  0.00  0.00    +0.153 C 
ATOM      4  C   UNL     1      -1.020  -8.599  28.025  0.00  0.00    +0.075 C 
ATOM      5  C   UNL     1       0.243  -8.077  27.977  0.00  0.00    +0.143 C 
ATOM      6  C   UNL     1       0.785  -7.402  29.074  0.00  0.00    +0.114 C 
ENDROOT
BRANCH   2   7
ATOM      7  N   UNL     1      -2.022  -7.692  31.420  0.00  0.00    -0.228 N 
ATOM      8  C   UNL     1      -1.690  -8.517  32.595  0.00  0.00    +0.185 C 
ATOM      9  C   UNL     1      -2.931  -8.504  33.379  0.00  0.00    +0.250 C 
ATOM     10  O   UNL     1      -3.256  -9.336  34.246  0.00  0.00    -0.273 OA
ATOM     11  N   UNL     1      -3.686  -7.363  32.958  0.00  0.00    -0.238 N 
ATOM     12  C   UNL     1      -3.126  -6.865  31.753  0.00  0.00    +0.314 C 
ATOM     13  O   UNL     1      -3.501  -5.875  31.066  0.00  0.00    -0.252 OA
ATOM     14  H   UNL     1      -4.465  -6.986  33.427  0.00  0.00    +0.159 HD
ENDBRANCH   2   7
BRANCH   6  15
ATOM     15  C   UNL     1       2.143  -6.945  28.970  0.00  0.00    +0.240 C 
ATOM     16  O   UNL     1       2.688  -6.158  29.723  0.00  0.00    -0.283 OA
ENDBRANCH   6  15
BRANCH   5  17
ATOM     17  O   UNL     1       1.039  -8.194  26.840  0.00  0.00    -0.505 OA
ATOM     18  H   UNL     1       0.712  -8.639  26.083  0.00  0.00    +0.292 HD
ENDBRANCH   5  17
BRANCH   3  19
ATOM     19  O   UNL     1      -3.095  -9.024  29.183  0.00  0.00    -0.504 OA
ATOM     20  H   UNL     1      -3.628  -8.944  29.950  0.00  0.00    +0.292 HD
ENDBRANCH   3  19
BRANCH   1  21
ATOM     21  O   UNL     1       0.414  -6.628  31.328  0.00  0.00    -0.379 OA
BRANCH  21  22
ATOM     22  N   UNL     1       1.349  -6.035  31.985  0.00  0.00    -0.123 N 
ATOM     23  C   UNL     1       2.302  -6.528  33.011  0.00  0.00    +0.137 C 
ATOM     24  C   UNL     1       2.428  -5.328  33.914  0.00  0.00    +0.035 C 
ATOM     25  C   UNL     1       2.535  -4.215  32.904  0.00  0.00    +0.090 C 
ATOM     26  C   UNL     1       1.646  -4.614  31.822  0.00  0.00    +0.257 C 
ATOM     27  O   UNL     1       1.229  -3.856  30.923  0.00  0.00    -0.272 OA
ENDBRANCH  21  22
ENDBRANCH   1  21
TORSDOF 6
