REMARK  Name = =
REMARK  7 active torsions:
REMARK  status: ('A' for Active; 'I' for Inactive)
REMARK    1  A    between atoms: C_1  and  C_2
REMARK    2  A    between atoms: C_1  and  C_8
REMARK    3  A    between atoms: C_1  and  O_11
REMARK    4  A    between atoms: C_8  and  C_9
REMARK    5  A    between atoms: O_11  and  O_12
REMARK    6  A    between atoms: O_12  and  C_13
REMARK    7  A    between atoms: C_13  and  O_15
REMARK                            x       y       z     vdW  Elec       q    Type
REMARK                         _______ _______ _______ _____ _____    ______ ____
ROOT
ATOM      1  C   UNL     1     -10.549 -42.489  29.961  0.00  0.00    +0.187 C 
ENDROOT
BRANCH   1   2
ATOM      2  C   UNL     1     -11.077 -43.641  29.189  0.00  0.00    +0.009 C 
ATOM      3  C   UNL     1     -10.482 -44.865  29.236  0.00  0.00    -0.002 C 
ATOM      4  C   UNL     1     -11.040 -45.903  28.513  0.00  0.00    -0.000 C 
ATOM      5  C   UNL     1     -12.171 -45.785  27.737  0.00  0.00    -0.000 C 
ATOM      6  C   UNL     1     -12.771 -44.538  27.692  0.00  0.00    -0.000 C 
ATOM      7  C   UNL     1     -12.232 -43.491  28.405  0.00  0.00    -0.002 C 
ENDBRANCH   1   2
BRANCH   1   8
ATOM      8  C   UNL     1     -10.948 -42.475  31.402  0.00  0.00    +0.039 C 
BRANCH   8   9
ATOM      9  C   UNL     1     -12.401 -42.238  31.627  0.00  0.00    +0.003 C 
ATOM     10  C   UNL     1     -13.037 -43.396  32.403  0.00  0.00    +0.000 C 
ENDBRANCH   8   9
ENDBRANCH   1   8
BRANCH   1  11
ATOM     11  O   UNL     1      -9.186 -42.423  29.750  0.00  0.00    -0.165 OA
BRANCH  11  12
ATOM     12  O   UNL     1      -8.510 -42.246  30.894  0.00  0.00    -0.258 OA
BRANCH  12  13
ATOM     13  C   UNL     1      -7.490 -43.165  31.172  0.00  0.00    +0.539 C 
ATOM     14  O   UNL     1      -6.668 -43.528  30.298  0.00  0.00    -0.201 OA
BRANCH  13  15
ATOM     15  O   UNL     1      -7.343 -43.718  32.443  0.00  0.00    -0.448 OA
ATOM     16  H   UNL     1      -6.655 -44.331  32.610  0.00  0.00    +0.299 HD
ENDBRANCH  13  15
ENDBRANCH  12  13
ENDBRANCH  11  12
ENDBRANCH   1  11
TORSDOF 7
