REMARK  Name = =
REMARK  8 active torsions:
REMARK  status: ('A' for Active; 'I' for Inactive)
REMARK    1  A    between atoms: C_1  and  C_2
REMARK    2  A    between atoms: C_1  and  C_8
REMARK    3  A    between atoms: C_1  and  O_16
REMARK    4  A    between atoms: C_8  and  C_11
REMARK    5  A    between atoms: C_8  and  C_14
REMARK    6  A    between atoms: O_16  and  O_17
REMARK    7  A    between atoms: O_17  and  C_18
REMARK    8  A    between atoms: C_18  and  O_20
REMARK                            x       y       z     vdW  Elec       q    Type
REMARK                         _______ _______ _______ _____ _____    ______ ____
ROOT
ATOM      1  C   UNL     1     -11.507 -43.016  31.660  0.00  0.00    +0.188 C 
ENDROOT
BRANCH   1   2
ATOM      2  C   UNL     1     -12.689 -42.596  32.383  0.00  0.00    +0.009 C 
ATOM      3  C   UNL     1     -13.959 -42.912  31.998  0.00  0.00    -0.002 C 
ATOM      4  C   UNL     1     -15.093 -42.510  32.685  0.00  0.00    -0.000 C 
ATOM      5  C   UNL     1     -14.970 -41.759  33.808  0.00  0.00    -0.000 C 
ATOM      6  C   UNL     1     -13.697 -41.419  34.227  0.00  0.00    -0.000 C 
ATOM      7  C   UNL     1     -12.573 -41.821  33.541  0.00  0.00    -0.002 C 
ENDBRANCH   1   2
BRANCH   1   8
ATOM      8  C   UNL     1     -11.629 -43.416  30.245  0.00  0.00    +0.053 C 
BRANCH   8  11
ATOM      9  C   UNL     1      -9.681 -46.018  31.333  0.00  0.00    +0.146 C 
ATOM     10  N   UNL     1     -10.707 -45.414  30.997  0.00  0.00    -0.207 NA
ATOM     11  C   UNL     1     -10.771 -44.622  29.837  0.00  0.00    +0.087 C 
ATOM     12  C   UNL     1      -9.353 -44.120  29.502  0.00  0.00    +0.076 C 
ATOM     13  S   UNL     1      -8.460 -45.641  30.078  0.00  0.00    -0.120 S 
ENDBRANCH   8  11
BRANCH   8  14
ATOM     14  C   UNL     1     -11.199 -42.313  29.287  0.00  0.00    +0.004 C 
ATOM     15  C   UNL     1     -12.085 -42.253  28.074  0.00  0.00    +0.000 C 
ENDBRANCH   8  14
ENDBRANCH   1   8
BRANCH   1  16
ATOM     16  O   UNL     1     -10.513 -41.994  31.700  0.00  0.00    -0.165 OA
BRANCH  16  17
ATOM     17  O   UNL     1      -9.965 -41.871  32.887  0.00  0.00    -0.258 OA
BRANCH  17  18
ATOM     18  C   UNL     1      -8.705 -42.304  33.226  0.00  0.00    +0.539 C 
ATOM     19  O   UNL     1      -7.881 -42.547  32.322  0.00  0.00    -0.201 OA
BRANCH  18  20
ATOM     20  O   UNL     1      -8.293 -42.490  34.546  0.00  0.00    -0.448 OA
ATOM     21  H   UNL     1      -7.423 -42.787  34.728  0.00  0.00    +0.299 HD
ENDBRANCH  18  20
ENDBRANCH  17  18
ENDBRANCH  16  17
ENDBRANCH   1  16
TORSDOF 8
