REMARK  Name = =
REMARK  10 active torsions:
REMARK  status: ('A' for Active; 'I' for Inactive)
REMARK    1  A    between atoms: C_1  and  C_4
REMARK    2  A    between atoms: C_1  and  C_14
REMARK    3  A    between atoms: C_1  and  C_16
REMARK    4  A    between atoms: O_9  and  O_11
REMARK    5  A    between atoms: C_16  and  C_17
REMARK    6  A    between atoms: C_16  and  O_23
REMARK    7  A    between atoms: O_23  and  O_24
REMARK    8  A    between atoms: O_24  and  C_25
REMARK    9  A    between atoms: C_25  and  O_27
REMARK   10  A    between atoms: O_27  and  N_28
REMARK                            x       y       z     vdW  Elec       q    Type
REMARK                         _______ _______ _______ _____ _____    ______ ____
ROOT
ATOM      1  C   UNL     1     -10.967 -43.348  29.246  0.00  0.00    +0.188 C 
ENDROOT
BRANCH   1   2
ATOM      2  C   UNL     1      -9.951 -42.561  28.458  0.00  0.00    +0.009 C 
ATOM      3  C   UNL     1      -8.908 -43.210  27.866  0.00  0.00    -0.002 C 
ATOM      4  C   UNL     1      -7.978 -42.486  27.144  0.00  0.00    -0.000 C 
ATOM      5  C   UNL     1      -8.084 -41.129  27.011  0.00  0.00    -0.000 C 
ATOM      6  C   UNL     1      -9.136 -40.467  27.607  0.00  0.00    -0.000 C 
ATOM      7  C   UNL     1     -10.081 -41.198  28.340  0.00  0.00    -0.002 C 
ENDBRANCH   1   2
BRANCH   1   8
ATOM      8  C   UNL     1     -10.493 -43.385  30.677  0.00  0.00    +0.057 C 
BRANCH   8  11
ATOM      9  C   UNL     1     -13.681 -43.861  31.902  0.00  0.00    +0.292 C 
ATOM     10  N   UNL     1     -12.535 -43.380  31.879  0.00  0.00    -0.197 NA
ATOM     11  C   UNL     1     -11.415 -44.176  31.580  0.00  0.00    +0.110 C 
ATOM     12  C   UNL     1     -11.779 -45.444  30.888  0.00  0.00    +0.088 C 
ATOM     13  S   UNL     1     -13.511 -45.608  31.498  0.00  0.00    -0.054 S 
ATOM     14  O   UNL     1     -14.843 -43.165  32.185  0.00  0.00    -0.261 OA
ENDBRANCH   8  11
BRANCH   8  15
ATOM     15  C   UNL     1      -9.077 -43.897  30.696  0.00  0.00    +0.005 C 
ATOM     16  C   UNL     1      -8.453 -43.817  32.069  0.00  0.00    +0.000 C 
ENDBRANCH   8  15
ENDBRANCH   1   8
BRANCH   1  17
ATOM     17  O   UNL     1     -12.157 -42.634  29.099  0.00  0.00    -0.165 OA
BRANCH  17  18
ATOM     18  O   UNL     1     -13.106 -43.371  28.511  0.00  0.00    -0.257 OA
BRANCH  18  19
ATOM     19  C   UNL     1     -13.441 -43.060  27.205  0.00  0.00    +0.562 C 
ATOM     20  O   UNL     1     -12.806 -42.172  26.594  0.00  0.00    -0.199 OA
BRANCH  19  21
ATOM     21  O   UNL     1     -14.464 -43.696  26.533  0.00  0.00    -0.331 OA
BRANCH  21  22
ATOM     22  N   UNL     1     -15.027 -43.274  25.382  0.00  0.00    -0.111 NA
ATOM     23  C   UNL     1     -14.266 -42.679  24.330  0.00  0.00    +0.134 C 
ATOM     24  C   UNL     1     -15.302 -41.901  25.113  0.00  0.00    +0.134 C 
ENDBRANCH  21  22
ENDBRANCH  19  21
ENDBRANCH  18  19
ENDBRANCH  17  18
ENDBRANCH   1  17
TORSDOF 9
REMARK  Name = =
REMARK  10 active torsions:
REMARK  status: ('A' for Active; 'I' for Inactive)
REMARK    1  A    between atoms: C_1  and  C_4
REMARK    2  A    between atoms: C_1  and  C_14
REMARK    3  A    between atoms: C_1  and  C_16
REMARK    4  A    between atoms: O_9  and  O_11
REMARK    5  A    between atoms: C_16  and  C_17
REMARK    6  A    between atoms: C_16  and  O_23
REMARK    7  A    between atoms: O_23  and  O_24
REMARK    8  A    between atoms: O_24  and  C_25
REMARK    9  A    between atoms: C_25  and  O_27
REMARK   10  A    between atoms: O_27  and  N_28
REMARK                            x       y       z     vdW  Elec       q    Type
REMARK                         _______ _______ _______ _____ _____    ______ ____
ROOT
ATOM      1  P   UNL     1     -14.677 -41.862  33.286  0.00  0.00    +0.000 P 
ENDROOT
TORSDOF 0
REMARK  Name = =
REMARK  10 active torsions:
REMARK  status: ('A' for Active; 'I' for Inactive)
REMARK    1  A    between atoms: C_1  and  C_4
REMARK    2  A    between atoms: C_1  and  C_14
REMARK    3  A    between atoms: C_1  and  C_16
REMARK    4  A    between atoms: O_9  and  O_11
REMARK    5  A    between atoms: C_16  and  C_17
REMARK    6  A    between atoms: C_16  and  O_23
REMARK    7  A    between atoms: O_23  and  O_24
REMARK    8  A    between atoms: O_24  and  C_25
REMARK    9  A    between atoms: C_25  and  O_27
REMARK   10  A    between atoms: O_27  and  N_28
REMARK                            x       y       z     vdW  Elec       q    Type
REMARK                         _______ _______ _______ _____ _____    ______ ____
ROOT
ATOM      1  O   UNL     1     -13.628 -41.808  34.403  0.00  0.00    -0.216 OA
ATOM      2  H   UNL     1     -13.823 -40.916  34.731  0.00  0.00    +0.256 HD
ENDROOT
BRANCH   1   4
ATOM      3  F   UNL     1     -14.965 -43.934  34.670  0.00  0.00    -0.015 F 
ATOM      4  O   UNL     1     -14.637 -42.669  34.783  0.00  0.00    -0.025 OA
ENDBRANCH   1   4
TORSDOF 1
REMARK  Name = =
REMARK  10 active torsions:
REMARK  status: ('A' for Active; 'I' for Inactive)
REMARK    1  A    between atoms: C_1  and  C_4
REMARK    2  A    between atoms: C_1  and  C_14
REMARK    3  A    between atoms: C_1  and  C_16
REMARK    4  A    between atoms: O_9  and  O_11
REMARK    5  A    between atoms: C_16  and  C_17
REMARK    6  A    between atoms: C_16  and  O_23
REMARK    7  A    between atoms: O_23  and  O_24
REMARK    8  A    between atoms: O_24  and  C_25
REMARK    9  A    between atoms: C_25  and  O_27
REMARK   10  A    between atoms: O_27  and  N_28
REMARK                            x       y       z     vdW  Elec       q    Type
REMARK                         _______ _______ _______ _____ _____    ______ ____
ROOT
ATOM      1  O   HOH     1     -13.403 -40.770  33.104  0.00  0.00    -0.253 OA
ATOM      2  H   HOH     0     -12.433 -40.770  33.104  0.00  0.00    +0.253 HD
ENDROOT
TORSDOF 0
REMARK  Name = =
REMARK  10 active torsions:
REMARK  status: ('A' for Active; 'I' for Inactive)
REMARK    1  A    between atoms: C_1  and  C_4
REMARK    2  A    between atoms: C_1  and  C_14
REMARK    3  A    between atoms: C_1  and  C_16
REMARK    4  A    between atoms: O_9  and  O_11
REMARK    5  A    between atoms: C_16  and  C_17
REMARK    6  A    between atoms: C_16  and  O_23
REMARK    7  A    between atoms: O_23  and  O_24
REMARK    8  A    between atoms: O_24  and  C_25
REMARK    9  A    between atoms: C_25  and  O_27
REMARK   10  A    between atoms: O_27  and  N_28
REMARK                            x       y       z     vdW  Elec       q    Type
REMARK                         _______ _______ _______ _____ _____    ______ ____
ROOT
ATOM      1  O   HOH     1     -16.093 -40.994  33.351  0.00  0.00    -0.253 OA
ATOM      2  H   HOH     0     -15.123 -40.994  33.351  0.00  0.00    +0.253 HD
ENDROOT
TORSDOF 0
