REMARK  Name = =
REMARK  1 active torsions:
REMARK  status: ('A' for Active; 'I' for Inactive)
REMARK    1  A    between atoms: C_1  and  O_4
REMARK                            x       y       z     vdW  Elec       q    Type
REMARK                         _______ _______ _______ _____ _____    ______ ____
ROOT
ATOM      1  C   UNL     1      -3.662  -3.237  31.271  0.00  0.00    +0.314 C 
ATOM      2  O   UNL     1      -3.488  -2.129  30.719  0.00  0.00    -0.250 OA
ATOM      3  C   UNL     1      -4.999  -3.576  31.800  0.00  0.00    +0.121 C 
ENDROOT
BRANCH   1   4
ATOM      4  O   UNL     1      -2.584  -4.095  31.357  0.00  0.00    -0.480 OA
ATOM      5  H   UNL     1      -2.683  -4.933  31.765  0.00  0.00    +0.295 HD
ENDBRANCH   1   4
TORSDOF 1
