REMARK  Name = =
REMARK  2 active torsions:
REMARK  status: ('A' for Active; 'I' for Inactive)
REMARK    1  A    between atoms: N_1  and  O_12
REMARK    2  A    between atoms: O_12  and  C_13
REMARK                            x       y       z     vdW  Elec       q    Type
REMARK                         _______ _______ _______ _____ _____    ______ ____
ROOT
ATOM      1  N   UNL     1      -7.059  -1.673  32.269  0.00  0.00    -0.054 N 
ATOM      2  C   UNL     1      -8.310  -2.019  31.703  0.00  0.00    +0.287 C 
ATOM      3  O   UNL     1      -8.903  -3.139  31.717  0.00  0.00    -0.267 OA
ATOM      4  C   UNL     1      -8.831  -0.796  31.057  0.00  0.00    +0.061 C 
ATOM      5  C   UNL     1      -7.944   0.238  31.226  0.00  0.00    +0.061 C 
ATOM      6  C   UNL     1      -8.196   1.488  30.715  0.00  0.00    +0.005 C 
ATOM      7  C   UNL     1      -9.380   1.675  30.022  0.00  0.00    +0.000 C 
ATOM      8  C   UNL     1     -10.271   0.632  29.854  0.00  0.00    +0.000 C 
ATOM      9  C   UNL     1     -10.016  -0.626  30.368  0.00  0.00    +0.005 C 
ATOM     10  C   UNL     1      -6.827  -0.321  31.991  0.00  0.00    +0.287 C 
ATOM     11  O   UNL     1      -5.790   0.317  32.357  0.00  0.00    -0.267 OA
ENDROOT
BRANCH   1  12
ATOM     12  O   UNL     1      -6.242  -2.553  32.958  0.00  0.00    -0.336 OA
BRANCH  12  13
ATOM     13  C   UNL     1      -5.242  -3.258  32.291  0.00  0.00    +0.341 C 
ATOM     14  O   UNL     1      -5.274  -3.186  31.016  0.00  0.00    -0.248 OA
ATOM     15  C   UNL     1      -4.185  -4.057  32.940  0.00  0.00    +0.123 C 
ENDBRANCH  12  13
ENDBRANCH   1  12
TORSDOF 2
