REMARK  Name = =
REMARK  1 active torsions:
REMARK  status: ('A' for Active; 'I' for Inactive)
REMARK    1  A    between atoms: C_1  and  C_12
REMARK                            x       y       z     vdW  Elec       q    Type
REMARK                         _______ _______ _______ _____ _____    ______ ____
ROOT
ATOM      1  C   UNL     1      -3.840  -3.975  30.318  0.00  0.00    +0.163 C 
ATOM      2  C   UNL     1      -3.571  -2.551  30.668  0.00  0.00    +0.186 C 
ATOM      3  O   UNL     1      -2.567  -1.821  30.486  0.00  0.00    -0.290 OA
ATOM      4  C   UNL     1      -4.835  -2.138  31.336  0.00  0.00    +0.038 C 
ATOM      5  C   UNL     1      -5.402  -3.297  31.882  0.00  0.00    +0.038 C 
ATOM      6  C   UNL     1      -6.590  -3.153  32.563  0.00  0.00    +0.003 C 
ATOM      7  C   UNL     1      -7.205  -1.921  32.706  0.00  0.00    +0.000 C 
ATOM      8  C   UNL     1      -6.632  -0.793  32.161  0.00  0.00    +0.000 C 
ATOM      9  C   UNL     1      -5.424  -0.903  31.462  0.00  0.00    +0.003 C 
ATOM     10  C   UNL     1      -4.499  -4.430  31.555  0.00  0.00    +0.186 C 
ATOM     11  O   UNL     1      -4.406  -5.467  32.238  0.00  0.00    -0.290 OA
ENDROOT
BRANCH   1  12
ATOM     12  C   UNL     1      -2.671  -4.729  29.889  0.00  0.00    +0.077 C 
ATOM     13  C   UNL     1      -1.863  -4.246  28.884  0.00  0.00    +0.032 C 
ATOM     14  C   UNL     1      -0.689  -4.888  28.522  0.00  0.00    +0.084 C 
ATOM     15  N   UNL     1      -0.375  -6.003  29.195  0.00  0.00    -0.224 NA
ATOM     16  C   UNL     1      -1.143  -6.504  30.179  0.00  0.00    +0.199 C 
ATOM     17  N   UNL     1      -2.268  -5.868  30.510  0.00  0.00    -0.227 NA
ATOM     18  C   UNL     1       0.130  -4.431  27.491  0.00  0.00    +0.019 C 
ATOM     19  C   UNL     1      -0.228  -3.303  26.791  0.00  0.00    +0.002 C 
ATOM     20  C   UNL     1      -1.384  -2.640  27.112  0.00  0.00    +0.000 C 
ATOM     21  C   UNL     1      -2.170  -3.119  28.140  0.00  0.00    +0.003 C 
ENDBRANCH   1  12
TORSDOF 1
