REMARK  Name = =
REMARK  4 active torsions:
REMARK  status: ('A' for Active; 'I' for Inactive)
REMARK    1  A    between atoms: N_1  and  O_20
REMARK    2  A    between atoms: C_6  and  N_12
REMARK    3  A    between atoms: C_14  and  O_19
REMARK    4  A    between atoms: O_20  and  C_21
REMARK                            x       y       z     vdW  Elec       q    Type
REMARK                         _______ _______ _______ _____ _____    ______ ____
ROOT
ATOM      1  N   UNL     1      -7.516  -1.337  32.070  0.00  0.00    -0.054 N 
ATOM      2  C   UNL     1      -7.075  -0.003  32.234  0.00  0.00    +0.287 C 
ATOM      3  O   UNL     1      -6.074   0.401  32.889  0.00  0.00    -0.267 OA
ATOM      4  C   UNL     1      -8.000   0.844  31.495  0.00  0.00    +0.063 C 
ATOM      5  C   UNL     1      -8.991   0.071  30.887  0.00  0.00    +0.075 C 
ATOM      6  C   UNL     1      -9.982   0.650  30.130  0.00  0.00    +0.060 C 
ATOM      7  C   UNL     1      -9.984   2.031  29.980  0.00  0.00    +0.015 C 
ATOM      8  C   UNL     1      -9.025   2.826  30.563  0.00  0.00    +0.001 C 
ATOM      9  C   UNL     1      -8.042   2.228  31.316  0.00  0.00    +0.005 C 
ATOM     10  C   UNL     1      -8.679  -1.304  31.254  0.00  0.00    +0.288 C 
ATOM     11  O   UNL     1      -9.372  -2.291  30.875  0.00  0.00    -0.266 OA
ENDROOT
BRANCH   6  12
ATOM     12  N   UNL     1     -10.960  -0.186  29.532  0.00  0.00    -0.260 N 
ATOM     13  C   UNL     1     -12.089  -0.496  30.189  0.00  0.00    +0.110 C 
ATOM     14  C   UNL     1     -13.065  -1.300  29.639  0.00  0.00    +0.188 C 
ATOM     15  C   UNL     1     -12.903  -1.823  28.358  0.00  0.00    +0.232 C 
ATOM     16  O   UNL     1     -13.811  -2.552  27.882  0.00  0.00    -0.283 OA
ATOM     17  C   UNL     1     -11.742  -1.502  27.687  0.00  0.00    +0.062 C 
ATOM     18  C   UNL     1     -10.786  -0.687  28.285  0.00  0.00    +0.073 C 
BRANCH  14  19
ATOM     19  O   UNL     1     -14.209  -1.569  30.397  0.00  0.00    -0.502 OA
ATOM     20  H   UNL     1     -14.297  -1.207  31.257  0.00  0.00    +0.292 HD
ENDBRANCH  14  19
ENDBRANCH   6  12
BRANCH   1  21
ATOM     21  O   UNL     1      -6.891  -2.426  32.628  0.00  0.00    -0.336 OA
BRANCH  21  22
ATOM     22  C   UNL     1      -5.814  -3.053  32.040  0.00  0.00    +0.341 C 
ATOM     23  O   UNL     1      -5.629  -2.927  30.806  0.00  0.00    -0.248 OA
ATOM     24  C   UNL     1      -4.854  -3.880  32.810  0.00  0.00    +0.123 C 
ENDBRANCH  21  22
ENDBRANCH   1  21
TORSDOF 4
