REMARK  Name = =
REMARK  2 active torsions:
REMARK  status: ('A' for Active; 'I' for Inactive)
REMARK    1  A    between atoms: C_1  and  C_11
REMARK    2  A    between atoms: C_5  and  C_22
REMARK                            x       y       z     vdW  Elec       q    Type
REMARK                         _______ _______ _______ _____ _____    ______ ____
ROOT
ATOM      1  C   UNL     1      -4.488  -2.349  31.119  0.00  0.00    +0.077 A 
ATOM      2  C   UNL     1      -3.485  -2.002  30.264  0.00  0.00    +0.032 A 
ATOM      3  C   UNL     1      -3.376  -0.677  29.868  0.00  0.00    +0.084 A 
ATOM      4  N   UNL     1      -4.257   0.242  30.329  0.00  0.00    -0.224 NA
ATOM      5  C   UNL     1      -5.248  -0.087  31.172  0.00  0.00    +0.205 A 
ATOM      6  N   UNL     1      -5.335  -1.364  31.542  0.00  0.00    -0.227 NA
ATOM      7  C   UNL     1      -2.354  -0.333  29.012  0.00  0.00    +0.019 C 
ATOM      8  C   UNL     1      -1.442  -1.258  28.541  0.00  0.00    +0.002 C 
ATOM      9  C   UNL     1      -1.588  -2.551  28.961  0.00  0.00    +0.000 C 
ATOM     10  C   UNL     1      -2.612  -2.944  29.830  0.00  0.00    +0.003 C 
ENDROOT
BRANCH   1  11
ATOM     11  C   UNL     1      -4.762  -3.703  31.591  0.00  0.00    +0.163 C 
ATOM     12  C   UNL     1      -4.397  -4.810  30.716  0.00  0.00    +0.186 C 
ATOM     13  O   UNL     1      -4.325  -4.875  29.449  0.00  0.00    -0.290 OA
ATOM     14  C   UNL     1      -4.095  -5.939  31.598  0.00  0.00    +0.038 C 
ATOM     15  C   UNL     1      -3.905  -5.470  32.888  0.00  0.00    +0.038 C 
ATOM     16  C   UNL     1      -3.602  -6.366  33.924  0.00  0.00    +0.003 C 
ATOM     17  C   UNL     1      -3.484  -7.722  33.704  0.00  0.00    +0.000 C 
ATOM     18  C   UNL     1      -3.675  -8.174  32.418  0.00  0.00    +0.000 C 
ATOM     19  C   UNL     1      -3.973  -7.316  31.385  0.00  0.00    +0.003 C 
ATOM     20  C   UNL     1      -4.079  -4.023  32.874  0.00  0.00    +0.186 C 
ATOM     21  O   UNL     1      -3.730  -3.204  33.753  0.00  0.00    -0.290 OA
ENDBRANCH   1  11
BRANCH   5  22
ATOM     22  C   UNL     1      -6.192   0.934  31.661  0.00  0.00    +0.273 C 
ATOM     23  O   UNL     1      -6.867   0.661  32.685  0.00  0.00    -0.280 OA
ENDBRANCH   5  22
TORSDOF 2
