REMARK  Name = =
REMARK  5 active torsions:
REMARK  status: ('A' for Active; 'I' for Inactive)
REMARK    1  A    between atoms: N_1  and  O_25
REMARK    2  A    between atoms: C_6  and  N_12
REMARK    3  A    between atoms: C_9  and  N_20
REMARK    4  A    between atoms: C_14  and  O_19
REMARK    5  A    between atoms: O_25  and  C_26
REMARK                            x       y       z     vdW  Elec       q    Type
REMARK                         _______ _______ _______ _____ _____    ______ ____
ROOT
ATOM      1  N   UNL     1      -7.964  -1.456  31.442  0.00  0.00    -0.054 N 
ATOM      2  C   UNL     1      -7.687  -0.072  31.476  0.00  0.00    +0.288 C 
ATOM      3  O   UNL     1      -6.697   0.462  32.007  0.00  0.00    -0.266 OA
ATOM      4  C   UNL     1      -8.724   0.698  30.794  0.00  0.00    +0.076 C 
ATOM      5  C   UNL     1      -9.640  -0.222  30.342  0.00  0.00    +0.076 C 
ATOM      6  C   UNL     1     -10.759   0.254  29.630  0.00  0.00    +0.060 C 
ATOM      7  C   UNL     1     -10.945   1.592  29.384  0.00  0.00    +0.017 C 
ATOM      8  C   UNL     1     -10.018   2.493  29.845  0.00  0.00    +0.016 C 
ATOM      9  C   UNL     1      -8.903   2.031  30.554  0.00  0.00    +0.053 C 
ATOM     10  C   UNL     1      -9.214  -1.563  30.718  0.00  0.00    +0.289 C 
ATOM     11  O   UNL     1      -9.849  -2.616  30.444  0.00  0.00    -0.266 OA
ENDROOT
BRANCH   6  12
ATOM     12  N   UNL     1     -11.669  -0.747  29.180  0.00  0.00    -0.260 N 
ATOM     13  C   UNL     1     -11.557  -1.264  27.938  0.00  0.00    +0.110 C 
ATOM     14  C   UNL     1     -12.420  -2.247  27.500  0.00  0.00    +0.188 C 
ATOM     15  C   UNL     1     -13.411  -2.716  28.323  0.00  0.00    +0.232 C 
ATOM     16  O   UNL     1     -14.189  -3.622  27.890  0.00  0.00    -0.283 OA
ATOM     17  C   UNL     1     -13.516  -2.190  29.569  0.00  0.00    +0.062 C 
ATOM     18  C   UNL     1     -12.642  -1.208  29.988  0.00  0.00    +0.073 C 
BRANCH  14  19
ATOM     19  O   UNL     1     -12.301  -2.780  26.210  0.00  0.00    -0.502 OA
ATOM     20  H   UNL     1     -11.629  -2.470  25.635  0.00  0.00    +0.292 HD
ENDBRANCH  14  19
ENDBRANCH   6  12
BRANCH   9  21
ATOM     21  N   UNL     1      -8.000   3.009  31.020  0.00  0.00    -0.307 N 
ATOM     22  C   UNL     1      -8.147   3.833  32.178  0.00  0.00    +0.091 C 
ATOM     23  C   UNL     1      -7.486   5.145  31.713  0.00  0.00    +0.023 C 
ATOM     24  C   UNL     1      -6.258   4.613  31.009  0.00  0.00    +0.023 C 
ATOM     25  C   UNL     1      -6.730   3.326  30.383  0.00  0.00    +0.091 C 
ENDBRANCH   9  21
BRANCH   1  26
ATOM     26  O   UNL     1      -7.356  -2.571  31.893  0.00  0.00    -0.336 OA
BRANCH  26  27
ATOM     27  C   UNL     1      -6.013  -2.760  32.053  0.00  0.00    +0.341 C 
ATOM     28  O   UNL     1      -5.199  -1.914  31.652  0.00  0.00    -0.248 OA
ATOM     29  C   UNL     1      -5.451  -3.984  32.712  0.00  0.00    +0.123 C 
ENDBRANCH  26  27
ENDBRANCH   1  26
TORSDOF 5
