REMARK  Name = =
REMARK  7 active torsions:
REMARK  status: ('A' for Active; 'I' for Inactive)
REMARK    1  A    between atoms: N_1  and  O_25
REMARK    2  A    between atoms: C_6  and  N_12
REMARK    3  A    between atoms: C_9  and  N_20
REMARK    4  A    between atoms: C_14  and  O_19
REMARK    5  A    between atoms: O_25  and  C_26
REMARK    6  A    between atoms: C_26  and  C_28
REMARK    7  A    between atoms: C_28  and  C_29
REMARK                            x       y       z     vdW  Elec       q    Type
REMARK                         _______ _______ _______ _____ _____    ______ ____
ROOT
ATOM      1  N   UNL     1      -7.594  -0.894  31.728  0.00  0.00    -0.054 N 
ATOM      2  C   UNL     1      -7.385   0.507  31.587  0.00  0.00    +0.288 C 
ATOM      3  O   UNL     1      -6.422   1.108  32.084  0.00  0.00    -0.266 OA
ATOM      4  C   UNL     1      -8.475   1.095  30.783  0.00  0.00    +0.076 C 
ATOM      5  C   UNL     1      -9.329   0.036  30.451  0.00  0.00    +0.076 C 
ATOM      6  C   UNL     1     -10.475   0.243  29.699  0.00  0.00    +0.060 C 
ATOM      7  C   UNL     1     -10.720   1.528  29.307  0.00  0.00    +0.017 C 
ATOM      8  C   UNL     1      -9.908   2.585  29.614  0.00  0.00    +0.016 C 
ATOM      9  C   UNL     1      -8.736   2.377  30.378  0.00  0.00    +0.053 C 
ATOM     10  C   UNL     1      -8.791  -1.186  31.029  0.00  0.00    +0.289 C 
ATOM     11  O   UNL     1      -9.335  -2.327  30.908  0.00  0.00    -0.266 OA
ENDROOT
BRANCH   6  12
ATOM     12  N   UNL     1     -11.303  -0.855  29.354  0.00  0.00    -0.260 N 
ATOM     13  C   UNL     1     -11.017  -1.675  28.330  0.00  0.00    +0.110 C 
ATOM     14  C   UNL     1     -11.846  -2.727  28.019  0.00  0.00    +0.188 C 
ATOM     15  C   UNL     1     -13.002  -2.978  28.746  0.00  0.00    +0.232 C 
ATOM     16  O   UNL     1     -13.761  -3.958  28.438  0.00  0.00    -0.283 OA
ATOM     17  C   UNL     1     -13.275  -2.126  29.789  0.00  0.00    +0.062 C 
ATOM     18  C   UNL     1     -12.429  -1.101  30.062  0.00  0.00    +0.073 C 
BRANCH  14  19
ATOM     19  O   UNL     1     -11.541  -3.569  26.960  0.00  0.00    -0.502 OA
ATOM     20  H   UNL     1     -10.767  -3.422  26.453  0.00  0.00    +0.292 HD
ENDBRANCH  14  19
ENDBRANCH   6  12
BRANCH   9  21
ATOM     21  N   UNL     1      -7.889   3.461  30.652  0.00  0.00    -0.307 N 
ATOM     22  C   UNL     1      -6.669   3.780  29.923  0.00  0.00    +0.091 C 
ATOM     23  C   UNL     1      -5.917   4.774  30.744  0.00  0.00    +0.023 C 
ATOM     24  C   UNL     1      -6.579   4.655  32.097  0.00  0.00    +0.023 C 
ATOM     25  C   UNL     1      -8.044   4.479  31.671  0.00  0.00    +0.091 C 
ENDBRANCH   9  21
BRANCH   1  26
ATOM     26  O   UNL     1      -6.832  -1.810  32.403  0.00  0.00    -0.336 OA
BRANCH  26  27
ATOM     27  C   UNL     1      -5.933  -2.685  31.860  0.00  0.00    +0.346 C 
ATOM     28  O   UNL     1      -5.548  -2.585  30.693  0.00  0.00    -0.247 OA
BRANCH  27  29
ATOM     29  C   UNL     1      -5.375  -3.836  32.683  0.00  0.00    +0.159 C 
BRANCH  29  30
ATOM     30  C   UNL     1      -4.229  -4.421  32.009  0.00  0.00    +0.088 C 
ATOM     31  N   UNL     1      -3.603  -3.775  31.021  0.00  0.00    -0.246 NA
ATOM     32  C   UNL     1      -2.564  -4.304  30.314  0.00  0.00    +0.099 C 
ATOM     33  C   UNL     1      -2.110  -5.552  30.600  0.00  0.00    +0.022 C 
ATOM     34  C   UNL     1      -2.729  -6.266  31.625  0.00  0.00    +0.020 C 
ATOM     35  C   UNL     1      -3.781  -5.681  32.313  0.00  0.00    +0.095 C 
ATOM     36  N   UNL     1      -4.360  -6.394  33.302  0.00  0.00    -0.243 NA
ATOM     37  C   UNL     1      -3.937  -7.625  33.614  0.00  0.00    +0.099 C 
ATOM     38  C   UNL     1      -2.880  -8.209  32.919  0.00  0.00    +0.021 C 
ATOM     39  C   UNL     1      -2.264  -7.518  31.906  0.00  0.00    +0.003 C 
ENDBRANCH  29  30
ENDBRANCH  27  29
ENDBRANCH  26  27
ENDBRANCH   1  26
TORSDOF 7
