REMARK  Name = =
REMARK  8 active torsions:
REMARK  status: ('A' for Active; 'I' for Inactive)
REMARK    1  A    between atoms: N_1  and  O_25
REMARK    2  A    between atoms: C_6  and  N_12
REMARK    3  A    between atoms: C_9  and  N_20
REMARK    4  A    between atoms: C_14  and  O_19
REMARK    5  A    between atoms: O_25  and  C_26
REMARK    6  A    between atoms: C_26  and  C_28
REMARK    7  A    between atoms: C_28  and  C_29
REMARK    8  A    between atoms: C_32  and  N_39
REMARK                            x       y       z     vdW  Elec       q    Type
REMARK                         _______ _______ _______ _____ _____    ______ ____
ROOT
ATOM      1  N   UNL     1     -14.699   0.725  24.238  0.00  0.00    -0.054 N 
ATOM      2  C   UNL     1     -15.287  -0.568  24.287  0.00  0.00    +0.288 C 
ATOM      3  O   UNL     1     -15.513  -1.254  23.270  0.00  0.00    -0.266 OA
ATOM      4  C   UNL     1     -15.549  -0.881  25.711  0.00  0.00    +0.076 C 
ATOM      5  C   UNL     1     -15.130   0.192  26.464  0.00  0.00    +0.076 C 
ATOM      6  C   UNL     1     -15.247   0.210  27.820  0.00  0.00    +0.060 C 
ATOM      7  C   UNL     1     -15.808  -0.904  28.415  0.00  0.00    +0.017 C 
ATOM      8  C   UNL     1     -16.224  -1.972  27.690  0.00  0.00    +0.016 C 
ATOM      9  C   UNL     1     -16.111  -2.007  26.282  0.00  0.00    +0.053 C 
ATOM     10  C   UNL     1     -14.594   1.215  25.588  0.00  0.00    +0.289 C 
ATOM     11  O   UNL     1     -14.110   2.342  25.863  0.00  0.00    -0.266 OA
ENDROOT
BRANCH   6  12
ATOM     12  N   UNL     1     -14.848   1.282  28.641  0.00  0.00    -0.260 N 
ATOM     13  C   UNL     1     -13.581   1.429  29.043  0.00  0.00    +0.110 C 
ATOM     14  C   UNL     1     -13.198   2.499  29.862  0.00  0.00    +0.188 C 
ATOM     15  C   UNL     1     -14.170   3.417  30.255  0.00  0.00    +0.232 C 
ATOM     16  O   UNL     1     -13.840   4.387  30.993  0.00  0.00    -0.283 OA
ATOM     17  C   UNL     1     -15.468   3.251  29.831  0.00  0.00    +0.062 C 
ATOM     18  C   UNL     1     -15.764   2.181  29.033  0.00  0.00    +0.073 C 
BRANCH  14  19
ATOM     19  O   UNL     1     -11.890   2.664  30.288  0.00  0.00    -0.502 OA
ATOM     20  H   UNL     1     -11.231   2.050  30.027  0.00  0.00    +0.292 HD
ENDBRANCH  14  19
ENDBRANCH   6  12
BRANCH   9  21
ATOM     21  N   UNL     1     -16.534  -3.163  25.597  0.00  0.00    -0.307 N 
ATOM     22  C   UNL     1     -17.926  -3.351  25.178  0.00  0.00    +0.091 C 
ATOM     23  C   UNL     1     -18.205  -4.761  25.621  0.00  0.00    +0.023 C 
ATOM     24  C   UNL     1     -16.854  -5.433  25.559  0.00  0.00    +0.023 C 
ATOM     25  C   UNL     1     -15.844  -4.342  25.211  0.00  0.00    +0.091 C 
ENDBRANCH   9  21
BRANCH   1  26
ATOM     26  O   UNL     1     -14.275   1.406  23.157  0.00  0.00    -0.336 OA
BRANCH  26  27
ATOM     27  C   UNL     1     -13.055   1.435  22.541  0.00  0.00    +0.346 C 
ATOM     28  O   UNL     1     -12.550   2.556  22.307  0.00  0.00    -0.247 OA
BRANCH  27  29
ATOM     29  C   UNL     1     -12.391   0.136  22.181  0.00  0.00    +0.159 C 
BRANCH  29  30
ATOM     30  C   UNL     1     -10.935   0.217  22.054  0.00  0.00    +0.088 C 
ATOM     31  N   UNL     1     -10.329   0.390  20.873  0.00  0.00    -0.245 NA
ATOM     32  C   UNL     1      -9.002   0.495  20.737  0.00  0.00    +0.113 C 
ATOM     33  C   UNL     1      -8.113   0.436  21.817  0.00  0.00    +0.069 C 
ATOM     34  C   UNL     1      -8.696   0.260  23.043  0.00  0.00    +0.034 C 
ATOM     35  C   UNL     1     -10.089   0.152  23.156  0.00  0.00    +0.097 C 
ATOM     36  N   UNL     1     -10.670  -0.003  24.349  0.00  0.00    -0.243 NA
ATOM     37  C   UNL     1      -9.947  -0.059  25.465  0.00  0.00    +0.099 C 
ATOM     38  C   UNL     1      -8.581   0.045  25.400  0.00  0.00    +0.021 C 
ATOM     39  C   UNL     1      -7.938   0.205  24.200  0.00  0.00    +0.004 C 
BRANCH  33  40
ATOM     40  N   UNL     1      -6.730   0.527  21.589  0.00  0.00    -0.306 N 
ATOM     41  C   UNL     1      -5.889  -0.664  21.289  0.00  0.00    +0.091 C 
ATOM     42  C   UNL     1      -4.824  -0.519  22.350  0.00  0.00    +0.023 C 
ATOM     43  C   UNL     1      -4.481   0.964  22.176  0.00  0.00    +0.023 C 
ATOM     44  C   UNL     1      -5.780   1.590  21.612  0.00  0.00    +0.091 C 
ENDBRANCH  33  40
ENDBRANCH  29  30
ENDBRANCH  27  29
ENDBRANCH  26  27
ENDBRANCH   1  26
TORSDOF 8
