MODEL 1
REMARK VINA RESULT:    -7.232      0.000      0.000
REMARK INTER + INTRA:          -6.507
REMARK INTER:                  -9.768
REMARK INTRA:                   3.261
REMARK UNBOUND:                 3.261
REMARK  Name = =
REMARK  7 active torsions:
REMARK  status: ('A' for Active; 'I' for Inactive)
REMARK    1  A    between atoms: C_1  and  C_7
REMARK    2  A    between atoms: C_1  and  S_24
REMARK    3  A    between atoms: C_7  and  C_16
REMARK    4  A    between atoms: C_17  and  C_21
REMARK    5  A    between atoms: C_18  and  O_23
REMARK    6  A    between atoms: C_25  and  C_29
REMARK    7  A    between atoms: C_26  and  O_34
REMARK                            x       y       z     vdW  Elec       q    Type
REMARK                         _______ _______ _______ _____ _____    ______ ____
ROOT
ATOM      1  C   UNL     1     -22.231 -42.144  23.566  0.00  0.00    +0.206 C 
ATOM      2  O   UNL     1     -21.836 -43.144  22.735  0.00  0.00    -0.437 OA
ATOM      3  C   UNL     1     -22.378 -43.155  21.481  0.00  0.00    +0.342 C 
ATOM      4  O   UNL     1     -22.144 -43.987  20.577  0.00  0.00    -0.245 OA
ATOM      5  C   UNL     1     -23.262 -42.003  21.452  0.00  0.00    +0.082 C 
ATOM      6  C   UNL     1     -23.204 -41.414  22.602  0.00  0.00    +0.031 C 
ENDROOT
BRANCH   1   7
ATOM      7  C   UNL     1     -23.124 -42.459  24.718  0.00  0.00    +0.166 C 
ATOM      8  S   UNL     1     -23.904 -40.840  25.084  0.00  0.00    -0.113 S 
ATOM      9  C   UNL     1     -25.572 -41.226  24.548  0.00  0.00    +0.081 C 
ATOM     10  C   UNL     1     -25.441 -42.574  23.984  0.00  0.00    +0.107 C 
ATOM     11  N   UNL     1     -24.236 -43.260  24.225  0.00  0.00    -0.259 N 
ATOM     12  C   UNL     1     -24.136 -44.693  23.988  0.00  0.00    +0.304 C 
ATOM     13  O   UNL     1     -23.069 -45.283  24.204  0.00  0.00    -0.265 OA
BRANCH   7  16
ATOM     14  F   UNL     1     -20.743 -43.676  24.563  0.00  0.00    -0.204 F 
ATOM     15  C   UNL     1     -21.319 -43.654  25.765  0.00  0.00    +0.138 C 
ATOM     16  C   UNL     1     -22.595 -43.049  25.931  0.00  0.00    +0.035 C 
ATOM     17  C   UNL     1     -23.068 -43.076  27.170  0.00  0.00    +0.024 C 
ATOM     18  C   UNL     1     -22.368 -43.661  28.252  0.00  0.00    +0.130 C 
ATOM     19  C   UNL     1     -21.156 -44.227  28.048  0.00  0.00    +0.039 C 
ATOM     20  C   UNL     1     -20.628 -44.222  26.795  0.00  0.00    +0.032 C 
BRANCH  17  21
ATOM     21  C   UNL     1     -24.284 -42.441  27.584  0.00  0.00    +0.098 C 
ATOM     22  S   UNL     1     -25.629 -43.412  27.654  0.00  0.00    -0.077 S 
ENDBRANCH  17  21
BRANCH  18  23
ATOM     23  O   UNL     1     -22.917 -43.660  29.521  0.00  0.00    -0.506 OA
ATOM     24  H   UNL     1     -22.388 -43.886  30.261  0.00  0.00    +0.292 HD
ENDBRANCH  18  23
ENDBRANCH   7  16
ENDBRANCH   1   7
BRANCH   1  25
ATOM     25  S   UNL     1     -21.009 -40.951  23.845  0.00  0.00    -0.172 S 
ATOM     26  C   UNL     1     -19.392 -41.257  23.082  0.00  0.00    +0.075 C 
ATOM     27  C   UNL     1     -19.422 -40.203  21.977  0.00  0.00    +0.178 C 
ATOM     28  N   UNL     1     -19.950 -39.023  22.628  0.00  0.00    -0.267 NA
ATOM     29  C   UNL     1     -21.286 -39.331  22.999  0.00  0.00    +0.113 C 
ATOM     30  H   UNL     1     -21.055 -40.975  25.204  0.00  0.00    +0.089 HD
ATOM     31  H   UNL     1     -19.936 -38.230  21.986  0.00  0.00    +0.126 HD
BRANCH  26  32
ATOM     32  C   UNL     1     -18.273 -41.049  24.029  0.00  0.00    +0.012 C 
ATOM     33  C   UNL     1     -18.767 -41.193  25.445  0.00  0.00    +0.001 C 
ATOM     34  C   UNL     1     -17.560 -41.718  26.213  0.00  0.00    +0.000 C 
ATOM     35  C   UNL     1     -16.836 -42.496  25.173  0.00  0.00    +0.000 C 
ATOM     36  C   UNL     1     -17.241 -42.114  23.963  0.00  0.00    +0.001 C 
ENDBRANCH  26  32
BRANCH  27  37
ATOM     37  O   UNL     1     -18.217 -39.998  21.369  0.00  0.00    -0.369 OA
ATOM     38  H   UNL     1     -17.583 -40.664  21.677  0.00  0.00    +0.212 HD
ENDBRANCH  27  37
ENDBRANCH   1  25
TORSDOF 7
ENDMDL
