MODEL 1
REMARK VINA RESULT:    -8.628      0.000      0.000
REMARK INTER + INTRA:         -15.422
REMARK INTER:                 -13.673
REMARK INTRA:                  -1.750
REMARK UNBOUND:                -1.750
REMARK  Name = =
REMARK  11 active torsions:
REMARK  status: ('A' for Active; 'I' for Inactive)
REMARK    1  A    between atoms: C_1  and  C_12
REMARK    2  A    between atoms: C_2  and  O_46
REMARK    3  A    between atoms: C_3  and  N_29
REMARK    4  A    between atoms: C_4  and  C_38
REMARK    5  A    between atoms: C_5  and  C_44
REMARK    6  A    between atoms: C_6  and  O_43
REMARK    7  A    between atoms: C_7  and  N_16
REMARK    8  A    between atoms: N_13  and  C_17
REMARK    9  A    between atoms: N_16  and  N_24
REMARK   10  A    between atoms: C_30  and  C_32
REMARK   11  A    between atoms: C_39  and  N_40
REMARK                            x       y       z     vdW  Elec       q    Type
REMARK                         _______ _______ _______ _____ _____    ______ ____
ROOT
ATOM      1  C   UNL     1       1.193  -4.491  29.876  0.00  0.00    +0.070 A 
ATOM      2  C   UNL     1       2.150  -4.556  28.894  0.00  0.00    +0.150 A 
ATOM      3  C   UNL     1       2.019  -3.842  27.727  0.00  0.00    +0.085 A 
ATOM      4  C   UNL     1       0.895  -3.027  27.514  0.00  0.00    +0.024 A 
ATOM      5  C   UNL     1      -0.073  -2.970  28.502  0.00  0.00    +0.077 A 
ATOM      6  C   UNL     1       0.060  -3.687  29.680  0.00  0.00    +0.140 A 
ENDROOT
BRANCH   1  12
ATOM      7  C   UNL     1       0.837  -6.446  31.301  0.00  0.00    +0.075 C 
ATOM      8  C   UNL     1       1.024  -7.128  32.539  0.00  0.00    +0.017 C 
ATOM      9  C   UNL     1       1.772  -6.543  33.530  0.00  0.00    +0.001 C 
ATOM     10  C   UNL     1       2.342  -5.306  33.344  0.00  0.00    +0.000 C 
ATOM     11  C   UNL     1       2.144  -4.667  32.138  0.00  0.00    +0.001 C 
ATOM     12  C   UNL     1       1.387  -5.234  31.100  0.00  0.00    +0.021 C 
BRANCH   7  16
ATOM     13  N   UNL     1      -0.181  -8.341  28.174  0.00  0.00    -0.238 N 
ATOM     14  C   UNL     1       0.647  -7.755  29.171  0.00  0.00    +0.330 C 
ATOM     15  O   UNL     1       1.892  -7.798  29.001  0.00  0.00    -0.250 OA
ATOM     16  N   UNL     1       0.096  -7.133  30.327  0.00  0.00    -0.167 N 
ATOM     17  H   UNL     1      -1.155  -8.286  28.312  0.00  0.00    +0.159 HD
BRANCH  13  18
ATOM     18  C   UNL     1       0.262  -8.992  27.011  0.00  0.00    +0.206 C 
ATOM     19  C   UNL     1       0.038 -10.290  26.656  0.00  0.00    +0.096 C 
ATOM     20  C   UNL     1       0.519 -10.861  25.474  0.00  0.00    +0.203 C 
ATOM     21  O   UNL     1       0.287 -12.060  25.192  0.00  0.00    -0.286 OA
ATOM     22  C   UNL     1       1.257 -10.060  24.635  0.00  0.00    +0.083 C 
ATOM     23  C   UNL     1       1.462  -8.747  25.033  0.00  0.00    +0.184 C 
ATOM     24  O   UNL     1       0.985  -8.288  26.143  0.00  0.00    -0.436 OA
ENDBRANCH  13  18
BRANCH  16  25
ATOM     25  N   UNL     1      -1.293  -7.181  30.511  0.00  0.00    -0.198 N 
ATOM     26  C   UNL     1      -1.940  -8.206  31.229  0.00  0.00    +0.242 C 
ATOM     27  O   UNL     1      -1.350  -9.149  31.747  0.00  0.00    -0.273 OA
ATOM     28  C   UNL     1      -3.426  -8.151  31.371  0.00  0.00    +0.096 C 
ATOM     29  C   UNL     1      -2.105  -6.093  29.912  0.00  0.00    +0.139 C 
ENDBRANCH  16  25
ENDBRANCH   7  16
ENDBRANCH   1  12
BRANCH   3  30
ATOM     30  N   UNL     1       3.010  -3.910  26.720  0.00  0.00    -0.277 N 
ATOM     31  C   UNL     1       4.125  -3.007  26.714  0.00  0.00    +0.267 C 
ATOM     32  O   UNL     1       4.141  -2.172  27.661  0.00  0.00    -0.268 OA
ATOM     33  H   UNL     1       2.933  -4.588  26.011  0.00  0.00    +0.155 HD
BRANCH  31  34
ATOM     34  C   UNL     1       5.173  -3.031  25.708  0.00  0.00    +0.135 C 
ATOM     35  C   UNL     1       5.430  -4.094  24.887  0.00  0.00    +0.024 C 
ATOM     36  C   UNL     1       6.456  -4.061  23.931  0.00  0.00    +0.003 C 
ATOM     37  C   UNL     1       7.217  -2.923  23.825  0.00  0.00    +0.021 C 
ATOM     38  C   UNL     1       6.944  -1.861  24.659  0.00  0.00    +0.099 C 
ATOM     39  N   UNL     1       5.941  -1.938  25.569  0.00  0.00    -0.239 NA
ENDBRANCH  31  34
ENDBRANCH   3  30
BRANCH   4  40
ATOM     40  C   UNL     1       0.877  -2.334  26.258  0.00  0.00    +0.017 C 
ATOM     41  C   UNL     1       1.162  -1.121  25.923  0.00  0.00    +0.064 C 
BRANCH  41  42
ATOM     42  N   UNL     1       1.024  -0.730  24.520  0.00  0.00    -0.276 N 
ATOM     43  C   UNL     1       2.145  -0.080  23.937  0.00  0.00    +0.304 C 
ATOM     44  O   UNL     1       3.187   0.127  24.641  0.00  0.00    -0.265 OA
ATOM     45  H   UNL     1       0.202  -0.907  24.009  0.00  0.00    +0.155 HD
ENDBRANCH  41  42
ENDBRANCH   4  40
BRANCH   6  46
ATOM     46  O   UNL     1      -0.811  -3.697  30.701  0.00  0.00    -0.505 OA
ATOM     47  H   UNL     1      -0.812  -2.997  31.322  0.00  0.00    +0.292 HD
ENDBRANCH   6  46
BRANCH   5  48
ATOM     48  C   UNL     1      -1.307  -2.245  28.289  0.00  0.00    +0.237 C 
ATOM     49  O   UNL     1      -1.778  -1.440  29.162  0.00  0.00    -0.283 OA
ENDBRANCH   5  48
BRANCH   2  50
ATOM     50  O   UNL     1       3.298  -5.354  29.034  0.00  0.00    -0.504 OA
ATOM     51  H   UNL     1       3.516  -5.719  29.869  0.00  0.00    +0.292 HD
ENDBRANCH   2  50
TORSDOF 11
ENDMDL
