MODEL 1
REMARK VINA RESULT:    -8.162      0.000      0.000
REMARK INTER + INTRA:         -12.563
REMARK INTER:                 -11.024
REMARK INTRA:                  -1.539
REMARK UNBOUND:                -1.539
REMARK  Name = =
REMARK  7 active torsions:
REMARK  status: ('A' for Active; 'I' for Inactive)
REMARK    1  A    between atoms: C_1  and  C_8
REMARK    2  A    between atoms: C_1  and  C_36
REMARK    3  A    between atoms: C_7  and  C_26
REMARK    4  A    between atoms: C_32  and  N_33
REMARK    5  A    between atoms: C_39  and  C_45
REMARK    6  A    between atoms: C_40  and  S_44
REMARK    7  A    between atoms: C_45  and  O_47
REMARK                            x       y       z     vdW  Elec       q    Type
REMARK                         _______ _______ _______ _____ _____    ______ ____
ROOT
ATOM      1  C   UNL     1       3.104  -4.552  27.239  0.00  0.00    +0.031 C 
ATOM      2  C   UNL     1       4.254  -4.524  28.281  0.00  0.00    +0.089 C 
ATOM      3  N   UNL     1       5.451  -4.151  27.563  0.00  0.00    -0.218 NA
ATOM      4  C   UNL     1       5.699  -2.798  27.299  0.00  0.00    +0.089 C 
ATOM      5  C   UNL     1       5.289  -2.469  25.857  0.00  0.00    +0.019 C 
ATOM      6  C   UNL     1       3.884  -2.870  25.572  0.00  0.00    +0.008 C 
ATOM      7  C   UNL     1       3.040  -3.058  26.855  0.00  0.00    +0.045 C 
ENDROOT
BRANCH   1   8
ATOM      8  C   UNL     1       1.912  -5.072  27.930  0.00  0.00    +0.002 C 
ATOM      9  C   UNL     1       0.767  -5.584  27.143  0.00  0.00    +0.000 C 
ATOM     10  C   UNL     1      -0.263  -6.253  28.075  0.00  0.00    +0.000 C 
ATOM     11  C   UNL     1      -0.652  -5.401  29.236  0.00  0.00    +0.001 C 
ATOM     12  C   UNL     1      -1.546  -6.071  30.195  0.00  0.00    +0.012 C 
ATOM     13  C   UNL     1      -2.442  -5.029  30.827  0.00  0.00    +0.057 C 
ATOM     14  C   UNL     1      -3.260  -5.507  31.969  0.00  0.00    +0.120 C 
ATOM     15  O   UNL     1      -4.121  -6.112  31.054  0.00  0.00    -0.356 OA
ATOM     16  C   UNL     1      -3.810  -5.090  30.162  0.00  0.00    +0.142 C 
ATOM     17  C   UNL     1      -2.576  -6.446  32.914  0.00  0.00    +0.030 C 
ATOM     18  C   UNL     1      -1.927  -7.577  32.145  0.00  0.00    +0.010 C 
ATOM     19  C   UNL     1      -0.982  -7.041  31.133  0.00  0.00    +0.058 C 
ATOM     20  C   UNL     1       0.390  -6.840  31.613  0.00  0.00    +0.150 C 
ATOM     21  O   UNL     1       0.573  -6.307  32.669  0.00  0.00    -0.296 OA
ATOM     22  C   UNL     1       1.703  -7.229  30.934  0.00  0.00    +0.064 C 
ATOM     23  C   UNL     1       1.459  -6.926  29.509  0.00  0.00    +0.007 C 
ATOM     24  C   UNL     1       2.219  -5.926  29.135  0.00  0.00    +0.001 C 
ATOM     25  C   UNL     1       0.486  -7.515  28.532  0.00  0.00    +0.000 C 
ENDBRANCH   1   8
BRANCH   7  26
ATOM     26  C   UNL     1       1.729  -2.511  26.549  0.00  0.00    +0.098 C 
ATOM     27  N   UNL     1       1.298  -2.566  25.250  0.00  0.00    -0.182 NA
ATOM     28  N   UNL     1       0.151  -2.172  24.807  0.00  0.00    -0.203 N 
ATOM     29  C   UNL     1      -0.726  -1.655  25.679  0.00  0.00    +0.266 C 
ATOM     30  O   UNL     1      -1.849  -1.265  25.294  0.00  0.00    -0.268 OA
ATOM     31  C   UNL     1      -0.400  -1.551  27.002  0.00  0.00    +0.085 C 
ATOM     32  C   UNL     1       0.836  -1.980  27.443  0.00  0.00    +0.162 C 
ATOM     33  H   UNL     1      -0.073  -2.248  23.851  0.00  0.00    +0.178 HD
BRANCH  32  34
ATOM     34  N   UNL     1       1.137  -1.769  28.824  0.00  0.00    +0.059 N 
ATOM     35  O   UNL     1       0.612  -2.442  29.874  0.00  0.00    -0.126 OA
ATOM     36  O   UNL     1       1.960  -0.871  29.087  0.00  0.00    -0.126 OA
ENDBRANCH  32  34
ENDBRANCH   7  26
BRANCH   1  37
ATOM     37  C   UNL     1       3.667  -5.378  26.150  0.00  0.00    +0.098 C 
ATOM     38  C   UNL     1       3.774  -6.833  26.434  0.00  0.00    +0.093 C 
ATOM     39  N   UNL     1       3.800  -6.941  24.946  0.00  0.00    -0.254 N 
ATOM     40  C   UNL     1       4.558  -8.084  24.606  0.00  0.00    +0.131 C 
ATOM     41  C   UNL     1       5.327  -8.443  25.622  0.00  0.00    +0.021 C 
ATOM     42  C   UNL     1       5.079  -7.468  26.757  0.00  0.00    +0.054 C 
ATOM     43  C   UNL     1       3.015  -5.766  24.946  0.00  0.00    +0.231 C 
ATOM     44  O   UNL     1       2.139  -5.459  24.057  0.00  0.00    -0.274 OA
BRANCH  41  45
ATOM     45  S   UNL     1       6.468  -9.789  25.737  0.00  0.00    -0.144 S 
ATOM     46  H   UNL     1       7.739  -9.316  25.639  0.00  0.00    +0.107 HD
ENDBRANCH  41  45
BRANCH  40  47
ATOM     47  C   UNL     1       4.534  -8.793  23.333  0.00  0.00    +0.352 C 
ATOM     48  O   UNL     1       3.784  -9.778  23.158  0.00  0.00    -0.244 OA
BRANCH  47  49
ATOM     49  O   UNL     1       5.340  -8.419  22.251  0.00  0.00    -0.476 OA
ATOM     50  H   UNL     1       4.947  -8.187  21.432  0.00  0.00    +0.295 HD
ENDBRANCH  47  49
ENDBRANCH  40  47
ENDBRANCH   1  37
TORSDOF 7
ENDMDL
