MODEL 1
REMARK VINA RESULT:    -9.162      0.000      0.000
REMARK INTER + INTRA:         -14.272
REMARK INTER:                 -11.839
REMARK INTRA:                  -2.433
REMARK UNBOUND:                -2.433
REMARK  Name = =
REMARK  5 active torsions:
REMARK  status: ('A' for Active; 'I' for Inactive)
REMARK    1  A    between atoms: S_1  and  C_28
REMARK    2  A    between atoms: C_4  and  C_32
REMARK    3  A    between atoms: C_5  and  N_6
REMARK    4  A    between atoms: C_11  and  C_14
REMARK    5  A    between atoms: C_32  and  C_34
REMARK                            x       y       z     vdW  Elec       q    Type
REMARK                         _______ _______ _______ _____ _____    ______ ____
ROOT
ATOM      1  S   UNL     1       3.691  -5.357  26.150  0.00  0.00    -0.165 S 
ATOM      2  C   UNL     1       4.030  -4.199  24.699  0.00  0.00    +0.011 C 
ATOM      3  C   UNL     1       3.363  -3.154  24.997  0.00  0.00    -0.011 C 
ATOM      4  C   UNL     1       2.602  -3.065  26.183  0.00  0.00    +0.112 C 
ATOM      5  C   UNL     1       2.597  -4.114  26.967  0.00  0.00    +0.130 C 
ATOM      6  H   UNL     1       4.696  -5.879  26.904  0.00  0.00    +0.094 HD
ENDROOT
BRANCH   5   7
ATOM      7  N   UNL     1       1.910  -4.587  28.080  0.00  0.00    -0.220 N 
ATOM      8  C   UNL     1       2.603  -4.886  29.350  0.00  0.00    +0.250 C 
ATOM      9  O   UNL     1       3.807  -4.867  29.437  0.00  0.00    -0.273 OA
ATOM     10  C   UNL     1       1.681  -5.205  30.484  0.00  0.00    +0.175 C 
ATOM     11  N   UNL     1       0.485  -4.437  30.439  0.00  0.00    -0.200 NA
ATOM     12  C   UNL     1      -0.272  -4.478  29.242  0.00  0.00    +0.157 C 
ATOM     13  C   UNL     1       0.547  -4.964  28.123  0.00  0.00    +0.248 C 
ATOM     14  O   UNL     1       0.112  -5.717  27.175  0.00  0.00    -0.273 OA
BRANCH  12  15
ATOM     15  C   UNL     1      -1.565  -5.245  29.397  0.00  0.00    +0.087 C 
ATOM     16  C   UNL     1      -2.531  -4.374  30.176  0.00  0.00    +0.014 C 
ATOM     17  C   UNL     1      -3.813  -5.118  30.510  0.00  0.00    +0.027 C 
ATOM     18  C   UNL     1      -3.431  -6.190  31.460  0.00  0.00    -0.019 C 
ATOM     19  C   UNL     1      -2.260  -6.870  31.210  0.00  0.00    +0.031 C 
ATOM     20  C   UNL     1      -1.837  -7.878  32.046  0.00  0.00    +0.003 C 
ATOM     21  C   UNL     1      -2.577  -8.231  33.157  0.00  0.00    +0.000 C 
ATOM     22  C   UNL     1      -3.746  -7.556  33.411  0.00  0.00    -0.000 C 
ATOM     23  C   UNL     1      -4.167  -6.541  32.564  0.00  0.00    -0.004 C 
ATOM     24  C   UNL     1      -1.421  -6.548  30.047  0.00  0.00    +0.174 C 
ATOM     25  O   UNL     1      -0.600  -7.405  29.636  0.00  0.00    -0.291 OA
ENDBRANCH  12  15
ENDBRANCH   5   7
BRANCH   1  29
ATOM     26  O   UNL     1       2.046  -8.972  25.772  0.00  0.00    -0.421 OA
ATOM     27  C   UNL     1       2.652  -7.954  26.488  0.00  0.00    +0.350 C 
ATOM     28  O   UNL     1       2.898  -8.050  27.725  0.00  0.00    -0.244 OA
ATOM     29  C   UNL     1       2.928  -6.833  25.606  0.00  0.00    +0.090 C 
ATOM     30  C   UNL     1       2.501  -7.191  24.429  0.00  0.00    +0.049 C 
ATOM     31  C   UNL     1       1.928  -8.536  24.461  0.00  0.00    +0.150 C 
ATOM     32  C   UNL     1       1.400  -9.239  23.492  0.00  0.00    +0.041 C 
ENDBRANCH   1  29
BRANCH   4  33
ATOM     33  C   UNL     1       2.004  -1.796  26.645  0.00  0.00    +0.179 C 
ATOM     34  O   UNL     1       2.695  -0.725  26.750  0.00  0.00    -0.291 OA
BRANCH  33  35
ATOM     35  C   UNL     1       0.630  -1.596  27.021  0.00  0.00    +0.035 C 
ATOM     36  C   UNL     1      -0.380  -2.039  26.149  0.00  0.00    +0.003 C 
ATOM     37  C   UNL     1      -1.715  -1.977  26.473  0.00  0.00    +0.000 C 
ATOM     38  C   UNL     1      -2.118  -1.469  27.690  0.00  0.00    +0.000 C 
ATOM     39  C   UNL     1      -1.171  -1.032  28.563  0.00  0.00    +0.000 C 
ATOM     40  C   UNL     1       0.188  -1.107  28.209  0.00  0.00    +0.003 C 
ENDBRANCH  33  35
ENDBRANCH   4  33
TORSDOF 5
ENDMDL
