REMARK  Name = =
REMARK  5 active torsions:
REMARK  status: ('A' for Active; 'I' for Inactive)
REMARK    1  A    between atoms: S_1  and  C_28
REMARK    2  A    between atoms: C_4  and  C_32
REMARK    3  A    between atoms: C_5  and  N_6
REMARK    4  A    between atoms: C_11  and  C_14
REMARK    5  A    between atoms: C_32  and  C_34
REMARK                            x       y       z     vdW  Elec       q    Type
REMARK                         _______ _______ _______ _____ _____    ______ ____
ROOT
ATOM      1  S   UNL     1       4.460  -5.761  17.129  0.00  0.00    -0.165 S 
ATOM      2  C   UNL     1       3.445  -6.963  16.086  0.00  0.00    +0.011 C 
ATOM      3  C   UNL     1       2.426  -7.194  16.816  0.00  0.00    -0.011 C 
ATOM      4  C   UNL     1       2.265  -6.599  18.086  0.00  0.00    +0.112 C 
ATOM      5  C   UNL     1       3.220  -5.802  18.496  0.00  0.00    +0.130 C 
ATOM      6  H   UNL     1       4.822  -4.535  16.666  0.00  0.00    +0.094 HD
ENDROOT
BRANCH   5   7
ATOM      7  N   UNL     1       3.618  -5.157  19.662  0.00  0.00    -0.220 N 
ATOM      8  C   UNL     1       3.629  -3.684  19.768  0.00  0.00    +0.250 C 
ATOM      9  O   UNL     1       3.428  -2.976  18.811  0.00  0.00    -0.273 OA
ATOM     10  C   UNL     1       3.907  -3.177  21.148  0.00  0.00    +0.175 C 
ATOM     11  N   UNL     1       3.330  -4.002  22.152  0.00  0.00    -0.200 NA
ATOM     12  C   UNL     1       3.650  -5.382  22.126  0.00  0.00    +0.157 C 
ATOM     13  C   UNL     1       4.173  -5.772  20.809  0.00  0.00    +0.248 C 
ATOM     14  O   UNL     1       5.109  -6.634  20.623  0.00  0.00    -0.273 OA
BRANCH  12  15
ATOM     15  C   UNL     1       4.561  -5.789  23.261  0.00  0.00    +0.087 C 
ATOM     16  C   UNL     1       3.712  -6.472  24.316  0.00  0.00    +0.014 C 
ATOM     17  C   UNL     1       4.516  -6.788  25.565  0.00  0.00    +0.027 C 
ATOM     18  C   UNL     1       4.875  -5.481  26.166  0.00  0.00    -0.019 C 
ATOM     19  C   UNL     1       5.261  -4.475  25.309  0.00  0.00    +0.031 C 
ATOM     20  C   UNL     1       5.608  -3.233  25.789  0.00  0.00    +0.003 C 
ATOM     21  C   UNL     1       5.577  -2.966  27.144  0.00  0.00    +0.000 C 
ATOM     22  C   UNL     1       5.193  -3.966  28.003  0.00  0.00    -0.000 C 
ATOM     23  C   UNL     1       4.844  -5.216  27.512  0.00  0.00    -0.004 C 
ATOM     24  C   UNL     1       5.317  -4.687  23.855  0.00  0.00    +0.174 C 
ATOM     25  O   UNL     1       6.019  -3.914  23.157  0.00  0.00    -0.291 OA
ENDBRANCH  12  15
ENDBRANCH   5   7
BRANCH   1  29
ATOM     26  O   UNL     1       8.238  -6.433  18.224  0.00  0.00    -0.421 OA
ATOM     27  C   UNL     1       7.117  -5.637  18.058  0.00  0.00    +0.350 C 
ATOM     28  O   UNL     1       7.102  -4.414  18.380  0.00  0.00    -0.244 OA
ATOM     29  C   UNL     1       6.039  -6.423  17.485  0.00  0.00    +0.090 C 
ATOM     30  C   UNL     1       6.518  -7.624  17.325  0.00  0.00    +0.049 C 
ATOM     31  C   UNL     1       7.908  -7.702  17.774  0.00  0.00    +0.150 C 
ATOM     32  C   UNL     1       8.725  -8.724  17.776  0.00  0.00    +0.041 C 
ENDBRANCH   1  29
BRANCH   4  33
ATOM     33  C   UNL     1       1.000  -6.686  18.845  0.00  0.00    +0.179 C 
ATOM     34  O   UNL     1       0.971  -7.079  20.062  0.00  0.00    -0.291 OA
BRANCH  33  35
ATOM     35  C   UNL     1      -0.309  -6.356  18.348  0.00  0.00    +0.035 C 
ATOM     36  C   UNL     1      -1.301  -7.352  18.344  0.00  0.00    +0.003 C 
ATOM     37  C   UNL     1      -2.602  -7.097  17.980  0.00  0.00    +0.000 C 
ATOM     38  C   UNL     1      -2.988  -5.829  17.599  0.00  0.00    +0.000 C 
ATOM     39  C   UNL     1      -2.058  -4.837  17.591  0.00  0.00    +0.000 C 
ATOM     40  C   UNL     1      -0.734  -5.122  17.969  0.00  0.00    +0.003 C 
ENDBRANCH  33  35
ENDBRANCH   4  33
TORSDOF 5
