MODEL 1
REMARK VINA RESULT:   -11.429      0.000      0.000
REMARK INTER + INTRA:         -12.367
REMARK INTER:                 -12.765
REMARK INTRA:                   0.398
REMARK UNBOUND:                 0.398
REMARK  Name = =
REMARK  2 active torsions:
REMARK  status: ('A' for Active; 'I' for Inactive)
REMARK    1  A    between atoms: C_1  and  O_15
REMARK    2  A    between atoms: O_15  and  C_25
REMARK                            x       y       z     vdW  Elec       q    Type
REMARK                         _______ _______ _______ _____ _____    ______ ____
ROOT
ATOM      1  C   UNL     1      51.598 155.058  28.217  0.00  0.00    +0.152 C 
ATOM      2  C   UNL     1      51.504 153.677  28.089  0.00  0.00    +0.057 C 
ATOM      3  C   UNL     1      52.232 153.018  27.114  0.00  0.00    +0.084 C 
ATOM      4  N   UNL     1      52.115 151.673  27.022  0.00  0.00    -0.244 NA
ATOM      5  C   UNL     1      52.801 150.981  26.091  0.00  0.00    +0.099 C 
ATOM      6  C   UNL     1      53.634 151.649  25.217  0.00  0.00    +0.099 C 
ATOM      7  N   UNL     1      54.314 150.949  24.291  0.00  0.00    -0.242 NA
ATOM      8  C   UNL     1      54.222 149.610  24.171  0.00  0.00    +0.099 C 
ATOM      9  C   UNL     1      53.399 148.899  25.025  0.00  0.00    +0.022 C 
ATOM     10  C   UNL     1      52.690 149.601  25.985  0.00  0.00    +0.022 C 
ATOM     11  C   UNL     1      53.757 153.027  25.308  0.00  0.00    +0.022 C 
ATOM     12  C   UNL     1      53.052 153.738  26.266  0.00  0.00    +0.019 C 
ATOM     13  C   UNL     1      53.155 155.114  26.379  0.00  0.00    +0.005 C 
ATOM     14  C   UNL     1      52.417 155.772  27.367  0.00  0.00    +0.038 C 
ENDROOT
BRANCH   1  15
ATOM     15  O   UNL     1      50.874 155.736  29.190  0.00  0.00    -0.410 OA
BRANCH  15  25
ATOM     16  N   UNL     1      49.464 160.189  30.779  0.00  0.00    -0.264 N 
ATOM     17  C   UNL     1      49.939 161.514  31.170  0.00  0.00    +0.095 C 
ATOM     18  C   UNL     1      48.868 162.126  32.054  0.00  0.00    +0.022 C 
ATOM     19  C   UNL     1      48.291 161.136  33.011  0.00  0.00    +0.004 C 
ATOM     20  C   UNL     1      47.505 160.081  32.245  0.00  0.00    +0.022 C 
ATOM     21  C   UNL     1      48.056 159.953  30.831  0.00  0.00    +0.095 C 
ATOM     22  C   UNL     1      50.451 159.245  30.378  0.00  0.00    +0.312 C 
ATOM     23  O   UNL     1      51.685 159.547  30.361  0.00  0.00    -0.252 OA
ATOM     24  N   UNL     1      50.134 157.922  29.975  0.00  0.00    -0.205 N 
ATOM     25  C   UNL     1      51.185 157.028  29.585  0.00  0.00    +0.413 C 
ATOM     26  O   UNL     1      52.398 157.360  29.580  0.00  0.00    -0.226 OA
ATOM     27  H   UNL     1      49.197 157.618  29.963  0.00  0.00    +0.162 HD
ENDBRANCH  15  25
ENDBRANCH   1  15
TORSDOF 2
ENDMDL
