REMARK  Name = =
REMARK  10 active torsions:
REMARK  status: ('A' for Active; 'I' for Inactive)
REMARK    1  A    between atoms: C_1  and  C_7
REMARK    2  A    between atoms: C_1  and  C_27
REMARK    3  A    between atoms: C_2  and  C_38
REMARK    4  A    between atoms: C_6  and  C_35
REMARK    5  A    between atoms: C_8  and  C_17
REMARK    6  A    between atoms: C_17  and  O_22
REMARK    7  A    between atoms: O_22  and  C_23
REMARK    8  A    between atoms: N_25  and  O_26
REMARK    9  A    between atoms: C_35  and  O_37
REMARK   10  A    between atoms: C_38  and  O_40
REMARK                            x       y       z     vdW  Elec       q    Type
REMARK                         _______ _______ _______ _____ _____    ______ ____
ROOT
ATOM      1  C   UNL     1     -12.957 -43.654  31.658  0.00  0.00    +0.082 C 
ATOM      2  C   UNL     1     -13.393 -42.427  32.424  0.00  0.00    +0.075 C 
ATOM      3  C   UNL     1     -14.316 -42.299  33.269  0.00  0.00    +0.065 C 
ATOM      4  N   UNL     1     -15.152 -43.375  33.645  0.00  0.00    -0.311 N 
ATOM      5  C   UNL     1     -14.842 -44.568  32.979  0.00  0.00    +0.065 C 
ATOM      6  C   UNL     1     -13.909 -44.744  32.109  0.00  0.00    +0.075 C 
ATOM      7  H   UNL     1     -15.877 -43.294  34.306  0.00  0.00    +0.152 HD
ENDROOT
BRANCH   1   8
ATOM      8  C   UNL     1     -13.211 -43.320  30.268  0.00  0.00    -0.011 C 
ATOM      9  C   UNL     1     -12.752 -43.990  29.189  0.00  0.00    +0.056 C 
ATOM     10  C   UNL     1     -13.442 -43.937  27.997  0.00  0.00    +0.083 C 
ATOM     11  N   UNL     1     -13.138 -44.601  26.876  0.00  0.00    -0.244 NA
ATOM     12  C   UNL     1     -13.819 -44.593  25.726  0.00  0.00    +0.099 C 
ATOM     13  C   UNL     1     -14.962 -43.855  25.587  0.00  0.00    +0.021 C 
ATOM     14  C   UNL     1     -15.345 -43.138  26.706  0.00  0.00    +0.003 C 
ATOM     15  C   UNL     1     -14.614 -43.175  27.871  0.00  0.00    +0.018 C 
ATOM     16  C   UNL     1     -15.076 -42.479  28.947  0.00  0.00    +0.001 C 
ATOM     17  C   UNL     1     -14.399 -42.541  30.128  0.00  0.00    -0.004 C 
BRANCH   9  18
ATOM     18  C   UNL     1     -11.356 -44.428  29.107  0.00  0.00    +0.282 C 
ATOM     19  N   UNL     1     -10.572 -44.948  30.051  0.00  0.00    -0.206 NA
ATOM     20  C   UNL     1      -9.914 -46.000  29.722  0.00  0.00    +0.198 C 
ATOM     21  N   UNL     1     -10.261 -46.259  28.385  0.00  0.00    -0.221 NA
ATOM     22  C   UNL     1     -11.121 -45.341  27.960  0.00  0.00    +0.142 C 
BRANCH  18  23
ATOM     23  O   UNL     1     -10.717 -43.202  28.602  0.00  0.00    -0.410 OA
BRANCH  23  24
ATOM     24  C   UNL     1      -9.395 -43.061  28.371  0.00  0.00    +0.426 C 
ATOM     25  O   UNL     1      -8.570 -43.851  28.892  0.00  0.00    -0.224 OA
ATOM     26  N   UNL     1      -8.846 -42.033  27.536  0.00  0.00    -0.163 N 
ATOM     27  H   UNL     1      -9.436 -41.380  27.095  0.00  0.00    +0.186 HD
BRANCH  26  28
ATOM     28  O   UNL     1      -7.509 -41.974  27.364  0.00  0.00    -0.293 OA
ATOM     29  H   UNL     1      -7.086 -42.688  27.867  0.00  0.00    +0.241 HD
ENDBRANCH  26  28
ENDBRANCH  23  24
ENDBRANCH  18  23
ENDBRANCH   9  18
ENDBRANCH   1   8
BRANCH   1  30
ATOM     30  C   UNL     1     -11.611 -43.920  32.165  0.00  0.00    +0.117 C 
ATOM     31  C   UNL     1     -10.389 -43.198  31.877  0.00  0.00    +0.133 C 
ATOM     32  S   UNL     1      -8.796 -44.147  31.997  0.00  0.00    -0.119 S 
ATOM     33  C   UNL     1      -7.899 -42.922  33.040  0.00  0.00    +0.081 C 
ATOM     34  C   UNL     1      -8.983 -41.841  33.182  0.00  0.00    +0.106 C 
ATOM     35  N   UNL     1     -10.246 -42.596  33.212  0.00  0.00    -0.271 N 
ATOM     36  C   UNL     1     -11.447 -43.203  33.555  0.00  0.00    +0.229 C 
ATOM     37  O   UNL     1     -12.127 -43.172  34.603  0.00  0.00    -0.275 OA
ENDBRANCH   1  30
BRANCH   6  38
ATOM     38  C   UNL     1     -13.836 -46.119  31.527  0.00  0.00    +0.336 C 
ATOM     39  O   UNL     1     -13.229 -46.534  30.585  0.00  0.00    -0.245 OA
BRANCH  38  40
ATOM     40  O   UNL     1     -14.610 -47.126  32.183  0.00  0.00    -0.477 OA
ATOM     41  H   UNL     1     -15.124 -46.906  32.935  0.00  0.00    +0.295 HD
ENDBRANCH  38  40
ENDBRANCH   6  38
BRANCH   2  42
ATOM     42  C   UNL     1     -12.667 -41.156  32.086  0.00  0.00    +0.336 C 
ATOM     43  O   UNL     1     -11.845 -41.039  31.179  0.00  0.00    -0.245 OA
BRANCH  42  44
ATOM     44  O   UNL     1     -12.920 -40.022  32.829  0.00  0.00    -0.477 OA
ATOM     45  H   UNL     1     -13.537 -40.051  33.533  0.00  0.00    +0.295 HD
ENDBRANCH  42  44
ENDBRANCH   2  42
TORSDOF 10
