REMARK  Name = =
REMARK  5 active torsions:
REMARK  status: ('A' for Active; 'I' for Inactive)
REMARK    1  A    between atoms: S_1  and  C_3
REMARK    2  A    between atoms: S_1  and  S_18
REMARK    3  A    between atoms: S_1  and  O_19
REMARK    4  A    between atoms: O_19  and  C_20
REMARK    5  A    between atoms: C_21  and  S_30
REMARK                            x       y       z     vdW  Elec       q    Type
REMARK                         _______ _______ _______ _____ _____    ______ ____
ROOT
ATOM      1  S   UNL     1     -13.047 -42.598  27.342  0.00  0.00    -0.014 S 
ATOM      2  H   UNL     1     -12.846 -41.472  28.078  0.00  0.00    +0.136 HD
ENDROOT
BRANCH   1   4
ATOM      3 BR   UNL     1     -12.775 -45.554  27.398  0.00  0.00    -0.039 Br
ATOM      4  C   UNL     1     -12.169 -43.877  28.148  0.00  0.00    +0.201 C 
ATOM      5  O   UNL     1     -10.800 -43.788  27.929  0.00  0.00    -0.335 OA
ATOM      6  C   UNL     1     -10.286 -42.551  28.306  0.00  0.00    +0.176 C 
ATOM      7  C   UNL     1     -10.730 -42.132  29.682  0.00  0.00    +0.174 C 
ATOM      8  O   UNL     1      -9.715 -41.548  30.421  0.00  0.00    -0.326 OA
ATOM      9  C   UNL     1      -8.850 -42.439  30.990  0.00  0.00    +0.264 C 
ATOM     10  O   UNL     1      -7.822 -42.845  30.190  0.00  0.00    -0.321 OA
ATOM     11  C   UNL     1      -7.493 -44.170  30.252  0.00  0.00    +0.209 C 
ATOM     12  C   UNL     1      -7.513 -44.750  31.610  0.00  0.00    +0.183 C 
ATOM     13  O   UNL     1      -6.639 -45.470  32.036  0.00  0.00    -0.293 OA
ATOM     14  C   UNL     1      -8.665 -44.430  32.492  0.00  0.00    +0.102 C 
ATOM     15  C   UNL     1      -9.574 -43.509  31.721  0.00  0.00    +0.179 C 
ATOM     16  O   UNL     1     -10.474 -44.188  30.911  0.00  0.00    -0.350 OA
ATOM     17  C   UNL     1     -11.390 -43.250  30.446  0.00  0.00    +0.149 C 
ATOM     18  C   UNL     1     -12.475 -43.874  29.612  0.00  0.00    +0.083 C 
ENDBRANCH   1   4
BRANCH   1  19
ATOM     19  S   UNL     1     -12.661 -42.155  25.826  0.00  0.00    -0.094 S 
ATOM     20  H   UNL     1     -12.825 -43.214  24.989  0.00  0.00    +0.115 HD
ENDBRANCH   1  19
BRANCH   1  21
ATOM     21  O   UNL     1     -14.540 -43.308  27.162  0.00  0.00    -0.435 OA
BRANCH  21  22
ATOM     22  C   UNL     1     -15.504 -42.857  26.278  0.00  0.00    +0.170 C 
ATOM     23  C   UNL     1     -16.666 -42.300  26.754  0.00  0.00    +0.137 C 
ATOM     24  C   UNL     1     -17.654 -41.837  25.909  0.00  0.00    +0.020 C 
ATOM     25  C   UNL     1     -17.497 -41.922  24.546  0.00  0.00    +0.001 C 
ATOM     26  C   UNL     1     -16.325 -42.483  24.069  0.00  0.00    +0.003 C 
ATOM     27  C   UNL     1     -15.344 -42.943  24.914  0.00  0.00    +0.040 C 
ATOM     28  C   UNL     1     -18.448 -41.477  23.649  0.00  0.00    +0.000 C 
ATOM     29  C   UNL     1     -19.602 -40.924  24.159  0.00  0.00    +0.000 C 
ATOM     30  C   UNL     1     -19.808 -40.816  25.536  0.00  0.00    +0.000 C 
ATOM     31  C   UNL     1     -18.824 -41.277  26.387  0.00  0.00    +0.001 C 
BRANCH  23  32
ATOM     32  S   UNL     1     -16.911 -42.171  28.480  0.00  0.00    -0.009 S 
ATOM     33  O   UNL     1     -18.220 -42.882  28.788  0.00  0.00    -0.172 OA
ATOM     34  O   UNL     1     -17.009 -40.713  28.820  0.00  0.00    -0.172 OA
ATOM     35  H   UNL     1     -15.899 -42.726  29.199  0.00  0.00    +0.215 HD
ENDBRANCH  23  32
ENDBRANCH  21  22
ENDBRANCH   1  21
TORSDOF 5
