MODEL 1
REMARK VINA RESULT:    -8.128      0.000      0.000
REMARK INTER + INTRA:         -12.158
REMARK INTER:                 -10.742
REMARK INTRA:                  -1.417
REMARK UNBOUND:                -1.417
REMARK  Name = =
REMARK  6 active torsions:
REMARK  status: ('A' for Active; 'I' for Inactive)
REMARK    1  A    between atoms: N_1  and  C_24
REMARK    2  A    between atoms: C_2  and  C_12
REMARK    3  A    between atoms: C_20  and  O_22
REMARK    4  A    between atoms: C_23  and  C_31
REMARK    5  A    between atoms: C_26  and  N_33
REMARK    6  A    between atoms: N_33  and  N_34
REMARK                            x       y       z     vdW  Elec       q    Type
REMARK                         _______ _______ _______ _____ _____    ______ ____
ROOT
ATOM      1  N   UNL     1      -0.064  -5.018  28.062  0.00  0.00    -0.287 N 
ATOM      2  C   UNL     1      -0.816  -4.710  29.121  0.00  0.00    +0.130 A 
ATOM      3  N   UNL     1      -0.697  -3.375  29.301  0.00  0.00    -0.213 NA
ATOM      4  C   UNL     1       0.104  -2.868  28.391  0.00  0.00    +0.166 A 
ATOM      5  C   UNL     1       0.537  -3.872  27.575  0.00  0.00    +0.156 A 
ATOM      6  C   UNL     1       1.390  -3.617  26.531  0.00  0.00    +0.280 A 
ATOM      7  O   UNL     1       1.803  -4.537  25.762  0.00  0.00    -0.265 OA
ATOM      8  N   UNL     1       1.809  -2.346  26.306  0.00  0.00    -0.273 N 
ATOM      9  C   UNL     1       1.383  -1.364  27.109  0.00  0.00    +0.328 A 
ATOM     10  O   UNL     1       1.789  -0.201  26.874  0.00  0.00    -0.247 OA
ATOM     11  N   UNL     1       0.549  -1.598  28.133  0.00  0.00    -0.291 N 
ATOM     12  H   UNL     1       2.421  -2.149  25.560  0.00  0.00    +0.173 HD
ATOM     13  H   UNL     1       0.254  -0.852  28.704  0.00  0.00    +0.172 HD
ENDROOT
BRANCH   2  14
ATOM     14  C   UNL     1      -1.563  -5.623  30.012  0.00  0.00    +0.079 C 
ATOM     15  C   UNL     1      -2.687  -4.972  30.737  0.00  0.00    +0.012 C 
ATOM     16  C   UNL     1      -3.551  -6.002  31.390  0.00  0.00    +0.005 C 
ATOM     17  C   UNL     1      -2.831  -7.260  31.767  0.00  0.00    +0.026 C 
ATOM     18  C   UNL     1      -1.368  -7.076  31.932  0.00  0.00    -0.023 C 
ATOM     19  C   UNL     1      -0.706  -6.259  31.049  0.00  0.00    -0.019 C 
ATOM     20  C   UNL     1       0.640  -6.110  31.204  0.00  0.00    -0.001 C 
ATOM     21  C   UNL     1       1.359  -6.742  32.204  0.00  0.00    +0.036 C 
ATOM     22  C   UNL     1       0.682  -7.562  33.087  0.00  0.00    +0.133 C 
ATOM     23  C   UNL     1      -0.689  -7.736  32.957  0.00  0.00    +0.032 C 
BRANCH  22  24
ATOM     24  O   UNL     1       1.320  -8.230  34.113  0.00  0.00    -0.506 OA
ATOM     25  H   UNL     1       1.552  -9.132  34.012  0.00  0.00    +0.292 HD
ENDBRANCH  22  24
ENDBRANCH   2  14
BRANCH   1  27
ATOM     26  C   UNL     1       0.535  -7.341  27.817  0.00  0.00    +0.077 C 
ATOM     27  C   UNL     1       0.103  -6.225  27.312  0.00  0.00    +0.086 C 
BRANCH  26  34
ATOM     28  N   UNL     1       1.959  -9.372  27.251  0.00  0.00    -0.260 N 
ATOM     29  C   UNL     1       2.140 -10.711  26.716  0.00  0.00    +0.174 C 
ATOM     30  C   UNL     1       3.575 -10.712  26.196  0.00  0.00    +0.093 C 
ATOM     31  I   UNL     1       3.761  -9.678  24.367  0.00  0.00    -0.072 I 
ATOM     32  C   UNL     1       4.249  -9.987  27.335  0.00  0.00    +0.035 C 
ATOM     33  C   UNL     1       3.249  -8.953  27.746  0.00  0.00    +0.096 C 
ATOM     34  C   UNL     1       0.773  -8.626  27.249  0.00  0.00    +0.252 C 
ATOM     35  O   UNL     1      -0.228  -9.193  26.650  0.00  0.00    -0.270 OA
BRANCH  29  36
ATOM     36  N   UNL     1       1.264 -11.190  25.742  0.00  0.00    -0.240 N 
ATOM     37  H   UNL     1       1.115 -10.648  24.934  0.00  0.00    +0.171 HD
BRANCH  36  38
ATOM     38  N   UNL     1       0.590 -12.402  25.862  0.00  0.00    -0.181 NA
ATOM     39  C   UNL     1       1.110 -13.503  25.494  0.00  0.00    +0.139 C 
ENDBRANCH  36  38
ENDBRANCH  29  36
ENDBRANCH  26  34
ENDBRANCH   1  27
TORSDOF 6
ENDMDL
