REMARK  Name = =
REMARK  6 active torsions:
REMARK  status: ('A' for Active; 'I' for Inactive)
REMARK    1  A    between atoms: N_1  and  C_24
REMARK    2  A    between atoms: C_2  and  C_12
REMARK    3  A    between atoms: C_20  and  O_22
REMARK    4  A    between atoms: C_23  and  C_31
REMARK    5  A    between atoms: C_26  and  N_33
REMARK    6  A    between atoms: N_33  and  N_34
REMARK                            x       y       z     vdW  Elec       q    Type
REMARK                         _______ _______ _______ _____ _____    ______ ____
ROOT
ATOM      1  N   UNL     1      -1.018  -3.340  28.996  0.00  0.00    -0.287 N 
ATOM      2  C   UNL     1      -1.113  -4.455  29.723  0.00  0.00    +0.130 A 
ATOM      3  N   UNL     1      -2.147  -4.271  30.575  0.00  0.00    -0.213 NA
ATOM      4  C   UNL     1      -2.676  -3.083  30.391  0.00  0.00    +0.166 A 
ATOM      5  C   UNL     1      -1.994  -2.445  29.396  0.00  0.00    +0.156 A 
ATOM      6  C   UNL     1      -2.343  -1.179  28.998  0.00  0.00    +0.280 A 
ATOM      7  O   UNL     1      -1.721  -0.571  28.075  0.00  0.00    -0.265 OA
ATOM      8  N   UNL     1      -3.382  -0.551  29.604  0.00  0.00    -0.273 N 
ATOM      9  C   UNL     1      -4.048  -1.179  30.580  0.00  0.00    +0.328 A 
ATOM     10  O   UNL     1      -5.003  -0.571  31.119  0.00  0.00    -0.247 OA
ATOM     11  N   UNL     1      -3.719  -2.417  30.979  0.00  0.00    -0.291 N 
ATOM     12  H   UNL     1      -3.643   0.357  29.328  0.00  0.00    +0.173 HD
ATOM     13  H   UNL     1      -4.231  -2.850  31.700  0.00  0.00    +0.172 HD
ENDROOT
BRANCH   2  14
ATOM     14  C   UNL     1      -0.226  -5.638  29.708  0.00  0.00    +0.079 C 
ATOM     15  C   UNL     1      -0.923  -6.918  30.004  0.00  0.00    +0.012 C 
ATOM     16  C   UNL     1      -0.031  -8.078  29.700  0.00  0.00    +0.005 C 
ATOM     17  C   UNL     1       1.431  -7.784  29.839  0.00  0.00    +0.026 C 
ATOM     18  C   UNL     1       1.720  -6.636  30.734  0.00  0.00    -0.023 C 
ATOM     19  C   UNL     1       0.899  -5.537  30.677  0.00  0.00    -0.019 C 
ATOM     20  C   UNL     1       1.184  -4.485  31.495  0.00  0.00    -0.001 C 
ATOM     21  C   UNL     1       2.255  -4.479  32.372  0.00  0.00    +0.036 C 
ATOM     22  C   UNL     1       3.075  -5.592  32.421  0.00  0.00    +0.133 C 
ATOM     23  C   UNL     1       2.813  -6.680  31.600  0.00  0.00    +0.032 C 
BRANCH  22  24
ATOM     24  O   UNL     1       4.164  -5.671  33.265  0.00  0.00    -0.506 OA
ATOM     25  H   UNL     1       4.370  -4.955  33.833  0.00  0.00    +0.292 HD
ENDBRANCH  22  24
ENDBRANCH   2  14
BRANCH   1  27
ATOM     26  C   UNL     1       0.458  -3.846  27.157  0.00  0.00    +0.077 C 
ATOM     27  C   UNL     1      -0.224  -2.991  27.858  0.00  0.00    +0.086 C 
BRANCH  26  34
ATOM     28  N   UNL     1       1.841  -2.528  25.477  0.00  0.00    -0.260 N 
ATOM     29  C   UNL     1       2.750  -2.434  24.348  0.00  0.00    +0.174 C 
ATOM     30  C   UNL     1       2.370  -1.118  23.674  0.00  0.00    +0.093 C 
ATOM     31  I   UNL     1       0.589  -1.280  22.556  0.00  0.00    -0.072 I 
ATOM     32  C   UNL     1       2.200  -0.255  24.900  0.00  0.00    +0.035 C 
ATOM     33  C   UNL     1       1.580  -1.174  25.905  0.00  0.00    +0.096 C 
ATOM     34  C   UNL     1       1.299  -3.702  26.016  0.00  0.00    +0.252 C 
ATOM     35  O   UNL     1       1.614  -4.790  25.383  0.00  0.00    -0.270 OA
BRANCH  29  36
ATOM     36  N   UNL     1       2.801  -3.468  23.413  0.00  0.00    -0.240 N 
ATOM     37  H   UNL     1       2.014  -3.626  22.843  0.00  0.00    +0.171 HD
BRANCH  36  38
ATOM     38  N   UNL     1       3.915  -4.286  23.250  0.00  0.00    -0.181 NA
ATOM     39  C   UNL     1       4.381  -4.571  22.102  0.00  0.00    +0.139 C 
ENDBRANCH  36  38
ENDBRANCH  29  36
ENDBRANCH  26  34
ENDBRANCH   1  27
TORSDOF 6
