MODEL 1
REMARK VINA RESULT:    -8.259      0.000      0.000
REMARK INTER + INTRA:         -17.005
REMARK INTER:                 -13.812
REMARK INTRA:                  -3.194
REMARK UNBOUND:                -3.194
REMARK  Name = =
REMARK  13 active torsions:
REMARK  status: ('A' for Active; 'I' for Inactive)
REMARK    1  A    between atoms: C_1  and  S_32
REMARK    2  A    between atoms: C_5  and  N_8
REMARK    3  A    between atoms: C_6  and  N_20
REMARK    4  A    between atoms: N_8  and  C_11
REMARK    5  A    between atoms: C_9  and  C_17
REMARK    6  A    between atoms: N_20  and  N_23
REMARK    7  A    between atoms: C_21  and  C_29
REMARK    8  A    between atoms: C_24  and  C_26
REMARK    9  A    between atoms: C_29  and  O_31
REMARK   10  A    between atoms: S_32  and  C_33
REMARK   11  A    between atoms: C_33  and  C_34
REMARK   12  A    between atoms: C_33  and  N_42
REMARK   13  A    between atoms: C_35  and  N_41
REMARK                            x       y       z     vdW  Elec       q    Type
REMARK                         _______ _______ _______ _____ _____    ______ ____
ROOT
ATOM      1  C   UNL     1      -0.433  -3.329  27.521  0.00  0.00    +0.054 C 
ATOM      2  C   UNL     1      -1.647  -3.575  28.352  0.00  0.00    +0.079 C 
ATOM      3  N   UNL     1      -1.411  -3.287  29.716  0.00  0.00    -0.295 NA
ATOM      4  C   UNL     1      -0.516  -4.082  30.449  0.00  0.00    +0.090 C 
ATOM      5  C   UNL     1      -0.181  -5.438  29.872  0.00  0.00    +0.113 C 
ATOM      6  C   UNL     1       0.369  -5.432  28.499  0.00  0.00    +0.116 C 
ATOM      7  C   UNL     1       0.786  -4.033  28.112  0.00  0.00    +0.035 C 
ATOM      8  H   UNL     1      -2.313  -3.342  30.191  0.00  0.00    +0.123 HD
ENDROOT
BRANCH   5   9
ATOM      9  N   UNL     1       0.318  -6.271  30.896  0.00  0.00    -0.249 N 
ATOM     10  C   UNL     1       1.465  -6.264  31.679  0.00  0.00    +0.304 C 
ATOM     11  O   UNL     1       1.614  -7.191  32.585  0.00  0.00    -0.265 OA
BRANCH   9  12
ATOM     12  C   UNL     1      -0.584  -7.434  31.212  0.00  0.00    +0.194 C 
ATOM     13  O   UNL     1      -1.016  -7.371  32.517  0.00  0.00    -0.338 OA
ATOM     14  C   UNL     1      -2.353  -7.586  32.722  0.00  0.00    +0.144 C 
ATOM     15  C   UNL     1      -2.948  -8.719  31.946  0.00  0.00    +0.032 C 
ATOM     16  C   UNL     1      -2.521  -8.699  30.515  0.00  0.00    +0.007 C 
ATOM     17  C   UNL     1      -1.747  -7.427  30.249  0.00  0.00    +0.051 C 
ENDBRANCH   9  12
BRANCH  10  18
ATOM     18  C   UNL     1       2.540  -5.354  31.624  0.00  0.00    +0.297 C 
ATOM     19  O   UNL     1       3.062  -4.919  30.600  0.00  0.00    -0.265 OA
ATOM     20  N   UNL     1       3.120  -4.856  32.854  0.00  0.00    -0.322 N 
ATOM     21  H   UNL     1       2.763  -5.153  33.722  0.00  0.00    +0.145 HD
ATOM     22  H   UNL     1       3.872  -4.222  32.822  0.00  0.00    +0.145 HD
ENDBRANCH  10  18
ENDBRANCH   5   9
BRANCH   6  23
ATOM     23  N   UNL     1       1.195  -6.492  28.053  0.00  0.00    -0.199 N 
ATOM     24  C   UNL     1       0.593  -7.594  27.353  0.00  0.00    +0.340 C 
ATOM     25  O   UNL     1      -0.637  -7.623  27.120  0.00  0.00    -0.261 OA
BRANCH  23  26
ATOM     26  N   UNL     1       2.552  -6.569  28.219  0.00  0.00    -0.223 N 
ATOM     27  C   UNL     1       3.513  -6.071  27.259  0.00  0.00    +0.315 C 
ATOM     28  O   UNL     1       3.099  -5.546  26.207  0.00  0.00    -0.264 OA
ATOM     29  H   UNL     1       2.894  -6.988  29.042  0.00  0.00    +0.174 HD
BRANCH  27  30
ATOM     30  C   UNL     1       4.943  -6.180  27.510  0.00  0.00    +0.298 C 
ATOM     31  O   UNL     1       5.652  -5.160  27.634  0.00  0.00    -0.265 OA
ATOM     32  N   UNL     1       5.528  -7.458  27.613  0.00  0.00    -0.322 N 
ATOM     33  H   UNL     1       4.971  -8.264  27.515  0.00  0.00    +0.145 HD
ATOM     34  H   UNL     1       6.494  -7.544  27.782  0.00  0.00    +0.145 HD
ENDBRANCH  27  30
ENDBRANCH  23  26
BRANCH  24  35
ATOM     35  C   UNL     1       1.422  -8.693  26.911  0.00  0.00    +0.394 C 
ATOM     36  O   UNL     1       1.587  -9.766  27.544  0.00  0.00    -0.240 OA
BRANCH  35  37
ATOM     37  O   UNL     1       2.128  -8.615  25.682  0.00  0.00    -0.474 OA
ATOM     38  H   UNL     1       2.132  -7.815  25.194  0.00  0.00    +0.296 HD
ENDBRANCH  35  37
ENDBRANCH  24  35
ENDBRANCH   6  23
BRANCH   1  39
ATOM     39  S   UNL     1      -0.110  -1.517  27.388  0.00  0.00    -0.186 S 
ATOM     40  H   UNL     1      -0.793  -0.903  28.392  0.00  0.00    +0.094 HD
BRANCH  39  41
ATOM     41  C   UNL     1       1.438  -1.044  27.484  0.00  0.00    +0.115 C 
BRANCH  41  42
ATOM     42  C   UNL     1       2.295  -0.897  26.312  0.00  0.00    +0.051 C 
ATOM     43  C   UNL     1       3.436  -1.666  26.216  0.00  0.00    +0.128 C 
ATOM     44  N   UNL     1       4.259  -1.554  25.141  0.00  0.00    -0.200 NA
ATOM     45  C   UNL     1       4.005  -0.703  24.132  0.00  0.00    +0.215 C 
ATOM     46  N   UNL     1       2.887   0.047  24.229  0.00  0.00    -0.213 NA
ATOM     47  C   UNL     1       2.034  -0.026  25.281  0.00  0.00    +0.102 C 
ATOM     48  N   UNL     1       4.881  -0.599  23.014  0.00  0.00    -0.327 N 
ATOM     49  H   UNL     1       5.690  -1.157  22.969  0.00  0.00    +0.145 HD
ATOM     50  H   UNL     1       4.676   0.032  22.286  0.00  0.00    +0.145 HD
BRANCH  43  51
ATOM     51  N   UNL     1       3.712  -2.562  27.270  0.00  0.00    -0.343 N 
ATOM     52  H   UNL     1       3.286  -2.436  28.149  0.00  0.00    +0.144 HD
ATOM     53  H   UNL     1       4.331  -3.315  27.127  0.00  0.00    +0.144 HD
ENDBRANCH  43  51
ENDBRANCH  41  42
BRANCH  41  54
ATOM     54  N   UNL     1       2.035  -0.757  28.755  0.00  0.00    -0.311 NA
ATOM     55  H   UNL     1       2.160   0.250  28.852  0.00  0.00    +0.120 HD
ATOM     56  H   UNL     1       2.942  -1.220  28.817  0.00  0.00    +0.120 HD
ENDBRANCH  41  54
ENDBRANCH  39  41
ENDBRANCH   1  39
TORSDOF 13
ENDMDL
