REMARK  Name = =
REMARK  0 active torsions:
REMARK  status: ('A' for Active; 'I' for Inactive)
REMARK                            x       y       z     vdW  Elec       q    Type
REMARK                         _______ _______ _______ _____ _____    ______ ____
ROOT
ATOM      1  C   UNL     1      -4.413  -4.038  30.659  0.00  0.00    +0.019 C 
ATOM      2  C   UNL     1      -3.987  -5.396  31.114  0.00  0.00    +0.089 C 
ATOM      3  N   UNL     1      -2.559  -5.536  31.267  0.00  0.00    -0.218 NA
ATOM      4  C   UNL     1      -1.907  -5.875  30.005  0.00  0.00    +0.089 C 
ATOM      5  C   UNL     1      -1.365  -4.570  29.445  0.00  0.00    +0.019 C 
ATOM      6  C   UNL     1      -2.534  -3.675  29.036  0.00  0.00    +0.002 C 
ATOM      7  C   UNL     1      -3.258  -3.154  30.257  0.00  0.00    +0.002 C 
ENDROOT
TORSDOF 0
