REMARK  Name = =
REMARK  7 active torsions:
REMARK  status: ('A' for Active; 'I' for Inactive)
REMARK    1  A    between atoms: C_1  and  C_8
REMARK    2  A    between atoms: C_1  and  C_36
REMARK    3  A    between atoms: C_7  and  C_26
REMARK    4  A    between atoms: C_32  and  N_33
REMARK    5  A    between atoms: C_39  and  C_45
REMARK    6  A    between atoms: C_40  and  S_44
REMARK    7  A    between atoms: C_45  and  O_47
REMARK                            x       y       z     vdW  Elec       q    Type
REMARK                         _______ _______ _______ _____ _____    ______ ____
ROOT
ATOM      1  C   UNL     1     -10.964  -1.092  30.595  0.00  0.00    +0.031 C 
ATOM      2  C   UNL     1      -9.949  -2.069  29.944  0.00  0.00    +0.089 C 
ATOM      3  N   UNL     1      -8.833  -2.171  30.857  0.00  0.00    -0.218 NA
ATOM      4  C   UNL     1      -8.921  -3.041  31.952  0.00  0.00    +0.089 C 
ATOM      5  C   UNL     1      -9.284  -2.247  33.215  0.00  0.00    +0.019 C 
ATOM      6  C   UNL     1     -10.511  -1.426  33.024  0.00  0.00    +0.008 C 
ATOM      7  C   UNL     1     -11.379  -1.909  31.838  0.00  0.00    +0.045 C 
ENDROOT
BRANCH   1   8
ATOM      8  C   UNL     1     -12.035  -0.867  29.608  0.00  0.00    +0.002 C 
ATOM      9  C   UNL     1     -12.004   0.337  28.748  0.00  0.00    +0.000 C 
ATOM     10  C   UNL     1     -13.104   0.250  27.670  0.00  0.00    +0.000 C 
ATOM     11  C   UNL     1     -14.451  -0.070  28.225  0.00  0.00    +0.001 C 
ATOM     12  C   UNL     1     -15.487  -0.270  27.198  0.00  0.00    +0.012 C 
ATOM     13  C   UNL     1     -16.819   0.165  27.766  0.00  0.00    +0.057 C 
ATOM     14  C   UNL     1     -18.001  -0.165  26.933  0.00  0.00    +0.120 C 
ATOM     15  O   UNL     1     -17.675   0.908  26.105  0.00  0.00    -0.356 OA
ATOM     16  C   UNL     1     -17.154   1.548  27.225  0.00  0.00    +0.142 C 
ATOM     17  C   UNL     1     -17.977  -1.508  26.270  0.00  0.00    +0.030 C 
ATOM     18  C   UNL     1     -16.669  -1.702  25.534  0.00  0.00    +0.010 C 
ATOM     19  C   UNL     1     -15.522  -1.533  26.461  0.00  0.00    +0.058 C 
ATOM     20  C   UNL     1     -15.093  -2.759  27.144  0.00  0.00    +0.150 C 
ATOM     21  O   UNL     1     -15.915  -3.479  27.634  0.00  0.00    -0.296 OA
ATOM     22  C   UNL     1     -13.675  -3.293  27.341  0.00  0.00    +0.064 C 
ATOM     23  C   UNL     1     -12.883  -2.079  27.621  0.00  0.00    +0.007 C 
ATOM     24  C   UNL     1     -12.457  -2.107  28.860  0.00  0.00    +0.001 C 
ATOM     25  C   UNL     1     -12.585  -0.882  26.769  0.00  0.00    +0.000 C 
ENDBRANCH   1   8
BRANCH   7  26
ATOM     26  C   UNL     1     -12.757  -1.783  32.280  0.00  0.00    +0.098 C 
ATOM     27  N   UNL     1     -13.456  -0.671  31.892  0.00  0.00    -0.182 NA
ATOM     28  N   UNL     1     -14.695  -0.416  32.153  0.00  0.00    -0.203 N 
ATOM     29  C   UNL     1     -15.392  -1.309  32.870  0.00  0.00    +0.266 C 
ATOM     30  O   UNL     1     -16.595  -1.104  33.142  0.00  0.00    -0.268 OA
ATOM     31  C   UNL     1     -14.793  -2.455  33.311  0.00  0.00    +0.085 C 
ATOM     32  C   UNL     1     -13.466  -2.696  33.017  0.00  0.00    +0.162 C 
ATOM     33  H   UNL     1     -15.117   0.414  31.833  0.00  0.00    +0.178 HD
BRANCH  32  34
ATOM     34  N   UNL     1     -12.886  -3.876  33.576  0.00  0.00    +0.059 N 
ATOM     35  O   UNL     1     -12.167  -3.956  34.719  0.00  0.00    -0.126 OA
ATOM     36  O   UNL     1     -13.055  -4.937  32.944  0.00  0.00    -0.126 OA
ENDBRANCH  32  34
ENDBRANCH   7  26
BRANCH   1  37
ATOM     37  C   UNL     1     -10.122   0.069  30.953  0.00  0.00    +0.098 C 
ATOM     38  C   UNL     1      -8.817   0.160  30.249  0.00  0.00    +0.093 C 
ATOM     39  N   UNL     1      -8.916   1.601  30.626  0.00  0.00    -0.254 N 
ATOM     40  C   UNL     1      -7.603   2.100  30.784  0.00  0.00    +0.131 C 
ATOM     41  C   UNL     1      -6.752   1.102  30.964  0.00  0.00    +0.021 C 
ATOM     42  C   UNL     1      -7.541  -0.192  30.926  0.00  0.00    +0.054 C 
ATOM     43  C   UNL     1     -10.316   1.421  30.555  0.00  0.00    +0.231 C 
ATOM     44  O   UNL     1     -11.164   2.329  30.227  0.00  0.00    -0.274 OA
BRANCH  41  45
ATOM     45  S   UNL     1      -5.002   1.159  31.213  0.00  0.00    -0.144 S 
ATOM     46  H   UNL     1      -4.584   2.453  31.198  0.00  0.00    +0.107 HD
ENDBRANCH  41  45
BRANCH  40  47
ATOM     47  C   UNL     1      -7.200   3.500  30.766  0.00  0.00    +0.352 C 
ATOM     48  O   UNL     1      -6.497   3.956  29.839  0.00  0.00    -0.244 OA
BRANCH  47  49
ATOM     49  O   UNL     1      -7.570   4.400  31.773  0.00  0.00    -0.476 OA
ATOM     50  H   UNL     1      -8.097   4.109  32.491  0.00  0.00    +0.295 HD
ENDBRANCH  47  49
ENDBRANCH  40  47
ENDBRANCH   1  37
TORSDOF 7
