REMARK  Name = =
REMARK  0 active torsions:
REMARK  status: ('A' for Active; 'I' for Inactive)
REMARK                            x       y       z     vdW  Elec       q    Type
REMARK                         _______ _______ _______ _____ _____    ______ ____
ROOT
ATOM      1  O   UNL     1      -4.784  -3.718  30.064  0.00  0.00    -0.348 OA
ATOM      2  C   UNL     1      -4.710  -2.878  31.143  0.00  0.00    +0.174 C 
ATOM      3  C   UNL     1      -3.543  -4.120  29.588  0.00  0.00    +0.174 C 
ENDROOT
TORSDOF 0
