REMARK  Name = =
REMARK  2 active torsions:
REMARK  status: ('A' for Active; 'I' for Inactive)
REMARK    1  A    between atoms: C_1  and  C_10
REMARK    2  A    between atoms: C_10  and  O_11
REMARK                            x       y       z     vdW  Elec       q    Type
REMARK                         _______ _______ _______ _____ _____    ______ ____
ROOT
ATOM      1  C   UNL     1      -2.533  -3.728  29.155  0.00  0.00    +0.196 C 
ATOM      2  O   UNL     1      -2.176  -2.391  29.318  0.00  0.00    -0.474 OA
ATOM      3  C   UNL     1      -1.020  -1.852  28.799  0.00  0.00    +0.168 C 
ATOM      4  C   UNL     1      -0.255  -2.577  28.014  0.00  0.00    +0.014 C 
ATOM      5  C   UNL     1      -0.615  -3.999  27.663  0.00  0.00    +0.029 C 
ATOM      6  C   UNL     1      -1.321  -4.569  28.873  0.00  0.00    +0.047 C 
ATOM      7  C   UNL     1      -0.251  -4.487  29.923  0.00  0.00    +0.004 C 
ATOM      8  C   UNL     1       1.005  -4.844  29.149  0.00  0.00    +0.000 C 
ATOM      9  C   UNL     1       0.669  -4.814  27.698  0.00  0.00    +0.005 C 
ENDROOT
BRANCH   1  10
ATOM     10  C   UNL     1      -3.388  -4.281  30.233  0.00  0.00    +0.185 C 
BRANCH  10  11
ATOM     11  O   UNL     1      -4.678  -3.859  30.291  0.00  0.00    -0.347 OA
ATOM     12  C   UNL     1      -4.976  -2.793  31.073  0.00  0.00    +0.174 C 
ENDBRANCH  10  11
ENDBRANCH   1  10
TORSDOF 2
