REMARK  Name = =
REMARK  1 active torsions:
REMARK  status: ('A' for Active; 'I' for Inactive)
REMARK    1  A    between atoms: C_9  and  C_12
REMARK                            x       y       z     vdW  Elec       q    Type
REMARK                         _______ _______ _______ _____ _____    ______ ____
ROOT
ATOM      1  N   UNL     1      -4.547  -3.792  31.223  0.00  0.00    -0.248 N 
ATOM      2  C   UNL     1      -3.688  -4.819  30.755  0.00  0.00    +0.252 C 
ATOM      3  O   UNL     1      -3.838  -6.026  31.017  0.00  0.00    -0.270 OA
ATOM      4  C   UNL     1      -2.628  -4.262  29.936  0.00  0.00    +0.055 C 
ATOM      5  C   UNL     1      -2.851  -2.892  29.915  0.00  0.00    +0.058 C 
ATOM      6  C   UNL     1      -1.987  -2.093  29.159  0.00  0.00    +0.005 C 
ATOM      7  C   UNL     1      -0.938  -2.629  28.445  0.00  0.00    -0.000 C 
ATOM      8  C   UNL     1      -0.735  -3.990  28.479  0.00  0.00    -0.004 C 
ATOM      9  C   UNL     1      -1.561  -4.796  29.210  0.00  0.00    -0.011 C 
ATOM     10  C   UNL     1      -4.029  -2.575  30.703  0.00  0.00    +0.252 C 
ATOM     11  O   UNL     1      -4.501  -1.439  30.887  0.00  0.00    -0.270 OA
ATOM     12  H   UNL     1      -5.342  -3.900  31.793  0.00  0.00    +0.158 HD
ENDROOT
BRANCH   9  13
ATOM     13  C   UNL     1      -1.317  -6.243  29.325  0.00  0.00    +0.080 C 
ATOM     14  C   UNL     1      -1.168  -6.975  28.038  0.00  0.00    +0.012 C 
ATOM     15  C   UNL     1       0.133  -7.224  27.439  0.00  0.00    +0.001 C 
ATOM     16  C   UNL     1       1.310  -7.250  28.369  0.00  0.00    +0.008 C 
ATOM     17  C   UNL     1       0.812  -7.547  29.775  0.00  0.00    +0.065 C 
ATOM     18  C   UNL     1      -0.048  -6.418  30.168  0.00  0.00    +0.154 C 
ATOM     19  O   UNL     1       0.238  -5.700  31.078  0.00  0.00    -0.296 OA
ENDBRANCH   9  13
TORSDOF 1
