REMARK  Name = =
REMARK  4 active torsions:
REMARK  status: ('A' for Active; 'I' for Inactive)
REMARK    1  A    between atoms: C_1  and  C_10
REMARK    2  A    between atoms: C_1  and  O_13
REMARK    3  A    between atoms: C_10  and  O_11
REMARK    4  A    between atoms: O_13  and  C_14
REMARK                            x       y       z     vdW  Elec       q    Type
REMARK                         _______ _______ _______ _____ _____    ______ ____
ROOT
ATOM      1  C   UNL     1      -0.239  -4.088  28.333  0.00  0.00    +0.297 C 
ATOM      2  O   UNL     1       0.262  -3.552  29.560  0.00  0.00    -0.444 OA
ATOM      3  C   UNL     1       1.073  -4.421  30.288  0.00  0.00    +0.171 C 
ATOM      4  C   UNL     1       1.104  -5.717  30.036  0.00  0.00    +0.014 C 
ATOM      5  C   UNL     1       0.294  -6.368  28.973  0.00  0.00    +0.032 C 
ATOM      6  C   UNL     1      -0.898  -5.456  28.626  0.00  0.00    +0.083 C 
ATOM      7  C   UNL     1      -1.648  -5.476  29.919  0.00  0.00    +0.008 C 
ATOM      8  C   UNL     1      -1.443  -6.897  30.477  0.00  0.00    +0.001 C 
ATOM      9  C   UNL     1      -0.413  -7.554  29.590  0.00  0.00    +0.005 C 
ENDROOT
BRANCH   1  10
ATOM     10  C   UNL     1      -1.232  -3.195  27.655  0.00  0.00    +0.226 C 
BRANCH  10  11
ATOM     11  O   UNL     1      -2.013  -2.390  28.405  0.00  0.00    -0.344 OA
ATOM     12  C   UNL     1      -1.912  -1.066  28.153  0.00  0.00    +0.174 C 
ENDBRANCH  10  11
ENDBRANCH   1  10
BRANCH   1  13
ATOM     13  O   UNL     1       0.798  -4.378  27.466  0.00  0.00    -0.446 OA
BRANCH  13  14
ATOM     14  C   UNL     1       1.822  -3.615  26.980  0.00  0.00    +0.142 C 
ATOM     15  C   UNL     1       2.851  -4.257  26.270  0.00  0.00    +0.037 C 
ATOM     16  C   UNL     1       3.931  -3.615  25.735  0.00  0.00    +0.003 C 
ATOM     17  C   UNL     1       4.052  -2.240  25.884  0.00  0.00    +0.000 C 
ATOM     18  C   UNL     1       3.068  -1.572  26.573  0.00  0.00    +0.003 C 
ATOM     19  C   UNL     1       1.966  -2.256  27.114  0.00  0.00    +0.037 C 
ATOM     20  C   UNL     1       5.140  -1.588  25.347  0.00  0.00    +0.000 C 
ATOM     21  C   UNL     1       6.135  -2.261  24.650  0.00  0.00    +0.000 C 
ATOM     22  C   UNL     1       6.014  -3.635  24.502  0.00  0.00    +0.000 C 
ATOM     23  C   UNL     1       4.928  -4.271  25.042  0.00  0.00    +0.000 C 
ENDBRANCH  13  14
ENDBRANCH   1  13
TORSDOF 4
