REMARK  Name = =
REMARK  6 active torsions:
REMARK  status: ('A' for Active; 'I' for Inactive)
REMARK    1  A    between atoms: C_1  and  O_22
REMARK    2  A    between atoms: C_2  and  P_11
REMARK    3  A    between atoms: P_11  and  O_21
REMARK    4  A    between atoms: O_22  and  C_23
REMARK    5  A    between atoms: C_23  and  C_32
REMARK    6  A    between atoms: C_32  and  O_33
REMARK                            x       y       z     vdW  Elec       q    Type
REMARK                         _______ _______ _______ _____ _____    ______ ____
ROOT
ATOM      1  C   UNL     1       0.998  -4.403  27.529  0.00  0.00    +0.150 C 
ATOM      2  C   UNL     1      -0.045  -4.347  28.443  0.00  0.00    +0.118 C 
ATOM      3  C   UNL     1      -0.737  -3.177  28.505  0.00  0.00    +0.011 C 
ATOM      4  C   UNL     1      -0.434  -2.075  27.701  0.00  0.00    +0.000 C 
ATOM      5  C   UNL     1       0.595  -2.147  26.806  0.00  0.00    +0.003 C 
ATOM      6  C   UNL     1       1.300  -3.316  26.735  0.00  0.00    +0.037 C 
ATOM      7  C   UNL     1      -1.146  -0.889  27.771  0.00  0.00    +0.000 C 
ATOM      8  C   UNL     1      -2.183  -0.752  28.640  0.00  0.00    +0.000 C 
ATOM      9  C   UNL     1      -2.493  -1.848  29.448  0.00  0.00    +0.000 C 
ATOM     10  C   UNL     1      -1.787  -3.021  29.376  0.00  0.00    +0.000 C 
ENDROOT
BRANCH   2  11
ATOM     11  P   UNL     1      -0.385  -5.721  29.396  0.00  0.00    +0.336 P 
ATOM     12  O   UNL     1      -1.707  -5.784  29.052  0.00  0.00    -0.135 OA
ATOM     13  O   UNL     1      -0.828  -5.612  30.962  0.00  0.00    -0.288 OA
ATOM     14  C   UNL     1      -1.489  -6.705  31.410  0.00  0.00    +0.157 C 
ATOM     15  C   UNL     1      -1.691  -7.808  30.436  0.00  0.00    +0.173 C 
ATOM     16  O   UNL     1      -2.064  -8.876  31.248  0.00  0.00    -0.351 OA
ATOM     17  C   UNL     1      -1.283  -8.830  32.384  0.00  0.00    +0.145 C 
ATOM     18  C   UNL     1      -0.846  -7.401  32.585  0.00  0.00    +0.065 C 
ATOM     19  C   UNL     1      -0.457  -8.172  29.644  0.00  0.00    +0.184 C 
ATOM     20  O   UNL     1      -0.320  -7.240  28.619  0.00  0.00    -0.285 OA
BRANCH  11  21
ATOM     21  O   UNL     1       1.060  -6.053  29.854  0.00  0.00    -0.317 OA
ATOM     22  H   UNL     1       1.404  -5.323  30.392  0.00  0.00    +0.221 HD
ENDBRANCH  11  21
ENDBRANCH   2  11
BRANCH   1  23
ATOM     23  O   UNL     1       1.741  -5.549  27.412  0.00  0.00    -0.446 OA
BRANCH  23  24
ATOM     24  C   UNL     1       2.603  -5.893  26.384  0.00  0.00    +0.297 C 
ATOM     25  O   UNL     1       3.007  -4.839  25.535  0.00  0.00    -0.444 OA
ATOM     26  C   UNL     1       3.621  -5.188  24.335  0.00  0.00    +0.171 C 
ATOM     27  C   UNL     1       3.732  -6.431  23.884  0.00  0.00    +0.014 C 
ATOM     28  C   UNL     1       3.173  -7.516  24.697  0.00  0.00    +0.032 C 
ATOM     29  C   UNL     1       1.971  -6.901  25.428  0.00  0.00    +0.083 C 
ATOM     30  C   UNL     1       1.379  -8.097  26.063  0.00  0.00    +0.008 C 
ATOM     31  C   UNL     1       1.397  -9.106  24.903  0.00  0.00    +0.001 C 
ATOM     32  C   UNL     1       2.514  -8.626  23.966  0.00  0.00    +0.005 C 
BRANCH  24  33
ATOM     33  C   UNL     1       3.844  -6.491  26.997  0.00  0.00    +0.226 C 
BRANCH  33  34
ATOM     34  O   UNL     1       4.236  -5.786  28.093  0.00  0.00    -0.344 OA
ATOM     35  C   UNL     1       4.902  -4.623  27.962  0.00  0.00    +0.174 C 
ENDBRANCH  33  34
ENDBRANCH  24  33
ENDBRANCH  23  24
ENDBRANCH   1  23
TORSDOF 6
