REMARK  Name = =
REMARK  9 active torsions:
REMARK  status: ('A' for Active; 'I' for Inactive)
REMARK    1  A    between atoms: C_1  and  O_22
REMARK    2  A    between atoms: C_2  and  P_11
REMARK    3  A    between atoms: C_5  and  O_35
REMARK    4  A    between atoms: P_11  and  O_21
REMARK    5  A    between atoms: O_22  and  C_23
REMARK    6  A    between atoms: C_23  and  C_32
REMARK    7  A    between atoms: C_32  and  O_33
REMARK    8  A    between atoms: O_35  and  C_36
REMARK    9  A    between atoms: C_36  and  O_38
REMARK                            x       y       z     vdW  Elec       q    Type
REMARK                         _______ _______ _______ _____ _____    ______ ____
ROOT
ATOM      1  C   UNL     1       1.494  -6.317  27.036  0.00  0.00    +0.153 C 
ATOM      2  C   UNL     1       2.263  -5.651  27.910  0.00  0.00    +0.118 C 
ATOM      3  C   UNL     1       3.262  -4.800  27.493  0.00  0.00    +0.014 C 
ATOM      4  C   UNL     1       3.458  -4.640  26.108  0.00  0.00    +0.035 C 
ATOM      5  C   UNL     1       2.693  -5.298  25.172  0.00  0.00    +0.155 C 
ATOM      6  C   UNL     1       1.722  -6.126  25.660  0.00  0.00    +0.075 C 
ATOM      7  C   UNL     1       4.458  -3.796  25.648  0.00  0.00    +0.003 C 
ATOM      8  C   UNL     1       5.277  -3.102  26.517  0.00  0.00    +0.000 C 
ATOM      9  C   UNL     1       5.081  -3.264  27.868  0.00  0.00    +0.000 C 
ATOM     10  C   UNL     1       4.081  -4.107  28.331  0.00  0.00    +0.000 C 
ENDROOT
BRANCH   2  11
ATOM     11  P   UNL     1       1.980  -5.784  29.608  0.00  0.00    +0.336 P 
ATOM     12  O   UNL     1       1.377  -4.551  29.607  0.00  0.00    -0.135 OA
ATOM     13  O   UNL     1       3.017  -5.239  30.729  0.00  0.00    -0.288 OA
ATOM     14  C   UNL     1       2.931  -5.923  31.902  0.00  0.00    +0.157 C 
ATOM     15  C   UNL     1       1.781  -6.899  31.979  0.00  0.00    +0.173 C 
ATOM     16  O   UNL     1       1.722  -7.153  33.351  0.00  0.00    -0.351 OA
ATOM     17  C   UNL     1       1.759  -5.912  33.944  0.00  0.00    +0.145 C 
ATOM     18  C   UNL     1       2.612  -5.012  33.086  0.00  0.00    +0.065 C 
ATOM     19  C   UNL     1       0.491  -6.226  31.501  0.00  0.00    +0.184 C 
ATOM     20  O   UNL     1       0.492  -6.365  30.115  0.00  0.00    -0.285 OA
BRANCH  11  21
ATOM     21  O   UNL     1       2.504  -7.219  29.691  0.00  0.00    -0.317 OA
ATOM     22  H   UNL     1       3.388  -7.264  29.294  0.00  0.00    +0.221 HD
ENDBRANCH  11  21
ENDBRANCH   2  11
BRANCH   1  23
ATOM     23  O   UNL     1       0.486  -7.193  27.292  0.00  0.00    -0.446 OA
BRANCH  23  24
ATOM     24  C   UNL     1       0.468  -8.575  27.251  0.00  0.00    +0.297 C 
ATOM     25  O   UNL     1       1.553  -9.247  27.843  0.00  0.00    -0.444 OA
ATOM     26  C   UNL     1       2.726  -9.576  27.225  0.00  0.00    +0.171 C 
ATOM     27  C   UNL     1       2.829  -9.456  25.925  0.00  0.00    +0.014 C 
ATOM     28  C   UNL     1       1.723  -8.978  25.100  0.00  0.00    +0.032 C 
ATOM     29  C   UNL     1       0.368  -9.051  25.773  0.00  0.00    +0.083 C 
ATOM     30  C   UNL     1       0.052 -10.533  25.709  0.00  0.00    +0.008 C 
ATOM     31  C   UNL     1       0.752 -11.043  24.466  0.00  0.00    +0.001 C 
ATOM     32  C   UNL     1       1.612  -9.955  23.920  0.00  0.00    +0.005 C 
BRANCH  24  33
ATOM     33  C   UNL     1      -0.801  -9.104  27.864  0.00  0.00    +0.226 C 
BRANCH  33  34
ATOM     34  O   UNL     1      -1.155  -8.671  29.102  0.00  0.00    -0.344 OA
ATOM     35  C   UNL     1      -1.892  -7.517  29.174  0.00  0.00    +0.174 C 
ENDBRANCH  33  34
ENDBRANCH  24  33
ENDBRANCH  23  24
ENDBRANCH   1  23
BRANCH   5  36
ATOM     36  O   UNL     1       2.901  -5.125  23.827  0.00  0.00    -0.394 OA
BRANCH  36  37
ATOM     37  C   UNL     1       2.372  -4.117  23.057  0.00  0.00    +0.513 C 
ATOM     38  O   UNL     1       1.656  -3.256  23.610  0.00  0.00    -0.203 OA
BRANCH  37  39
ATOM     39  O   UNL     1       2.607  -4.031  21.694  0.00  0.00    -0.449 OA
ATOM     40  H   UNL     1       3.143  -4.672  21.270  0.00  0.00    +0.299 HD
ENDBRANCH  37  39
ENDBRANCH  36  37
ENDBRANCH   5  36
TORSDOF 9
