MODEL 1
REMARK VINA RESULT:    -8.716      0.000      0.000
REMARK INTER + INTRA:         -11.607
REMARK INTER:                 -10.500
REMARK INTRA:                  -1.107
REMARK UNBOUND:                -1.107
REMARK  Name = =
REMARK  4 active torsions:
REMARK  status: ('A' for Active; 'I' for Inactive)
REMARK    1  A    between atoms: C_1  and  N_33
REMARK    2  A    between atoms: C_11  and  C_15
REMARK    3  A    between atoms: N_36  and  N_37
REMARK    4  A    between atoms: C_38  and  O_40
REMARK                            x       y       z     vdW  Elec       q    Type
REMARK                         _______ _______ _______ _____ _____    ______ ____
ROOT
ATOM      1  C   UNL     1      51.926 165.691  42.236  0.00  0.00    +0.071 C 
ATOM      2  C   UNL     1      52.989 164.754  42.228  0.00  0.00    +0.112 A 
ATOM      3  N   UNL     1      52.650 163.444  42.083  0.00  0.00    -0.241 NA
ATOM      4  C   UNL     1      53.652 162.505  41.992  0.00  0.00    +0.099 A 
ATOM      5  C   UNL     1      54.934 162.962  42.055  0.00  0.00    +0.095 A 
ATOM      6  N   UNL     1      55.283 164.255  42.203  0.00  0.00    -0.243 NA
ATOM      7  C   UNL     1      54.301 165.165  42.288  0.00  0.00    +0.100 A 
ATOM      8  C   UNL     1      54.602 166.522  42.364  0.00  0.00    +0.021 C 
ATOM      9  C   UNL     1      53.607 167.434  42.371  0.00  0.00    +0.003 C 
ATOM     10  C   UNL     1      52.280 167.008  42.307  0.00  0.00    +0.016 C 
ATOM     11  C   UNL     1      55.988 162.098  41.852  0.00  0.00    -0.003 C 
ATOM     12  C   UNL     1      55.736 160.778  41.584  0.00  0.00    -0.003 C 
ATOM     13  C   UNL     1      54.422 160.293  41.520  0.00  0.00    +0.001 C 
ATOM     14  C   UNL     1      53.376 161.161  41.727  0.00  0.00    +0.021 C 
ENDROOT
BRANCH  11  15
ATOM     15  C   UNL     1      57.345 162.561  42.094  0.00  0.00    +0.024 C 
ATOM     16  C   UNL     1      58.216 162.692  40.880  0.00  0.00    +0.004 C 
ATOM     17  C   UNL     1      59.475 163.512  41.356  0.00  0.00    +0.000 C 
ATOM     18  C   UNL     1      60.544 163.355  40.295  0.00  0.00    +0.001 C 
ATOM     19  C   UNL     1      61.526 162.248  40.724  0.00  0.00    +0.012 C 
ATOM     20  C   UNL     1      62.880 162.720  40.400  0.00  0.00    +0.057 C 
ATOM     21  C   UNL     1      63.849 161.782  39.818  0.00  0.00    +0.118 C 
ATOM     22  O   UNL     1      64.758 161.940  40.869  0.00  0.00    -0.356 OA
ATOM     23  C   UNL     1      63.809 162.638  41.596  0.00  0.00    +0.144 C 
ATOM     24  C   UNL     1      63.407 160.403  39.502  0.00  0.00    +0.030 C 
ATOM     25  C   UNL     1      61.945 160.338  39.170  0.00  0.00    +0.010 C 
ATOM     26  C   UNL     1      61.086 160.930  40.226  0.00  0.00    +0.058 C 
ATOM     27  C   UNL     1      60.661 159.988  41.241  0.00  0.00    +0.150 C 
ATOM     28  O   UNL     1      61.019 158.839  41.087  0.00  0.00    -0.296 OA
ATOM     29  C   UNL     1      59.841 160.065  42.511  0.00  0.00    +0.064 C 
ATOM     30  C   UNL     1      59.390 161.466  42.682  0.00  0.00    +0.008 C 
ATOM     31  C   UNL     1      58.086 161.455  42.898  0.00  0.00    +0.005 C 
ATOM     32  C   UNL     1      59.986 162.864  42.631  0.00  0.00    +0.000 C 
ENDBRANCH  11  15
BRANCH   1  33
ATOM     33  N   UNL     1      50.581 165.261  42.244  0.00  0.00    -0.266 N 
ATOM     34  C   UNL     1      49.710 165.406  41.130  0.00  0.00    +0.320 C 
ATOM     35  O   UNL     1      50.099 165.898  40.064  0.00  0.00    -0.251 OA
ATOM     36  N   UNL     1      48.326 164.995  41.165  0.00  0.00    -0.215 N 
ATOM     37  H   UNL     1      50.229 164.839  43.061  0.00  0.00    +0.157 HD
ATOM     38  H   UNL     1      47.945 164.589  41.977  0.00  0.00    +0.174 HD
BRANCH  36  39
ATOM     39  N   UNL     1      47.541 165.184  40.036  0.00  0.00    -0.199 N 
ATOM     40  C   UNL     1      47.120 164.109  39.216  0.00  0.00    +0.414 C 
ATOM     41  O   UNL     1      47.508 162.961  39.607  0.00  0.00    -0.225 OA
ATOM     42  H   UNL     1      47.267 166.099  39.796  0.00  0.00    +0.176 HD
BRANCH  40  43
ATOM     43  O   UNL     1      46.354 164.201  38.071  0.00  0.00    -0.465 OA
ATOM     44  H   UNL     1      45.894 164.995  37.878  0.00  0.00    +0.297 HD
ENDBRANCH  40  43
ENDBRANCH  36  39
ENDBRANCH   1  33
TORSDOF 4
ENDMDL
