REMARK  Name = =
REMARK  10 active torsions:
REMARK  status: ('A' for Active; 'I' for Inactive)
REMARK    1  A    between atoms: C_1  and  O_20
REMARK    2  A    between atoms: C_2  and  N_7
REMARK    3  A    between atoms: C_5  and  O_23
REMARK    4  A    between atoms: N_10  and  C_13
REMARK    5  A    between atoms: O_20  and  N_21
REMARK    6  A    between atoms: O_23  and  C_24
REMARK    7  A    between atoms: C_24  and  C_26
REMARK    8  A    between atoms: C_26  and  C_28
REMARK    9  A    between atoms: C_28  and  O_30
REMARK   10  A    between atoms: O_30  and  C_31
REMARK                            x       y       z     vdW  Elec       q    Type
REMARK                         _______ _______ _______ _____ _____    ______ ____
ROOT
ATOM      1  C   UNL     1      -7.294  -6.092  20.917  0.00  0.00    +0.204 C 
ATOM      2  C   UNL     1      -8.468  -5.565  21.369  0.00  0.00    +0.169 C 
ATOM      3  N   UNL     1      -9.464  -6.452  21.693  0.00  0.00    -0.223 NA
ATOM      4  C   UNL     1      -9.311  -7.781  21.581  0.00  0.00    +0.138 C 
ATOM      5  C   UNL     1      -8.139  -8.350  21.130  0.00  0.00    +0.171 C 
ATOM      6  C   UNL     1      -7.124  -7.491  20.797  0.00  0.00    +0.082 C 
ENDROOT
BRANCH   2   7
ATOM      7  N   UNL     1      -8.649  -4.193  21.549  0.00  0.00    -0.287 N 
ATOM      8  C   UNL     1      -8.661  -3.681  22.855  0.00  0.00    +0.114 C 
ATOM      9  C   UNL     1     -10.104  -3.409  23.356  0.00  0.00    +0.112 C 
ATOM     10  N   UNL     1     -10.632  -2.454  22.404  0.00  0.00    -0.304 N 
ATOM     11  C   UNL     1     -10.690  -2.904  21.053  0.00  0.00    +0.112 C 
ATOM     12  C   UNL     1      -9.415  -3.521  20.561  0.00  0.00    +0.114 C 
BRANCH  10  13
ATOM     13  C   UNL     1     -11.080  -1.166  22.791  0.00  0.00    +0.048 C 
ATOM     14  C   UNL     1     -11.611  -0.281  21.878  0.00  0.00    +0.017 C 
ATOM     15  C   UNL     1     -12.066   0.983  22.263  0.00  0.00    +0.031 C 
ATOM     16  C   UNL     1     -12.005   1.397  23.572  0.00  0.00    +0.140 C 
ATOM     17  C   UNL     1     -11.473   0.505  24.476  0.00  0.00    +0.031 C 
ATOM     18  C   UNL     1     -11.024  -0.736  24.106  0.00  0.00    +0.017 C 
ATOM     19  F   UNL     1     -12.437   2.613  23.979  0.00  0.00    -0.204 F 
ENDBRANCH  10  13
ENDBRANCH   2   7
BRANCH   1  20
ATOM     20  O   UNL     1      -6.227  -5.289  20.553  0.00  0.00    -0.355 OA
BRANCH  20  21
ATOM     21  N   UNL     1      -5.162  -5.117  21.364  0.00  0.00    +0.159 NA
ATOM     22  O   UNL     1      -4.445  -4.098  21.407  0.00  0.00    -0.057 OA
ENDBRANCH  20  21
ENDBRANCH   1  20
BRANCH   5  23
ATOM     23  O   UNL     1      -7.971  -9.722  21.011  0.00  0.00    -0.417 OA
BRANCH  23  24
ATOM     24  C   UNL     1      -8.775 -10.537  20.251  0.00  0.00    +0.392 C 
ATOM     25  O   UNL     1      -9.988 -10.630  20.516  0.00  0.00    -0.241 OA
BRANCH  24  26
ATOM     26  C   UNL     1      -8.216 -11.282  19.148  0.00  0.00    +0.346 C 
ATOM     27  O   UNL     1      -7.537 -10.695  18.272  0.00  0.00    -0.273 OA
BRANCH  26  28
ATOM     28  C   UNL     1      -8.435 -12.731  19.039  0.00  0.00    +0.392 C 
ATOM     29  O   UNL     1      -7.842 -13.369  18.142  0.00  0.00    -0.241 OA
BRANCH  28  30
ATOM     30  O   UNL     1      -9.268 -13.421  19.883  0.00  0.00    -0.416 OA
BRANCH  30  31
ATOM     31  C   UNL     1      -9.470 -14.783  19.694  0.00  0.00    +0.183 C 
ATOM     32  C   UNL     1      -9.469 -15.633  20.692  0.00  0.00    +0.044 C 
ENDBRANCH  30  31
ENDBRANCH  28  30
ENDBRANCH  26  28
ENDBRANCH  24  26
ENDBRANCH  23  24
ENDBRANCH   5  23
TORSDOF 10
