REMARK  Name = =
REMARK  0 active torsions:
REMARK  status: ('A' for Active; 'I' for Inactive)
REMARK                            x       y       z     vdW  Elec       q    Type
REMARK                         _______ _______ _______ _____ _____    ______ ____
ROOT
ATOM      1  C   UNL     1      -4.180  -3.998  30.767  0.00  0.00    +0.045 C 
ATOM      2  C   UNL     1      -4.115  -5.283  31.066  0.00  0.00    +0.045 C 
ATOM      3  C   UNL     1      -2.820  -5.968  30.983  0.00  0.00    +0.196 C 
ATOM      4  O   UNL     1      -2.764  -7.192  31.268  0.00  0.00    -0.287 OA
ATOM      5  C   UNL     1      -1.596  -5.281  30.580  0.00  0.00    +0.042 C 
ATOM      6  C   UNL     1      -1.677  -3.933  30.268  0.00  0.00    +0.042 C 
ATOM      7  C   UNL     1      -0.540  -3.248  29.884  0.00  0.00    +0.003 C 
ATOM      8  C   UNL     1       0.692  -3.859  29.794  0.00  0.00    +0.000 C 
ATOM      9  C   UNL     1       0.759  -5.200  30.107  0.00  0.00    +0.000 C 
ATOM     10  C   UNL     1      -0.378  -5.895  30.494  0.00  0.00    +0.003 C 
ATOM     11  C   UNL     1      -2.987  -3.277  30.362  0.00  0.00    +0.196 C 
ATOM     12  O   UNL     1      -3.058  -2.072  30.084  0.00  0.00    -0.287 OA
ENDROOT
TORSDOF 0
