REMARK  Name = =
REMARK  4 active torsions:
REMARK  status: ('A' for Active; 'I' for Inactive)
REMARK    1  A    between atoms: C_1  and  C_7
REMARK    2  A    between atoms: C_2  and  N_18
REMARK    3  A    between atoms: N_18  and  S_19
REMARK    4  A    between atoms: S_19  and  N_22
REMARK                            x       y       z     vdW  Elec       q    Type
REMARK                         _______ _______ _______ _____ _____    ______ ____
ROOT
ATOM      1  C   UNL     1      -2.478  -3.826  29.935  0.00  0.00    +0.001 C 
ATOM      2  C   UNL     1      -2.254  -4.881  30.655  0.00  0.00    +0.121 C 
ATOM      3  C   UNL     1      -3.471  -5.155  31.477  0.00  0.00    -0.005 C 
ATOM      4  C   UNL     1      -4.389  -4.263  31.232  0.00  0.00    -0.003 C 
ATOM      5  C   UNL     1      -3.869  -3.345  30.249  0.00  0.00    -0.003 C 
ENDROOT
BRANCH   1   7
ATOM      6  C   UNL     1      -2.147  -2.913  27.772  0.00  0.00    +0.045 C 
ATOM      7  C   UNL     1      -1.601  -3.152  28.967  0.00  0.00    +0.040 C 
ATOM      8  C   UNL     1      -0.249  -2.738  29.184  0.00  0.00    +0.195 C 
ATOM      9  O   UNL     1       0.352  -2.916  30.272  0.00  0.00    -0.287 OA
ATOM     10  C   UNL     1       0.578  -2.057  28.150  0.00  0.00    +0.042 C 
ATOM     11  C   UNL     1      -0.031  -1.837  26.939  0.00  0.00    +0.042 C 
ATOM     12  C   UNL     1       0.734  -1.201  25.963  0.00  0.00    +0.003 C 
ATOM     13  C   UNL     1       2.036  -0.827  26.242  0.00  0.00    +0.000 C 
ATOM     14  C   UNL     1       2.639  -1.051  27.452  0.00  0.00    +0.000 C 
ATOM     15  C   UNL     1       1.872  -1.688  28.428  0.00  0.00    +0.003 C 
ATOM     16  C   UNL     1      -1.405  -2.253  26.708  0.00  0.00    +0.196 C 
ATOM     17  O   UNL     1      -1.921  -2.029  25.580  0.00  0.00    -0.287 OA
ENDBRANCH   1   7
BRANCH   2  18
ATOM     18  N   UNL     1      -1.118  -5.754  30.777  0.00  0.00    -0.163 NA
ATOM     19  H   UNL     1      -1.200  -6.224  31.678  0.00  0.00    +0.151 HD
BRANCH  18  20
ATOM     20  S   UNL     1      -0.860  -6.993  29.579  0.00  0.00    +0.093 S 
ATOM     21  O   UNL     1      -0.772  -6.405  28.209  0.00  0.00    -0.142 OA
ATOM     22  O   UNL     1       0.396  -7.766  29.877  0.00  0.00    -0.142 OA
BRANCH  20  23
ATOM     23  N   UNL     1      -2.170  -8.119  29.576  0.00  0.00    -0.193 NA
ATOM     24  H   UNL     1      -2.258  -8.541  30.501  0.00  0.00    +0.145 HD
ATOM     25  H   UNL     1      -1.990  -8.848  28.886  0.00  0.00    +0.145 HD
ENDBRANCH  20  23
ENDBRANCH  18  20
ENDBRANCH   2  18
TORSDOF 4
