REMARK  Name = =
REMARK  2 active torsions:
REMARK  status: ('A' for Active; 'I' for Inactive)
REMARK    1  A    between atoms: N_1  and  C_10
REMARK    2  A    between atoms: C_10  and  C_13
REMARK                            x       y       z     vdW  Elec       q    Type
REMARK                         _______ _______ _______ _____ _____    ______ ____
ROOT
ATOM      1  N   UNL     1      -0.981  -6.172  30.344  0.00  0.00    -0.254 N 
ATOM      2  C   UNL     1      -0.033  -5.214  30.544  0.00  0.00    +0.226 C 
ATOM      3  N   UNL     1       0.906  -5.329  29.605  0.00  0.00    -0.229 NA
ATOM      4  C   UNL     1       0.609  -6.341  28.783  0.00  0.00    +0.176 C 
ATOM      5  C   UNL     1      -0.596  -6.871  29.265  0.00  0.00    +0.106 C 
ATOM      6  C   UNL     1      -1.074  -7.955  28.543  0.00  0.00    +0.105 C 
ATOM      7  N   UNL     1      -0.447  -8.463  27.470  0.00  0.00    -0.189 NA
ATOM      8  C   UNL     1       0.701  -7.932  27.036  0.00  0.00    +0.187 C 
ATOM      9  N   UNL     1       1.190  -6.888  27.708  0.00  0.00    -0.206 NA
ENDROOT
BRANCH   1  10
ATOM     10  C   UNL     1      -2.121  -6.401  31.133  0.00  0.00    +0.123 C 
ATOM     11  C   UNL     1      -3.253  -5.773  31.049  0.00  0.00    +0.027 C 
BRANCH  10  13
ATOM     12  N   UNL     1      -1.887  -8.336  32.882  0.00  0.00    -0.190 NA
ATOM     13  C   UNL     1      -1.991  -7.473  32.111  0.00  0.00    +0.116 C 
ENDBRANCH  10  13
ENDBRANCH   1  10
TORSDOF 2
