REMARK  Name = =
REMARK  3 active torsions:
REMARK  status: ('A' for Active; 'I' for Inactive)
REMARK    1  A    between atoms: N_1  and  C_13
REMARK    2  A    between atoms: C_8  and  S_10
REMARK    3  A    between atoms: C_13  and  C_16
REMARK                            x       y       z     vdW  Elec       q    Type
REMARK                         _______ _______ _______ _____ _____    ______ ____
ROOT
ATOM      1  N   UNL     1       0.659  -5.375  30.054  0.00  0.00    -0.254 N 
ATOM      2  C   UNL     1       1.490  -5.565  31.123  0.00  0.00    +0.226 C 
ATOM      3  N   UNL     1       2.721  -5.173  30.797  0.00  0.00    -0.231 NA
ATOM      4  C   UNL     1       2.711  -4.729  29.532  0.00  0.00    +0.167 C 
ATOM      5  C   UNL     1       1.412  -4.860  29.077  0.00  0.00    +0.106 C 
ATOM      6  C   UNL     1       1.191  -4.446  27.780  0.00  0.00    +0.119 C 
ATOM      7  N   UNL     1       2.210  -3.956  27.050  0.00  0.00    -0.210 NA
ATOM      8  C   UNL     1       3.467  -3.829  27.489  0.00  0.00    +0.259 C 
ATOM      9  N   UNL     1       3.695  -4.228  28.751  0.00  0.00    -0.159 NA
ENDROOT
BRANCH   8  10
ATOM     10  S   UNL     1       4.735  -3.181  26.475  0.00  0.00    +0.020 S 
ATOM     11  O   UNL     1       4.517  -1.736  26.157  0.00  0.00    -0.169 OA
ATOM     12  O   UNL     1       6.049  -3.441  27.140  0.00  0.00    -0.169 OA
ATOM     13  H   UNL     1       4.724  -3.808  25.268  0.00  0.00    +0.219 HD
ENDBRANCH   8  10
BRANCH   1  14
ATOM     14  C   UNL     1      -0.720  -5.666  30.036  0.00  0.00    +0.123 C 
ATOM     15  C   UNL     1      -1.590  -4.675  30.153  0.00  0.00    +0.027 C 
BRANCH  14  17
ATOM     16  N   UNL     1      -1.658  -8.101  29.809  0.00  0.00    -0.190 NA
ATOM     17  C   UNL     1      -1.228  -7.003  29.920  0.00  0.00    +0.116 C 
ENDBRANCH  14  17
ENDBRANCH   1  14
TORSDOF 3
