REMARK  Name = =
REMARK  4 active torsions:
REMARK  status: ('A' for Active; 'I' for Inactive)
REMARK    1  A    between atoms: C_1  and  S_19
REMARK    2  A    between atoms: S_19  and  C_29
REMARK    3  A    between atoms: N_22  and  C_31
REMARK    4  A    between atoms: C_31  and  C_34
REMARK                            x       y       z     vdW  Elec       q    Type
REMARK                         _______ _______ _______ _____ _____    ______ ____
ROOT
ATOM      1  C   UNL     1       4.036  -4.661  20.630  0.00  0.00    +0.121 C 
ATOM      2  C   UNL     1       4.620  -3.940  21.823  0.00  0.00    +0.021 C 
ATOM      3  C   UNL     1       3.489  -3.110  22.381  0.00  0.00    +0.002 C 
ATOM      4  C   UNL     1       3.375  -1.897  21.442  0.00  0.00    +0.000 C 
ATOM      5  C   UNL     1       2.962  -2.431  20.120  0.00  0.00    +0.002 C 
ATOM      6  C   UNL     1       2.821  -3.932  20.080  0.00  0.00    +0.023 C 
ATOM      7  C   UNL     1       2.366  -1.089  22.184  0.00  0.00    +0.000 C 
ATOM      8  C   UNL     1       2.621  -1.381  23.668  0.00  0.00    +0.000 C 
ATOM      9  C   UNL     1       3.753  -2.425  23.671  0.00  0.00    +0.000 C 
ATOM     10  C   UNL     1       5.757  -3.047  21.517  0.00  0.00    +0.006 C 
ATOM     11  C   UNL     1       6.869  -3.657  20.724  0.00  0.00    +0.022 C 
ATOM     12  C   UNL     1       6.414  -4.750  19.832  0.00  0.00    -0.040 C 
ATOM     13  C   UNL     1       7.307  -5.583  19.323  0.00  0.00    +0.029 C 
ATOM     14  C   UNL     1       6.786  -6.631  18.457  0.00  0.00    +0.173 C 
ATOM     15  O   UNL     1       7.388  -7.749  18.371  0.00  0.00    -0.291 OA
ATOM     16  C   UNL     1       5.571  -6.412  17.680  0.00  0.00    +0.070 C 
ATOM     17  C   UNL     1       4.597  -5.420  18.271  0.00  0.00    +0.014 C 
ATOM     18  C   UNL     1       5.004  -4.848  19.557  0.00  0.00    +0.040 C 
ENDROOT
BRANCH   1  19
ATOM     19  S   UNL     1       3.434  -6.254  21.177  0.00  0.00    +0.037 S 
ATOM     20  O   UNL     1       4.180  -7.388  20.574  0.00  0.00    -0.166 OA
ATOM     21  O   UNL     1       1.986  -6.437  20.775  0.00  0.00    -0.166 OA
BRANCH  19  29
ATOM     22  N   UNL     1       3.509  -6.827  26.973  0.00  0.00    -0.254 N 
ATOM     23  C   UNL     1       4.832  -7.197  27.101  0.00  0.00    +0.226 C 
ATOM     24  N   UNL     1       5.398  -7.242  25.895  0.00  0.00    -0.231 NA
ATOM     25  C   UNL     1       4.487  -6.910  24.949  0.00  0.00    +0.167 C 
ATOM     26  C   UNL     1       3.314  -6.656  25.668  0.00  0.00    +0.106 C 
ATOM     27  C   UNL     1       2.231  -6.284  24.927  0.00  0.00    +0.119 C 
ATOM     28  N   UNL     1       2.361  -6.190  23.588  0.00  0.00    -0.210 NA
ATOM     29  C   UNL     1       3.483  -6.434  22.907  0.00  0.00    +0.263 C 
ATOM     30  N   UNL     1       4.553  -6.798  23.609  0.00  0.00    -0.159 NA
BRANCH  22  31
ATOM     31  C   UNL     1       2.626  -6.662  28.061  0.00  0.00    +0.123 C 
ATOM     32  C   UNL     1       1.647  -7.464  28.374  0.00  0.00    +0.027 C 
BRANCH  31  34
ATOM     33  N   UNL     1       2.999  -4.528  29.546  0.00  0.00    -0.190 NA
ATOM     34  C   UNL     1       2.821  -5.479  28.882  0.00  0.00    +0.116 C 
ENDBRANCH  31  34
ENDBRANCH  22  31
ENDBRANCH  19  29
ENDBRANCH   1  19
TORSDOF 4
