MODEL 1
REMARK VINA RESULT:    -8.175      0.000      0.000
REMARK INTER + INTRA:          -9.506
REMARK INTER:                  -9.370
REMARK INTRA:                  -0.136
REMARK UNBOUND:                -0.136
REMARK  Name = =
REMARK  3 active torsions:
REMARK  status: ('A' for Active; 'I' for Inactive)
REMARK    1  A    between atoms: C_14  and  C_27
REMARK    2  A    between atoms: C_16  and  N_25
REMARK    3  A    between atoms: C_27  and  N_28
REMARK                            x       y       z     vdW  Elec       q    Type
REMARK                         _______ _______ _______ _____ _____    ______ ____
ROOT
ATOM      1  C   UNL     1      50.621 162.620  41.851  0.00  0.00    +0.080 C 
ATOM      2  C   UNL     1      50.700 163.953  41.551  0.00  0.00    +0.033 C 
ATOM      3  C   UNL     1      51.933 164.583  41.287  0.00  0.00    +0.082 C 
ATOM      4  C   UNL     1      53.102 163.861  41.314  0.00  0.00    +0.019 C 
ATOM      5  C   UNL     1      53.018 162.518  41.613  0.00  0.00    +0.003 C 
ATOM      6  C   UNL     1      51.801 161.898  41.881  0.00  0.00    +0.018 C 
ATOM      7  C   UNL     1      51.716 160.554  42.182  0.00  0.00    +0.003 C 
ATOM      8  C   UNL     1      50.528 159.910  42.453  0.00  0.00    +0.015 C 
ATOM      9  C   UNL     1      49.376 160.695  42.406  0.00  0.00    +0.081 C 
ATOM     10  N   UNL     1      49.439 162.003  42.113  0.00  0.00    -0.246 NA
ATOM     11  C   UNL     1      48.162 160.102  42.668  0.00  0.00    +0.019 C 
ATOM     12  C   UNL     1      48.069 158.745  42.974  0.00  0.00    +0.001 C 
ATOM     13  C   UNL     1      49.238 157.984  43.014  0.00  0.00    -0.003 C 
ATOM     14  C   UNL     1      50.458 158.565  42.754  0.00  0.00    -0.005 C 
ATOM     15  N   UNL     1      51.962 166.023  41.203  0.00  0.00    -0.231 NA
ATOM     16  C   UNL     1      50.929 166.769  41.387  0.00  0.00    +0.141 C 
ATOM     17  C   UNL     1      49.649 166.140  41.724  0.00  0.00    +0.086 C 
ATOM     18  C   UNL     1      49.495 164.731  41.278  0.00  0.00    +0.125 C 
ATOM     19  N   UNL     1      49.115 164.668  39.840  0.00  0.00    -0.266 N 
ATOM     20  C   UNL     1      47.800 164.142  39.797  0.00  0.00    +0.402 C 
ATOM     21  O   UNL     1      47.307 163.488  38.814  0.00  0.00    -0.226 OA
ATOM     22  O   UNL     1      47.193 164.474  40.991  0.00  0.00    -0.436 OA
ATOM     23  C   UNL     1      48.229 164.647  41.940  0.00  0.00    +0.191 C 
ATOM     24  C   UNL     1      48.413 166.105  42.181  0.00  0.00    +0.055 C 
ATOM     25  H   UNL     1      49.667 164.938  39.072  0.00  0.00    +0.153 HD
ENDROOT
BRANCH  16  26
ATOM     26  N   UNL     1      50.973 168.175  41.277  0.00  0.00    -0.228 NA
ATOM     27  C   UNL     1      52.052 168.745  40.867  0.00  0.00    +0.121 C 
ENDBRANCH  16  26
BRANCH  14  28
ATOM     28  C   UNL     1      51.684 157.736  42.801  0.00  0.00    +0.092 C 
BRANCH  28  29
ATOM     29  N   UNL     1      51.420 156.398  42.310  0.00  0.00    -0.317 NA
ATOM     30  H   UNL     1      50.784 155.920  42.949  0.00  0.00    +0.119 HD
ATOM     31  H   UNL     1      52.296 155.877  42.251  0.00  0.00    +0.119 HD
ENDBRANCH  28  29
ENDBRANCH  14  28
TORSDOF 3
ENDMDL
