MODEL 1
REMARK VINA RESULT:    -7.081      0.000      0.000
REMARK INTER + INTRA:         -10.878
REMARK INTER:                 -10.186
REMARK INTRA:                  -0.691
REMARK UNBOUND:                -0.691
REMARK  Name = =
REMARK  10 active torsions:
REMARK  status: ('A' for Active; 'I' for Inactive)
REMARK    1  A    between atoms: N_1  and  C_19
REMARK    2  A    between atoms: C_2  and  N_27
REMARK    3  A    between atoms: C_5  and  C_7
REMARK    4  A    between atoms: C_14  and  O_18
REMARK    5  A    between atoms: C_15  and  O_17
REMARK    6  A    between atoms: C_22  and  O_26
REMARK    7  A    between atoms: C_28  and  N_33
REMARK    8  A    between atoms: N_33  and  S_37
REMARK    9  A    between atoms: C_34  and  O_36
REMARK   10  A    between atoms: S_37  and  O_39
REMARK                            x       y       z     vdW  Elec       q    Type
REMARK                         _______ _______ _______ _____ _____    ______ ____
ROOT
ATOM      1  N   UNL     1      59.587 162.059  40.364  0.00  0.00    -0.287 N 
ATOM      2  C   UNL     1      59.348 163.151  39.464  0.00  0.00    +0.185 C 
ATOM      3  C   UNL     1      58.518 164.162  40.245  0.00  0.00    +0.183 C 
ATOM      4  O   UNL     1      58.359 163.791  41.555  0.00  0.00    -0.349 OA
ATOM      5  C   UNL     1      57.615 162.588  41.675  0.00  0.00    +0.153 C 
ATOM      6  C   UNL     1      58.361 161.478  40.974  0.00  0.00    +0.124 C 
ENDROOT
BRANCH   5   7
ATOM      7  C   UNL     1      56.222 162.808  41.183  0.00  0.00    +0.106 C 
ATOM      8  N   UNL     1      55.712 164.026  41.898  0.00  0.00    -0.293 NA
ATOM      9  C   UNL     1      54.616 164.482  41.085  0.00  0.00    +0.074 C 
ATOM     10  C   UNL     1      53.441 163.571  41.286  0.00  0.00    +0.043 C 
ATOM     11  C   UNL     1      53.863 162.191  41.600  0.00  0.00    -0.020 C 
ATOM     12  C   UNL     1      55.217 161.784  41.561  0.00  0.00    -0.006 C 
ATOM     13  C   UNL     1      55.442 160.482  41.883  0.00  0.00    +0.037 C 
ATOM     14  C   UNL     1      54.451 159.577  42.231  0.00  0.00    +0.167 C 
ATOM     15  C   UNL     1      53.142 159.999  42.261  0.00  0.00    +0.167 C 
ATOM     16  C   UNL     1      52.862 161.312  41.944  0.00  0.00    +0.035 C 
ATOM     17  H   UNL     1      56.439 164.739  41.959  0.00  0.00    +0.124 HD
BRANCH  15  18
ATOM     18  O   UNL     1      52.098 159.135  42.605  0.00  0.00    -0.503 OA
ATOM     19  H   UNL     1      51.781 159.111  43.486  0.00  0.00    +0.292 HD
ENDBRANCH  15  18
BRANCH  14  20
ATOM     20  O   UNL     1      54.725 158.258  42.550  0.00  0.00    -0.503 OA
ATOM     21  H   UNL     1      54.301 157.856  43.283  0.00  0.00    +0.292 HD
ENDBRANCH  14  20
ENDBRANCH   5   7
BRANCH   1  22
ATOM     22  C   UNL     1      60.792 161.462  40.724  0.00  0.00    +0.077 C 
ATOM     23  C   UNL     1      61.392 160.412  40.072  0.00  0.00    +0.156 C 
ATOM     24  C   UNL     1      62.602 159.862  40.510  0.00  0.00    +0.067 C 
ATOM     25  C   UNL     1      63.225 160.375  41.628  0.00  0.00    +0.136 C 
ATOM     26  C   UNL     1      62.638 161.425  42.291  0.00  0.00    +0.038 C 
ATOM     27  C   UNL     1      61.454 161.956  41.852  0.00  0.00    +0.020 C 
ATOM     28  F   UNL     1      60.781 159.913  38.981  0.00  0.00    -0.203 F 
BRANCH  25  29
ATOM     29  O   UNL     1      64.443 159.840  42.089  0.00  0.00    -0.505 OA
ATOM     30  H   UNL     1      65.187 160.398  42.202  0.00  0.00    +0.292 HD
ENDBRANCH  25  29
ENDBRANCH   1  22
BRANCH   2  31
ATOM     31  N   UNL     1      60.488 163.767  38.866  0.00  0.00    -0.229 N 
ATOM     32  C   UNL     1      61.245 163.516  37.680  0.00  0.00    +0.201 C 
ATOM     33  C   UNL     1      62.664 163.750  38.153  0.00  0.00    +0.134 C 
ATOM     34  N   UNL     1      62.523 164.880  39.036  0.00  0.00    -0.285 N 
ATOM     35  C   UNL     1      61.181 164.860  39.502  0.00  0.00    +0.306 C 
ATOM     36  O   UNL     1      60.645 165.659  40.342  0.00  0.00    -0.253 OA
ATOM     37  H   UNL     1      63.219 165.537  39.270  0.00  0.00    +0.151 HD
BRANCH  32  38
ATOM     38  N   UNL     1      61.008 164.336  36.537  0.00  0.00    -0.114 N 
ATOM     39  C   UNL     1      59.858 164.340  35.724  0.00  0.00    +0.422 C 
ATOM     40  O   UNL     1      58.838 163.631  35.854  0.00  0.00    -0.225 OA
BRANCH  39  41
ATOM     41  O   UNL     1      59.803 165.229  34.622  0.00  0.00    -0.465 OA
ATOM     42  H   UNL     1      59.389 164.962  33.825  0.00  0.00    +0.297 HD
ENDBRANCH  39  41
BRANCH  38  43
ATOM     43  S   UNL     1      62.300 165.476  36.109  0.00  0.00    +0.039 S 
ATOM     44  O   UNL     1      62.683 165.194  34.672  0.00  0.00    -0.060 OA
BRANCH  43  45
ATOM     45  O   UNL     1      61.713 167.078  36.178  0.00  0.00    -0.262 OA
ATOM     46  H   UNL     1      62.437 167.696  35.992  0.00  0.00    +0.244 HD
ENDBRANCH  43  45
ENDBRANCH  38  43
ENDBRANCH  32  38
ENDBRANCH   2  31
TORSDOF 10
ENDMDL
