REMARK  Name = =
REMARK  3 active torsions:
REMARK  status: ('A' for Active; 'I' for Inactive)
REMARK    1  A    between atoms: C_14  and  C_27
REMARK    2  A    between atoms: C_16  and  N_25
REMARK    3  A    between atoms: C_27  and  N_28
REMARK                            x       y       z     vdW  Elec       q    Type
REMARK                         _______ _______ _______ _____ _____    ______ ____
ROOT
ATOM      1  C   UNL     1      50.896 158.213  29.801  0.00  0.00    +0.080 C 
ATOM      2  C   UNL     1      50.357 159.168  30.621  0.00  0.00    +0.033 C 
ATOM      3  C   UNL     1      49.328 158.865  31.536  0.00  0.00    +0.082 C 
ATOM      4  C   UNL     1      48.842 157.584  31.637  0.00  0.00    +0.019 C 
ATOM      5  C   UNL     1      49.389 156.625  30.812  0.00  0.00    +0.003 C 
ATOM      6  C   UNL     1      50.400 156.925  29.903  0.00  0.00    +0.018 C 
ATOM      7  C   UNL     1      50.947 155.966  29.075  0.00  0.00    +0.003 C 
ATOM      8  C   UNL     1      51.947 156.230  28.164  0.00  0.00    +0.015 C 
ATOM      9  C   UNL     1      52.402 157.548  28.112  0.00  0.00    +0.081 C 
ATOM     10  N   UNL     1      51.883 158.494  28.910  0.00  0.00    -0.246 NA
ATOM     11  C   UNL     1      53.401 157.867  27.220  0.00  0.00    +0.019 C 
ATOM     12  C   UNL     1      53.957 156.904  26.380  0.00  0.00    +0.001 C 
ATOM     13  C   UNL     1      53.483 155.593  26.454  0.00  0.00    -0.003 C 
ATOM     14  C   UNL     1      52.485 155.262  27.342  0.00  0.00    -0.005 C 
ATOM     15  N   UNL     1      48.660 159.958  32.200  0.00  0.00    -0.231 NA
ATOM     16  C   UNL     1      48.928 161.198  31.980  0.00  0.00    +0.141 C 
ATOM     17  C   UNL     1      49.950 161.538  30.986  0.00  0.00    +0.086 C 
ATOM     18  C   UNL     1      50.971 160.487  30.737  0.00  0.00    +0.125 C 
ATOM     19  N   UNL     1      52.025 160.511  31.788  0.00  0.00    -0.266 N 
ATOM     20  C   UNL     1      53.223 160.910  31.145  0.00  0.00    +0.402 C 
ATOM     21  O   UNL     1      54.400 160.595  31.534  0.00  0.00    -0.226 OA
ATOM     22  O   UNL     1      52.860 161.678  30.057  0.00  0.00    -0.436 OA
ATOM     23  C   UNL     1      51.550 161.279  29.696  0.00  0.00    +0.191 C 
ATOM     24  C   UNL     1      50.593 162.326  30.148  0.00  0.00    +0.055 C 
ATOM     25  H   UNL     1      51.912 160.293  32.741  0.00  0.00    +0.153 HD
ENDROOT
BRANCH  16  26
ATOM     26  N   UNL     1      48.279 162.252  32.656  0.00  0.00    -0.228 NA
ATOM     27  C   UNL     1      48.053 162.150  33.920  0.00  0.00    +0.121 C 
ENDBRANCH  16  26
BRANCH  14  28
ATOM     28  C   UNL     1      51.999 153.864  27.403  0.00  0.00    +0.092 C 
BRANCH  28  29
ATOM     29  N   UNL     1      52.674 153.041  26.418  0.00  0.00    -0.317 NA
ATOM     30  H   UNL     1      52.325 152.084  26.477  0.00  0.00    +0.119 HD
ATOM     31  H   UNL     1      53.678 153.048  26.599  0.00  0.00    +0.119 HD
ENDBRANCH  28  29
ENDBRANCH  14  28
TORSDOF 3
