REMARK  Name = =
REMARK  10 active torsions:
REMARK  status: ('A' for Active; 'I' for Inactive)
REMARK    1  A    between atoms: N_1  and  C_19
REMARK    2  A    between atoms: C_2  and  N_27
REMARK    3  A    between atoms: C_5  and  C_7
REMARK    4  A    between atoms: C_14  and  O_18
REMARK    5  A    between atoms: C_15  and  O_17
REMARK    6  A    between atoms: C_22  and  O_26
REMARK    7  A    between atoms: C_28  and  N_33
REMARK    8  A    between atoms: N_33  and  S_37
REMARK    9  A    between atoms: C_34  and  O_36
REMARK   10  A    between atoms: S_37  and  O_39
REMARK                            x       y       z     vdW  Elec       q    Type
REMARK                         _______ _______ _______ _____ _____    ______ ____
ROOT
ATOM      1  N   UNL     1      51.089 158.639  29.427  0.00  0.00    -0.287 N 
ATOM      2  C   UNL     1      49.803 158.018  29.564  0.00  0.00    +0.185 C 
ATOM      3  C   UNL     1      50.068 156.630  30.134  0.00  0.00    +0.183 C 
ATOM      4  O   UNL     1      51.391 156.447  30.441  0.00  0.00    -0.349 OA
ATOM      5  C   UNL     1      52.212 156.493  29.284  0.00  0.00    +0.153 C 
ATOM      6  C   UNL     1      52.077 157.852  28.641  0.00  0.00    +0.124 C 
ENDROOT
BRANCH   5   7
ATOM      7  C   UNL     1      51.880 155.345  28.387  0.00  0.00    +0.106 C 
ATOM      8  N   UNL     1      52.276 154.103  29.132  0.00  0.00    -0.293 NA
ATOM      9  C   UNL     1      51.530 153.052  28.492  0.00  0.00    +0.074 C 
ATOM     10  C   UNL     1      52.151 152.747  27.161  0.00  0.00    +0.043 C 
ATOM     11  C   UNL     1      52.788 153.939  26.566  0.00  0.00    -0.020 C 
ATOM     12  C   UNL     1      52.677 155.226  27.142  0.00  0.00    -0.006 C 
ATOM     13  C   UNL     1      53.327 156.219  26.477  0.00  0.00    +0.037 C 
ATOM     14  C   UNL     1      54.059 156.035  25.314  0.00  0.00    +0.167 C 
ATOM     15  C   UNL     1      54.151 154.773  24.775  0.00  0.00    +0.167 C 
ATOM     16  C   UNL     1      53.510 153.732  25.413  0.00  0.00    +0.035 C 
ATOM     17  H   UNL     1      52.024 154.177  30.118  0.00  0.00    +0.124 HD
BRANCH  15  18
ATOM     18  O   UNL     1      54.875 154.523  23.605  0.00  0.00    -0.503 OA
ATOM     19  H   UNL     1      55.313 155.225  23.166  0.00  0.00    +0.292 HD
ENDBRANCH  15  18
BRANCH  14  20
ATOM     20  O   UNL     1      54.705 157.076  24.668  0.00  0.00    -0.503 OA
ATOM     21  H   UNL     1      54.657 157.945  25.016  0.00  0.00    +0.292 HD
ENDBRANCH  14  20
ENDBRANCH   5   7
BRANCH   1  22
ATOM     22  C   UNL     1      51.528 159.871  29.903  0.00  0.00    +0.077 C 
ATOM     23  C   UNL     1      50.965 161.090  29.612  0.00  0.00    +0.156 C 
ATOM     24  C   UNL     1      51.479 162.286  30.126  0.00  0.00    +0.067 C 
ATOM     25  C   UNL     1      52.584 162.260  30.950  0.00  0.00    +0.136 C 
ATOM     26  C   UNL     1      53.159 161.050  31.251  0.00  0.00    +0.038 C 
ATOM     27  C   UNL     1      52.646 159.886  30.743  0.00  0.00    +0.020 C 
ATOM     28  F   UNL     1      49.886 161.111  28.807  0.00  0.00    -0.203 F 
BRANCH  25  29
ATOM     29  O   UNL     1      53.121 163.449  31.480  0.00  0.00    -0.505 OA
ATOM     30  H   UNL     1      52.727 164.274  31.273  0.00  0.00    +0.292 HD
ENDBRANCH  25  29
ENDBRANCH   1  22
BRANCH   2  31
ATOM     31  N   UNL     1      48.820 158.714  30.330  0.00  0.00    -0.229 N 
ATOM     32  C   UNL     1      48.725 159.109  31.701  0.00  0.00    +0.201 C 
ATOM     33  C   UNL     1      47.268 158.837  32.009  0.00  0.00    +0.134 C 
ATOM     34  N   UNL     1      46.604 159.245  30.797  0.00  0.00    -0.285 N 
ATOM     35  C   UNL     1      47.564 159.129  29.756  0.00  0.00    +0.306 C 
ATOM     36  O   UNL     1      47.380 159.348  28.511  0.00  0.00    -0.253 OA
ATOM     37  H   UNL     1      45.670 159.545  30.708  0.00  0.00    +0.151 HD
BRANCH  32  38
ATOM     38  N   UNL     1      49.015 160.464  32.039  0.00  0.00    -0.114 N 
ATOM     39  C   UNL     1      48.452 161.618  31.461  0.00  0.00    +0.422 C 
ATOM     40  O   UNL     1      47.599 161.668  30.551  0.00  0.00    -0.225 OA
BRANCH  39  41
ATOM     41  O   UNL     1      48.869 162.889  31.929  0.00  0.00    -0.465 OA
ATOM     42  H   UNL     1      49.508 162.950  32.612  0.00  0.00    +0.297 HD
ENDBRANCH  39  41
BRANCH  38  43
ATOM     43  S   UNL     1      50.204 160.710  33.335  0.00  0.00    +0.039 S 
ATOM     44  O   UNL     1      50.531 162.188  33.362  0.00  0.00    -0.060 OA
BRANCH  43  45
ATOM     45  O   UNL     1      49.514 160.311  34.845  0.00  0.00    -0.262 OA
ATOM     46  H   UNL     1      49.292 159.367  34.860  0.00  0.00    +0.244 HD
ENDBRANCH  43  45
ENDBRANCH  38  43
ENDBRANCH  32  38
ENDBRANCH   2  31
TORSDOF 10
