REMARK  Name = =
REMARK  8 active torsions:
REMARK  status: ('A' for Active; 'I' for Inactive)
REMARK    1  A    between atoms: C_1  and  C_28
REMARK    2  A    between atoms: C_6  and  N_18
REMARK    3  A    between atoms: C_19  and  C_21
REMARK    4  A    between atoms: C_27  and  C_30
REMARK    5  A    between atoms: C_29  and  O_31
REMARK    6  A    between atoms: O_31  and  C_32
REMARK    7  A    between atoms: C_32  and  C_34
REMARK    8  A    between atoms: C_35  and  O_40
REMARK                            x       y       z     vdW  Elec       q    Type
REMARK                         _______ _______ _______ _____ _____    ______ ____
ROOT
ATOM      1  C   UNL     1      50.566 160.115  30.651  0.00  0.00    +0.056 C 
ATOM      2  C   UNL     1      49.240 159.858  31.164  0.00  0.00    +0.005 C 
ATOM      3  C   UNL     1      48.622 160.710  32.019  0.00  0.00    -0.025 C 
ATOM      4  C   UNL     1      49.293 161.843  32.398  0.00  0.00    -0.025 C 
ATOM      5  C   UNL     1      50.563 162.139  31.937  0.00  0.00    +0.011 C 
ATOM      6  C   UNL     1      51.158 161.238  31.063  0.00  0.00    +0.058 C 
ATOM      7  C   UNL     1      48.562 162.707  33.362  0.00  0.00    +0.022 C 
ATOM      8  C   UNL     1      48.883 162.185  34.732  0.00  0.00    +0.004 C 
ATOM      9  C   UNL     1      47.837 162.219  35.765  0.00  0.00    +0.000 C 
ATOM     10  C   UNL     1      46.407 162.337  35.265  0.00  0.00    +0.000 C 
ATOM     11  C   UNL     1      46.337 163.357  34.134  0.00  0.00    +0.000 C 
ATOM     12  C   UNL     1      47.184 162.907  32.962  0.00  0.00    +0.004 C 
ATOM     13  C   UNL     1      46.437 161.762  32.324  0.00  0.00    +0.005 C 
ATOM     14  C   UNL     1      47.219 160.463  32.476  0.00  0.00    +0.026 C 
ATOM     15  C   UNL     1      46.874 164.577  34.839  0.00  0.00    +0.000 C 
ATOM     16  C   UNL     1      46.120 164.517  36.170  0.00  0.00    +0.000 C 
ATOM     17  C   UNL     1      45.625 163.090  36.331  0.00  0.00    +0.000 C 
ENDROOT
BRANCH   6  18
ATOM     18  N   UNL     1      52.512 161.460  30.610  0.00  0.00    -0.279 N 
ATOM     19  C   UNL     1      53.528 161.679  31.568  0.00  0.00    +0.267 C 
ATOM     20  O   UNL     1      53.258 161.680  32.829  0.00  0.00    -0.268 OA
ATOM     21  H   UNL     1      52.724 161.459  29.649  0.00  0.00    +0.155 HD
BRANCH  19  22
ATOM     22  C   UNL     1      54.942 161.902  31.276  0.00  0.00    +0.135 C 
ATOM     23  C   UNL     1      55.443 162.448  30.116  0.00  0.00    +0.024 C 
ATOM     24  C   UNL     1      56.821 162.546  29.871  0.00  0.00    +0.003 C 
ATOM     25  C   UNL     1      57.729 162.077  30.828  0.00  0.00    +0.021 C 
ATOM     26  C   UNL     1      57.184 161.522  32.003  0.00  0.00    +0.099 C 
ATOM     27  N   UNL     1      55.860 161.473  32.145  0.00  0.00    -0.239 NA
ENDBRANCH  19  22
ENDBRANCH   6  18
BRANCH   1  29
ATOM     28  C   UNL     1      51.394 158.370  28.897  0.00  0.00    -0.006 C 
ATOM     29  C   UNL     1      51.016 159.163  29.687  0.00  0.00    -0.050 C 
BRANCH  28  31
ATOM     30  C   UNL     1      52.246 156.666  27.132  0.00  0.00    +0.135 C 
ATOM     31  C   UNL     1      51.803 157.528  28.037  0.00  0.00    +0.029 C 
BRANCH  30  32
ATOM     32  O   UNL     1      52.622 155.951  26.388  0.00  0.00    -0.367 OA
BRANCH  32  33
ATOM     33  C   UNL     1      52.961 155.301  25.311  0.00  0.00    +0.357 C 
ATOM     34  O   UNL     1      52.297 155.969  24.316  0.00  0.00    -0.244 OA
BRANCH  33  35
ATOM     35  C   UNL     1      53.768 154.193  24.950  0.00  0.00    +0.110 C 
ATOM     36  C   UNL     1      54.395 153.430  25.858  0.00  0.00    +0.140 C 
ATOM     37  C   UNL     1      55.275 152.395  25.510  0.00  0.00    +0.037 C 
ATOM     38  C   UNL     1      55.496 152.161  24.142  0.00  0.00    +0.003 C 
ATOM     39  C   UNL     1      54.852 152.940  23.244  0.00  0.00    +0.000 C 
ATOM     40  C   UNL     1      53.971 153.967  23.612  0.00  0.00    +0.010 C 
BRANCH  36  41
ATOM     41  O   UNL     1      54.178 153.654  27.240  0.00  0.00    -0.505 OA
ATOM     42  H   UNL     1      53.598 154.335  27.519  0.00  0.00    +0.292 HD
ENDBRANCH  36  41
ENDBRANCH  33  35
ENDBRANCH  32  33
ENDBRANCH  30  32
ENDBRANCH  28  31
ENDBRANCH   1  29
TORSDOF 8
