REMARK  Name = =
REMARK  1 active torsions:
REMARK  status: ('A' for Active; 'I' for Inactive)
REMARK    1  A    between atoms: N_7  and  N_8
REMARK                            x       y       z     vdW  Elec       q    Type
REMARK                         _______ _______ _______ _____ _____    ______ ____
ROOT
ATOM      1  C   UNL     1     -14.379  -3.866  25.266  0.00  0.00    +0.182 C 
ATOM      2  N   UNL     1     -13.217  -4.410  24.682  0.00  0.00    -0.290 N 
ATOM      3  C   UNL     1     -12.107  -3.662  24.170  0.00  0.00    +0.092 C 
ATOM      4  C   UNL     1     -11.030  -4.688  24.070  0.00  0.00    +0.023 C 
ATOM      5  C   UNL     1     -11.491  -5.914  24.254  0.00  0.00    +0.023 C 
ATOM      6  C   UNL     1     -12.948  -5.809  24.498  0.00  0.00    +0.092 C 
ATOM      7  N   UNL     1     -14.291  -2.749  25.882  0.00  0.00    -0.171 NA
ENDROOT
BRANCH   7   8
ATOM      8  N   UNL     1     -15.377  -2.125  26.495  0.00  0.00    -0.281 N 
ATOM      9  H   UNL     1     -15.254  -1.264  26.957  0.00  0.00    +0.164 HD
ATOM     10  H   UNL     1     -16.267  -2.545  26.466  0.00  0.00    +0.164 HD
ENDBRANCH   7   8
TORSDOF 1
