REMARK  Name = =
REMARK  0 active torsions:
REMARK  status: ('A' for Active; 'I' for Inactive)
REMARK                            x       y       z     vdW  Elec       q    Type
REMARK                         _______ _______ _______ _____ _____    ______ ____
ROOT
ATOM      1  C   UNL     1      48.748 157.448  30.379  0.00  0.00    -0.021 C 
ATOM      2  C   UNL     1      48.542 158.855  30.740  0.00  0.00    +0.052 C 
ATOM      3  C   UNL     1      49.644 159.535  30.545  0.00  0.00    -0.021 C 
ATOM      4  C   UNL     1      50.667 158.629  30.036  0.00  0.00    -0.004 C 
ATOM      5  C   UNL     1      52.003 158.856  29.671  0.00  0.00    -0.000 C 
ATOM      6  C   UNL     1      52.785 157.843  29.214  0.00  0.00    -0.000 C 
ATOM      7  C   UNL     1      52.236 156.588  29.118  0.00  0.00    -0.000 C 
ATOM      8  C   UNL     1      50.937 156.321  29.462  0.00  0.00    -0.000 C 
ATOM      9  C   UNL     1      50.146 157.368  29.929  0.00  0.00    -0.004 C 
ENDROOT
TORSDOF 0
