REMARK  Name = =
REMARK  0 active torsions:
REMARK  status: ('A' for Active; 'I' for Inactive)
REMARK                            x       y       z     vdW  Elec       q    Type
REMARK                         _______ _______ _______ _____ _____    ______ ____
ROOT
ATOM      1  N   UNL     1      60.347 163.086  39.958  0.00  0.00    -0.284 N 
ATOM      2  C   UNL     1      59.750 161.853  39.543  0.00  0.00    +0.046 C 
ATOM      3  C   UNL     1      60.187 160.992  38.541  0.00  0.00    -0.009 C 
ATOM      4  C   UNL     1      59.475 159.839  38.284  0.00  0.00    -0.003 C 
ATOM      5  C   UNL     1      58.324 159.521  39.008  0.00  0.00    -0.000 C 
ATOM      6  C   UNL     1      57.894 160.375  39.998  0.00  0.00    +0.001 C 
ATOM      7  C   UNL     1      58.612 161.528  40.253  0.00  0.00    +0.014 C 
ATOM      8  C   UNL     1      61.375 161.158  37.675  0.00  0.00    +0.028 C 
ATOM      9  C   UNL     1      62.537 161.713  38.494  0.00  0.00    +0.014 C 
ATOM     10  C   UNL     1      62.518 163.212  38.549  0.00  0.00    +0.086 C 
ATOM     11  C   UNL     1      61.615 163.641  39.643  0.00  0.00    +0.226 C 
ATOM     12  O   UNL     1      62.065 164.594  40.330  0.00  0.00    -0.275 OA
ATOM     13  H   UNL     1      59.791 163.636  40.556  0.00  0.00    +0.155 HD
ENDROOT
TORSDOF 0
