REMARK  Name = =
REMARK  1 active torsions:
REMARK  status: ('A' for Active; 'I' for Inactive)
REMARK    1  A    between atoms: S_1  and  N_4
REMARK                            x       y       z     vdW  Elec       q    Type
REMARK                         _______ _______ _______ _____ _____    ______ ____
ROOT
ATOM      1  S   UNL     1      51.385 155.600  29.007  0.00  0.00    +0.017 S 
ATOM      2  O   UNL     1      51.690 154.179  29.428  0.00  0.00    -0.161 OA
ATOM      3  O   UNL     1      50.264 156.098  29.857  0.00  0.00    -0.161 OA
ATOM      4  H   UNL     1      51.007 155.657  27.702  0.00  0.00    +0.229 HD
ENDROOT
BRANCH   1   5
ATOM      5  N   UNL     1      52.806 156.578  29.159  0.00  0.00    -0.211 NA
ATOM      6  H   UNL     1      53.126 156.564  30.127  0.00  0.00    +0.144 HD
ATOM      7  H   UNL     1      52.590 157.537  28.886  0.00  0.00    +0.144 HD
ENDBRANCH   1   5
TORSDOF 1
