REMARK  Name = =
REMARK  4 active torsions:
REMARK  status: ('A' for Active; 'I' for Inactive)
REMARK    1  A    between atoms: C_1  and  P_10
REMARK    2  A    between atoms: P_10  and  O_15
REMARK    3  A    between atoms: O_11  and  O_13
REMARK    4  A    between atoms: O_11  and  O_14
REMARK                            x       y       z     vdW  Elec       q    Type
REMARK                         _______ _______ _______ _____ _____    ______ ____
ROOT
ATOM      1  C   UNL     1      49.243 159.534  31.991  0.00  0.00    +0.092 C 
ATOM      2  C   UNL     1      49.210 158.577  30.829  0.00  0.00    -0.015 C 
ATOM      3  C   UNL     1      50.234 158.767  30.044  0.00  0.00    -0.004 C 
ATOM      4  C   UNL     1      51.042 159.836  30.577  0.00  0.00    -0.004 C 
ATOM      5  C   UNL     1      52.219 160.365  30.064  0.00  0.00    -0.000 C 
ATOM      6  C   UNL     1      52.848 161.393  30.722  0.00  0.00    -0.000 C 
ATOM      7  C   UNL     1      52.314 161.889  31.875  0.00  0.00    -0.000 C 
ATOM      8  C   UNL     1      51.135 161.349  32.374  0.00  0.00    -0.004 C 
ATOM      9  C   UNL     1      50.478 160.317  31.741  0.00  0.00    -0.012 C 
ENDROOT
BRANCH   1  10
ATOM     10  P   UNL     1      47.779 160.553  32.095  0.00  0.00    +0.096 P 
BRANCH  10  11
ATOM     11  O   UNL     1      47.870 161.825  33.236  0.00  0.00    -0.365 OA
ATOM     12  H   UNL     1      47.039 162.326  33.229  0.00  0.00    +0.215 HD
ENDBRANCH  10  11
ENDBRANCH   1  10
TORSDOF 2
REMARK  Name = =
REMARK  4 active torsions:
REMARK  status: ('A' for Active; 'I' for Inactive)
REMARK    1  A    between atoms: C_1  and  P_10
REMARK    2  A    between atoms: P_10  and  O_15
REMARK    3  A    between atoms: O_11  and  O_13
REMARK    4  A    between atoms: O_11  and  O_14
REMARK                            x       y       z     vdW  Elec       q    Type
REMARK                         _______ _______ _______ _____ _____    ______ ____
ROOT
ATOM      1  O   UNL     1      46.954 160.372  30.820  0.00  0.00    -0.072 OA
ENDROOT
BRANCH   1   2
ATOM      2  O   UNL     1      47.940 161.439  30.676  0.00  0.00    -0.220 OA
ATOM      3  H   UNL     1      47.845 161.851  29.803  0.00  0.00    +0.256 HD
ENDBRANCH   1   2
BRANCH   1   4
ATOM      4  O   UNL     1      46.600 159.404  31.880  0.00  0.00    -0.220 OA
ATOM      5  H   UNL     1      45.866 158.847  31.577  0.00  0.00    +0.256 HD
ENDBRANCH   1   4
TORSDOF 2
REMARK  Name = =
REMARK  4 active torsions:
REMARK  status: ('A' for Active; 'I' for Inactive)
REMARK    1  A    between atoms: C_1  and  P_10
REMARK    2  A    between atoms: P_10  and  O_15
REMARK    3  A    between atoms: O_11  and  O_13
REMARK    4  A    between atoms: O_11  and  O_14
REMARK                            x       y       z     vdW  Elec       q    Type
REMARK                         _______ _______ _______ _____ _____    ______ ____
ROOT
ATOM      1  H   UNK     1      47.881 160.394  33.512  0.00  0.00    +0.000 HD
ENDROOT
TORSDOF 0
