REMARK  Name = =
REMARK  2 active torsions:
REMARK  status: ('A' for Active; 'I' for Inactive)
REMARK    1  A    between atoms: N_1  and  N_13
REMARK    2  A    between atoms: C_17  and  O_19
REMARK                            x       y       z     vdW  Elec       q    Type
REMARK                         _______ _______ _______ _____ _____    ______ ____
ROOT
ATOM      1  N   UNL     1      60.473 163.139  40.195  0.00  0.00    -0.173 N 
ATOM      2  C   UNL     1      59.809 162.003  39.626  0.00  0.00    +0.070 C 
ATOM      3  C   UNL     1      60.204 161.201  38.551  0.00  0.00    -0.007 C 
ATOM      4  C   UNL     1      59.434 160.151  38.143  0.00  0.00    -0.003 C 
ATOM      5  C   UNL     1      58.260 159.911  38.823  0.00  0.00    -0.000 C 
ATOM      6  C   UNL     1      57.860 160.695  39.885  0.00  0.00    +0.001 C 
ATOM      7  C   UNL     1      58.637 161.768  40.310  0.00  0.00    +0.016 C 
ATOM      8  C   UNL     1      61.461 161.397  37.765  0.00  0.00    +0.028 C 
ATOM      9  C   UNL     1      62.588 161.368  38.793  0.00  0.00    +0.014 C 
ATOM     10  C   UNL     1      62.903 162.781  39.219  0.00  0.00    +0.088 C 
ATOM     11  C   UNL     1      61.868 163.399  40.060  0.00  0.00    +0.246 C 
ATOM     12  O   UNL     1      62.292 164.325  40.792  0.00  0.00    -0.273 OA
ENDROOT
BRANCH   1  13
ATOM     13  N   UNL     1      59.671 164.024  40.917  0.00  0.00    -0.097 N 
ATOM     14  C   UNL     1      59.582 163.979  42.330  0.00  0.00    +0.326 C 
ATOM     15  O   UNL     1      58.861 164.777  42.981  0.00  0.00    -0.251 OA
ATOM     16  N   UNL     1      60.324 163.013  43.034  0.00  0.00    -0.312 N 
ATOM     17  C   UNL     1      58.904 165.017  40.242  0.00  0.00    +0.426 C 
ATOM     18  O   UNL     1      58.936 165.111  38.988  0.00  0.00    -0.224 OA
ATOM     19  H   UNL     1      60.895 162.378  42.544  0.00  0.00    +0.147 HD
ATOM     20  H   UNL     1      60.272 162.972  44.016  0.00  0.00    +0.147 HD
BRANCH  17  21
ATOM     21  O   UNL     1      58.101 165.909  40.934  0.00  0.00    -0.465 OA
ATOM     22  H   UNL     1      58.053 165.868  41.869  0.00  0.00    +0.297 HD
ENDBRANCH  17  21
ENDBRANCH   1  13
TORSDOF 2
