REMARK  Name = =
REMARK  6 active torsions:
REMARK  status: ('A' for Active; 'I' for Inactive)
REMARK    1  A    between atoms: C_1  and  P_10
REMARK    2  A    between atoms: C_1  and  O_15
REMARK    3  A    between atoms: P_10  and  O_11
REMARK    4  A    between atoms: P_10  and  O_12
REMARK    5  A    between atoms: O_11  and  O_14
REMARK    6  A    between atoms: O_15  and  O_16
REMARK                            x       y       z     vdW  Elec       q    Type
REMARK                         _______ _______ _______ _____ _____    ______ ____
ROOT
ATOM      1  C   UNL     1      49.378 159.648  31.645  0.00  0.00    +0.217 C 
ATOM      2  C   UNL     1      49.647 158.534  30.730  0.00  0.00    +0.016 C 
ATOM      3  C   UNL     1      50.812 158.733  30.149  0.00  0.00    -0.002 C 
ATOM      4  C   UNL     1      51.430 159.967  30.600  0.00  0.00    -0.001 C 
ATOM      5  C   UNL     1      52.626 160.610  30.297  0.00  0.00    -0.000 C 
ATOM      6  C   UNL     1      52.926 161.804  30.918  0.00  0.00    -0.000 C 
ATOM      7  C   UNL     1      52.059 162.359  31.823  0.00  0.00    -0.000 C 
ATOM      8  C   UNL     1      50.867 161.726  32.129  0.00  0.00    -0.001 C 
ATOM      9  C   UNL     1      50.566 160.518  31.501  0.00  0.00    +0.016 C 
ENDROOT
BRANCH   1  10
ATOM     10  P   UNL     1      47.819 160.522  31.280  0.00  0.00    +0.169 P 
ATOM     11  H   UNL     1      46.876 161.485  31.577  0.00  0.00    +0.117 HD
BRANCH  10  12
ATOM     12  O   UNL     1      47.932 162.037  30.503  0.00  0.00    -0.352 OA
ATOM     13  H   UNL     1      48.697 162.038  29.907  0.00  0.00    +0.217 HD
ENDBRANCH  10  12
BRANCH  10  14
ATOM     14  O   UNL     1      47.120 159.168  31.447  0.00  0.00    -0.194 OA
BRANCH  14  15
ATOM     15  O   UNL     1      47.191 159.544  30.019  0.00  0.00    -0.245 OA
ATOM     16  H   UNL     1      46.778 158.851  29.481  0.00  0.00    +0.253 HD
ENDBRANCH  14  15
ENDBRANCH  10  14
ENDBRANCH   1  10
BRANCH   1  17
ATOM     17  O   UNL     1      49.327 159.212  32.971  0.00  0.00    -0.212 OA
BRANCH  17  18
ATOM     18  O   UNL     1      49.113 160.174  33.810  0.00  0.00    -0.248 OA
ATOM     19  H   UNL     1      49.087 159.817  34.712  0.00  0.00    +0.253 HD
ENDBRANCH  17  18
ENDBRANCH   1  17
TORSDOF 6
REMARK  Name = =
REMARK  6 active torsions:
REMARK  status: ('A' for Active; 'I' for Inactive)
REMARK    1  A    between atoms: C_1  and  P_10
REMARK    2  A    between atoms: C_1  and  O_15
REMARK    3  A    between atoms: P_10  and  O_11
REMARK    4  A    between atoms: P_10  and  O_12
REMARK    5  A    between atoms: O_11  and  O_14
REMARK    6  A    between atoms: O_15  and  O_16
REMARK                            x       y       z     vdW  Elec       q    Type
REMARK                         _______ _______ _______ _____ _____    ______ ____
ROOT
ATOM      1  O   HOH     1      46.764 160.199  32.536  0.00  0.00    -0.253 OA
ATOM      2  H   HOH     0      47.734 160.199  32.536  0.00  0.00    +0.253 HD
ENDROOT
TORSDOF 0
