REMARK  Name = =
REMARK  7 active torsions:
REMARK  status: ('A' for Active; 'I' for Inactive)
REMARK    1  A    between atoms: N_1  and  N_4
REMARK    2  A    between atoms: N_1  and  S_6
REMARK    3  A    between atoms: N_1  and  O_9
REMARK    4  A    between atoms: C_2  and  O_5
REMARK    5  A    between atoms: O_9  and  C_10
REMARK    6  A    between atoms: C_11  and  O_17
REMARK    7  A    between atoms: C_14  and  O_16
REMARK                            x       y       z     vdW  Elec       q    Type
REMARK                         _______ _______ _______ _____ _____    ______ ____
ROOT
ATOM      1  N   UNL     1      54.491 153.238  25.540  0.00  0.00    +0.082 NA
ENDROOT
BRANCH   1   4
ATOM      2  C   UNL     1      56.600 152.038  25.782  0.00  0.00    +0.416 C 
ATOM      3  O   UNL     1      56.159 151.015  25.215  0.00  0.00    -0.225 OA
ATOM      4  N   UNL     1      55.772 153.167  25.953  0.00  0.00    -0.161 N 
ATOM      5  H   UNL     1      56.155 153.954  26.403  0.00  0.00    +0.177 HD
BRANCH   2   6
ATOM      6  O   UNL     1      57.925 152.008  26.229  0.00  0.00    -0.465 OA
ATOM      7  H   UNL     1      58.292 152.756  26.659  0.00  0.00    +0.297 HD
ENDBRANCH   2   6
ENDBRANCH   1   4
BRANCH   1   8
ATOM      8  S   UNL     1      54.115 153.681  23.983  0.00  0.00    +0.069 S 
ATOM      9  O   UNL     1      53.318 152.654  23.215  0.00  0.00    -0.157 OA
ATOM     10  O   UNL     1      55.390 154.038  23.236  0.00  0.00    -0.157 OA
ATOM     11  H   UNL     1      53.298 154.764  24.079  0.00  0.00    +0.235 HD
ENDBRANCH   1   8
BRANCH   1  12
ATOM     12  O   UNL     1      53.519 152.870  26.371  0.00  0.00    -0.362 OA
BRANCH  12  13
ATOM     13  C   UNL     1      52.937 153.801  27.220  0.00  0.00    +0.206 C 
ATOM     14  C   UNL     1      52.074 153.326  28.210  0.00  0.00    +0.171 C 
ATOM     15  C   UNL     1      51.438 154.139  29.110  0.00  0.00    +0.043 C 
ATOM     16  C   UNL     1      51.667 155.492  29.023  0.00  0.00    +0.040 C 
ATOM     17  C   UNL     1      52.510 155.990  28.061  0.00  0.00    +0.137 C 
ATOM     18  C   UNL     1      53.145 155.157  27.159  0.00  0.00    +0.079 C 
BRANCH  17  19
ATOM     19  O   UNL     1      52.711 157.366  28.013  0.00  0.00    -0.505 OA
ATOM     20  H   UNL     1      52.277 157.925  28.628  0.00  0.00    +0.292 HD
ENDBRANCH  17  19
BRANCH  14  21
ATOM     21  O   UNL     1      51.853 151.956  28.283  0.00  0.00    -0.503 OA
ATOM     22  H   UNL     1      52.277 151.380  27.678  0.00  0.00    +0.292 HD
ENDBRANCH  14  21
ENDBRANCH  12  13
ENDBRANCH   1  12
TORSDOF 7
