REMARK  Name = =
REMARK  8 active torsions:
REMARK  status: ('A' for Active; 'I' for Inactive)
REMARK    1  A    between atoms: N_1  and  N_4
REMARK    2  A    between atoms: N_1  and  S_8
REMARK    3  A    between atoms: N_1  and  O_11
REMARK    4  A    between atoms: C_2  and  O_5
REMARK    5  A    between atoms: O_5  and  N_6
REMARK    6  A    between atoms: O_11  and  C_12
REMARK    7  A    between atoms: C_13  and  O_19
REMARK    8  A    between atoms: C_16  and  O_18
REMARK                            x       y       z     vdW  Elec       q    Type
REMARK                         _______ _______ _______ _____ _____    ______ ____
ROOT
ATOM      1  N   UNL     1      54.629 153.673  25.296  0.00  0.00    +0.082 NA
ENDROOT
BRANCH   1   4
ATOM      2  C   UNL     1      56.616 152.469  26.240  0.00  0.00    +0.438 C 
ATOM      3  O   UNL     1      55.986 152.031  27.223  0.00  0.00    -0.223 OA
ATOM      4  N   UNL     1      55.939 153.269  25.310  0.00  0.00    -0.160 N 
ATOM      5  H   UNL     1      56.485 153.588  24.555  0.00  0.00    +0.178 HD
BRANCH   2   6
ATOM      6  O   UNL     1      57.961 152.146  26.113  0.00  0.00    -0.332 OA
BRANCH   6   7
ATOM      7  N   UNL     1      58.532 150.957  26.474  0.00  0.00    -0.021 NA
ATOM      8  C   UNL     1      59.287 151.221  27.703  0.00  0.00    +0.158 C 
ENDBRANCH   6   7
ENDBRANCH   2   6
ENDBRANCH   1   4
BRANCH   1   9
ATOM      9  S   UNL     1      53.910 153.535  23.726  0.00  0.00    +0.069 S 
ATOM     10  O   UNL     1      52.728 154.454  23.682  0.00  0.00    -0.157 OA
ATOM     11  O   UNL     1      54.879 153.988  22.642  0.00  0.00    -0.157 OA
ATOM     12  H   UNL     1      53.566 152.237  23.510  0.00  0.00    +0.235 HD
ENDBRANCH   1   9
BRANCH   1  13
ATOM     13  O   UNL     1      53.820 153.127  26.252  0.00  0.00    -0.362 OA
BRANCH  13  14
ATOM     14  C   UNL     1      53.071 153.896  27.128  0.00  0.00    +0.206 C 
ATOM     15  C   UNL     1      52.158 153.222  27.920  0.00  0.00    +0.171 C 
ATOM     16  C   UNL     1      51.395 153.948  28.807  0.00  0.00    +0.043 C 
ATOM     17  C   UNL     1      51.539 155.317  28.904  0.00  0.00    +0.040 C 
ATOM     18  C   UNL     1      52.443 156.011  28.126  0.00  0.00    +0.137 C 
ATOM     19  C   UNL     1      53.206 155.277  27.233  0.00  0.00    +0.079 C 
BRANCH  18  20
ATOM     20  O   UNL     1      52.532 157.379  28.275  0.00  0.00    -0.505 OA
ATOM     21  H   UNL     1      51.987 157.819  28.898  0.00  0.00    +0.292 HD
ENDBRANCH  18  20
BRANCH  15  22
ATOM     22  O   UNL     1      52.018 151.833  27.813  0.00  0.00    -0.503 OA
ATOM     23  H   UNL     1      52.545 151.354  27.204  0.00  0.00    +0.292 HD
ENDBRANCH  15  22
ENDBRANCH  13  14
ENDBRANCH   1  13
TORSDOF 8
