REMARK  Name = =
REMARK  5 active torsions:
REMARK  status: ('A' for Active; 'I' for Inactive)
REMARK    1  A    between atoms: C_1  and  O_15
REMARK    2  A    between atoms: O_12  and  O_13
REMARK    3  A    between atoms: O_15  and  O_16
REMARK    4  A    between atoms: O_16  and  C_17
REMARK    5  A    between atoms: C_18  and  C_19
REMARK                            x       y       z     vdW  Elec       q    Type
REMARK                         _______ _______ _______ _____ _____    ______ ____
ROOT
ATOM      1  C   UNL     1      51.387 160.605  31.255  0.00  0.00    +0.209 C 
ATOM      2  C   UNL     1      51.976 159.270  31.141  0.00  0.00    +0.012 C 
ATOM      3  C   UNL     1      51.424 158.617  30.155  0.00  0.00    -0.002 C 
ATOM      4  C   UNL     1      50.423 159.487  29.547  0.00  0.00    -0.001 C 
ATOM      5  C   UNL     1      49.568 159.237  28.457  0.00  0.00    -0.000 C 
ATOM      6  C   UNL     1      48.687 160.209  28.041  0.00  0.00    -0.000 C 
ATOM      7  C   UNL     1      48.671 161.409  28.713  0.00  0.00    -0.000 C 
ATOM      8  C   UNL     1      49.497 161.667  29.774  0.00  0.00    -0.001 C 
ATOM      9  C   UNL     1      50.399 160.686  30.208  0.00  0.00    +0.013 C 
ENDROOT
BRANCH   1  10
ATOM     10  O   UNL     1      50.672 160.563  32.487  0.00  0.00    -0.166 OA
BRANCH  10  11
ATOM     11  O   UNL     1      50.017 159.403  32.582  0.00  0.00    -0.330 OA
BRANCH  11  12
ATOM     12  C   UNL     1      48.640 159.301  32.522  0.00  0.00    +0.221 C 
ATOM     13  C   UNL     1      47.885 160.068  31.774  0.00  0.00    +0.056 C 
BRANCH  13  14
ATOM     14  C   UNL     1      46.444 159.880  31.782  0.00  0.00    +0.061 C 
ATOM     15  C   UNL     1      45.727 160.220  30.739  0.00  0.00    +0.012 C 
ATOM     16 CL   UNL     1      45.636 159.193  33.195  0.00  0.00    -0.082 Cl
ENDBRANCH  13  14
ENDBRANCH  11  12
ENDBRANCH  10  11
ENDBRANCH   1  10
TORSDOF 4
REMARK  Name = =
REMARK  5 active torsions:
REMARK  status: ('A' for Active; 'I' for Inactive)
REMARK    1  A    between atoms: C_1  and  O_15
REMARK    2  A    between atoms: O_12  and  O_13
REMARK    3  A    between atoms: O_15  and  O_16
REMARK    4  A    between atoms: O_16  and  C_17
REMARK    5  A    between atoms: C_18  and  C_19
REMARK                            x       y       z     vdW  Elec       q    Type
REMARK                         _______ _______ _______ _____ _____    ______ ____
ROOT
ATOM      1  P   UNL     1      52.518 161.967  31.397  0.00  0.00    +0.000 P 
ENDROOT
TORSDOF 0
REMARK  Name = =
REMARK  5 active torsions:
REMARK  status: ('A' for Active; 'I' for Inactive)
REMARK    1  A    between atoms: C_1  and  O_15
REMARK    2  A    between atoms: O_12  and  O_13
REMARK    3  A    between atoms: O_15  and  O_16
REMARK    4  A    between atoms: O_16  and  C_17
REMARK    5  A    between atoms: C_18  and  C_19
REMARK                            x       y       z     vdW  Elec       q    Type
REMARK                         _______ _______ _______ _____ _____    ______ ____
ROOT
ATOM      1  O   HOH     1      53.713 161.415  32.124  0.00  0.00    -0.253 OA
ATOM      2  H   HOH     0      54.683 161.415  32.124  0.00  0.00    +0.253 HD
ENDROOT
TORSDOF 0
REMARK  Name = =
REMARK  5 active torsions:
REMARK  status: ('A' for Active; 'I' for Inactive)
REMARK    1  A    between atoms: C_1  and  O_15
REMARK    2  A    between atoms: O_12  and  O_13
REMARK    3  A    between atoms: O_15  and  O_16
REMARK    4  A    between atoms: O_16  and  C_17
REMARK    5  A    between atoms: C_18  and  C_19
REMARK                            x       y       z     vdW  Elec       q    Type
REMARK                         _______ _______ _______ _____ _____    ______ ____
ROOT
ATOM      1  O   UNL     1      51.765 162.719  32.712  0.00  0.00    -0.253 OA
ATOM      2  H   UNL     1      51.175 161.957  32.823  0.00  0.00    +0.253 HD
ENDROOT
BRANCH   1   3
ATOM      3  O   UNL     1      51.586 163.355  31.127  0.00  0.00    -0.253 OA
ATOM      4  H   UNL     1      52.176 164.117  31.016  0.00  0.00    +0.253 HD
ENDBRANCH   1   3
TORSDOF 1
REMARK  Name = =
REMARK  5 active torsions:
REMARK  status: ('A' for Active; 'I' for Inactive)
REMARK    1  A    between atoms: C_1  and  O_15
REMARK    2  A    between atoms: O_12  and  O_13
REMARK    3  A    between atoms: O_15  and  O_16
REMARK    4  A    between atoms: O_16  and  C_17
REMARK    5  A    between atoms: C_18  and  C_19
REMARK                            x       y       z     vdW  Elec       q    Type
REMARK                         _______ _______ _______ _____ _____    ______ ____
ROOT
ATOM      1  O   HOH     1      53.796 162.163  30.289  0.00  0.00    -0.253 OA
ATOM      2  H   HOH     0      54.766 162.163  30.289  0.00  0.00    +0.253 HD
ENDROOT
TORSDOF 0
