REMARK  Name = =
REMARK  9 active torsions:
REMARK  status: ('A' for Active; 'I' for Inactive)
REMARK    1  A    between atoms: N_1  and  N_4
REMARK    2  A    between atoms: N_1  and  S_15
REMARK    3  A    between atoms: N_1  and  O_18
REMARK    4  A    between atoms: C_2  and  O_5
REMARK    5  A    between atoms: O_5  and  N_6
REMARK    6  A    between atoms: N_6  and  C_8
REMARK    7  A    between atoms: O_18  and  C_19
REMARK    8  A    between atoms: C_20  and  O_26
REMARK    9  A    between atoms: C_23  and  O_25
REMARK                            x       y       z     vdW  Elec       q    Type
REMARK                         _______ _______ _______ _____ _____    ______ ____
ROOT
ATOM      1  N   UNL     1      54.446 153.439  25.848  0.00  0.00    +0.082 NA
ENDROOT
BRANCH   1   4
ATOM      2  C   UNL     1      52.789 154.504  27.303  0.00  0.00    +0.437 C 
ATOM      3  O   UNL     1      51.938 154.405  26.419  0.00  0.00    -0.223 OA
ATOM      4  N   UNL     1      54.106 154.025  27.066  0.00  0.00    -0.160 N 
ATOM      5  H   UNL     1      54.787 154.108  27.772  0.00  0.00    +0.178 HD
BRANCH   2   6
ATOM      6  O   UNL     1      52.446 155.072  28.485  0.00  0.00    -0.347 OA
BRANCH   6   7
ATOM      7  N   UNL     1      51.259 155.449  28.967  0.00  0.00    -0.088 NA
ATOM      8  C   UNL     1      50.197 155.628  28.062  0.00  0.00    +0.137 C 
BRANCH   7   9
ATOM      9  C   UNL     1      51.480 156.457  29.960  0.00  0.00    +0.211 C 
ATOM     10  O   UNL     1      52.540 157.289  29.686  0.00  0.00    -0.330 OA
ATOM     11  C   UNL     1      52.240 158.426  28.987  0.00  0.00    +0.208 C 
ATOM     12  C   UNL     1      51.086 159.173  29.510  0.00  0.00    +0.181 C 
ATOM     13  O   UNL     1      50.728 160.199  28.979  0.00  0.00    -0.293 OA
ATOM     14  C   UNL     1      50.407 158.587  30.710  0.00  0.00    +0.071 C 
ATOM     15  C   UNL     1      50.223 157.108  30.376  0.00  0.00    +0.058 C 
ENDBRANCH   7   9
ENDBRANCH   6   7
ENDBRANCH   2   6
ENDBRANCH   1   4
BRANCH   1  16
ATOM     16  S   UNL     1      55.418 154.479  24.886  0.00  0.00    +0.069 S 
ATOM     17  O   UNL     1      55.609 154.009  23.494  0.00  0.00    -0.157 OA
ATOM     18  O   UNL     1      54.711 155.834  24.866  0.00  0.00    -0.157 OA
ATOM     19  H   UNL     1      56.664 154.529  25.430  0.00  0.00    +0.235 HD
ENDBRANCH   1  16
BRANCH   1  20
ATOM     20  O   UNL     1      53.426 152.835  25.211  0.00  0.00    -0.362 OA
BRANCH  20  21
ATOM     21  C   UNL     1      53.332 151.434  25.280  0.00  0.00    +0.206 C 
ATOM     22  C   UNL     1      52.437 150.853  26.163  0.00  0.00    +0.171 C 
ATOM     23  C   UNL     1      52.315 149.459  26.259  0.00  0.00    +0.043 C 
ATOM     24  C   UNL     1      53.087 148.635  25.471  0.00  0.00    +0.040 C 
ATOM     25  C   UNL     1      53.975 149.200  24.592  0.00  0.00    +0.137 C 
ATOM     26  C   UNL     1      54.089 150.589  24.504  0.00  0.00    +0.079 C 
BRANCH  25  27
ATOM     27  O   UNL     1      54.777 148.441  23.776  0.00  0.00    -0.505 OA
ATOM     28  H   UNL     1      54.727 147.506  23.808  0.00  0.00    +0.292 HD
ENDBRANCH  25  27
BRANCH  22  29
ATOM     29  O   UNL     1      51.666 151.681  26.953  0.00  0.00    -0.503 OA
ATOM     30  H   UNL     1      51.754 152.611  26.882  0.00  0.00    +0.292 HD
ENDBRANCH  22  29
ENDBRANCH  20  21
ENDBRANCH   1  20
TORSDOF 9
