REMARK  Name = =
REMARK  4 active torsions:
REMARK  status: ('A' for Active; 'I' for Inactive)
REMARK    1  A    between atoms: C_1  and  O_16
REMARK    2  A    between atoms: O_16  and  O_17
REMARK    3  A    between atoms: O_17  and  C_18
REMARK    4  A    between atoms: C_19  and  C_20
REMARK                            x       y       z     vdW  Elec       q    Type
REMARK                         _______ _______ _______ _____ _____    ______ ____
ROOT
ATOM      1  C   UNL     1      49.749 159.952  31.293  0.00  0.00    +0.209 C 
ATOM      2  C   UNL     1      48.486 160.555  30.847  0.00  0.00    +0.012 C 
ATOM      3  C   UNL     1      47.835 159.687  30.110  0.00  0.00    -0.002 C 
ATOM      4  C   UNL     1      48.605 158.446  30.004  0.00  0.00    -0.001 C 
ATOM      5  C   UNL     1      48.319 157.256  29.331  0.00  0.00    -0.000 C 
ATOM      6  C   UNL     1      49.238 156.239  29.406  0.00  0.00    -0.000 C 
ATOM      7  C   UNL     1      50.408 156.368  30.116  0.00  0.00    -0.000 C 
ATOM      8  C   UNL     1      50.653 157.540  30.758  0.00  0.00    -0.001 C 
ATOM      9  C   UNL     1      49.759 158.608  30.719  0.00  0.00    +0.013 C 
ENDROOT
BRANCH   1  10
ATOM     10  O   UNL     1      49.816 159.909  32.712  0.00  0.00    -0.166 OA
BRANCH  10  11
ATOM     11  O   UNL     1      48.562 159.865  33.134  0.00  0.00    -0.330 OA
BRANCH  11  12
ATOM     12  C   UNL     1      48.040 160.624  34.149  0.00  0.00    +0.221 C 
ATOM     13  C   UNL     1      48.299 161.920  34.258  0.00  0.00    +0.056 C 
BRANCH  13  14
ATOM     14  C   UNL     1      47.737 162.702  35.339  0.00  0.00    +0.061 C 
ATOM     15  C   UNL     1      47.436 163.955  35.148  0.00  0.00    +0.012 C 
ATOM     16 CL   UNL     1      47.473 161.945  36.887  0.00  0.00    -0.082 Cl
ENDBRANCH  13  14
ENDBRANCH  11  12
ENDBRANCH  10  11
ENDBRANCH   1  10
TORSDOF 4
REMARK  Name = =
REMARK  4 active torsions:
REMARK  status: ('A' for Active; 'I' for Inactive)
REMARK    1  A    between atoms: C_1  and  O_16
REMARK    2  A    between atoms: O_16  and  O_17
REMARK    3  A    between atoms: O_17  and  C_18
REMARK    4  A    between atoms: C_19  and  C_20
REMARK                            x       y       z     vdW  Elec       q    Type
REMARK                         _______ _______ _______ _____ _____    ______ ____
ROOT
ATOM      1  P   UNL     1      51.127 160.979  30.800  0.00  0.00    +0.000 P 
ENDROOT
TORSDOF 0
REMARK  Name = =
REMARK  4 active torsions:
REMARK  status: ('A' for Active; 'I' for Inactive)
REMARK    1  A    between atoms: C_1  and  O_16
REMARK    2  A    between atoms: O_16  and  O_17
REMARK    3  A    between atoms: O_17  and  C_18
REMARK    4  A    between atoms: C_19  and  C_20
REMARK                            x       y       z     vdW  Elec       q    Type
REMARK                         _______ _______ _______ _____ _____    ______ ____
ROOT
ATOM      1  O   UNL     1      52.246 160.952  31.817  0.00  0.00    -0.038 OA
ATOM      2  O   UNL     1      52.774 160.907  30.956  0.00  0.00    -0.218 OA
ATOM      3  H   UNL     1      53.215 160.045  30.892  0.00  0.00    +0.256 HD
ENDROOT
TORSDOF 0
REMARK  Name = =
REMARK  4 active torsions:
REMARK  status: ('A' for Active; 'I' for Inactive)
REMARK    1  A    between atoms: C_1  and  O_16
REMARK    2  A    between atoms: O_16  and  O_17
REMARK    3  A    between atoms: O_17  and  C_18
REMARK    4  A    between atoms: C_19  and  C_20
REMARK                            x       y       z     vdW  Elec       q    Type
REMARK                         _______ _______ _______ _____ _____    ______ ____
ROOT
ATOM      1  O   HOH     1      51.362 162.235  31.893  0.00  0.00    -0.253 OA
ATOM      2  H   HOH     0      52.332 162.235  31.893  0.00  0.00    +0.253 HD
ENDROOT
TORSDOF 0
REMARK  Name = =
REMARK  4 active torsions:
REMARK  status: ('A' for Active; 'I' for Inactive)
REMARK    1  A    between atoms: C_1  and  O_16
REMARK    2  A    between atoms: O_16  and  O_17
REMARK    3  A    between atoms: O_17  and  C_18
REMARK    4  A    between atoms: C_19  and  C_20
REMARK                            x       y       z     vdW  Elec       q    Type
REMARK                         _______ _______ _______ _____ _____    ______ ____
ROOT
ATOM      1  O   HOH     1      50.567 161.658  29.367  0.00  0.00    -0.253 OA
ATOM      2  H   HOH     0      51.537 161.658  29.367  0.00  0.00    +0.253 HD
ENDROOT
TORSDOF 0
REMARK  Name = =
REMARK  4 active torsions:
REMARK  status: ('A' for Active; 'I' for Inactive)
REMARK    1  A    between atoms: C_1  and  O_16
REMARK    2  A    between atoms: O_16  and  O_17
REMARK    3  A    between atoms: O_17  and  C_18
REMARK    4  A    between atoms: C_19  and  C_20
REMARK                            x       y       z     vdW  Elec       q    Type
REMARK                         _______ _______ _______ _____ _____    ______ ____
ROOT
ATOM      1  I   UNL     1      53.458 162.801  30.544  0.00  0.00    +0.000 I 
ENDROOT
TORSDOF 0
