REMARK  Name = =
REMARK  10 active torsions:
REMARK  status: ('A' for Active; 'I' for Inactive)
REMARK    1  A    between atoms: C_1  and  O_4
REMARK    2  A    between atoms: N_3  and  N_17
REMARK    3  A    between atoms: O_4  and  N_5
REMARK    4  A    between atoms: N_5  and  C_7
REMARK    5  A    between atoms: C_7  and  C_14
REMARK    6  A    between atoms: N_17  and  S_18
REMARK    7  A    between atoms: N_17  and  O_21
REMARK    8  A    between atoms: O_21  and  C_22
REMARK    9  A    between atoms: C_23  and  O_29
REMARK   10  A    between atoms: C_26  and  O_28
REMARK                            x       y       z     vdW  Elec       q    Type
REMARK                         _______ _______ _______ _____ _____    ______ ____
ROOT
ATOM      1  C   UNL     1      51.854 156.768  28.485  0.00  0.00    +0.437 C 
ATOM      2  O   UNL     1      50.904 156.678  27.692  0.00  0.00    -0.223 OA
ATOM      3  N   UNL     1      52.754 155.694  28.562  0.00  0.00    -0.160 N 
ATOM      4  H   UNL     1      53.498 155.793  29.199  0.00  0.00    +0.178 HD
ENDROOT
BRANCH   1   5
ATOM      5  O   UNL     1      52.011 157.906  29.267  0.00  0.00    -0.347 OA
BRANCH   5   6
ATOM      6  N   UNL     1      51.272 157.949  30.453  0.00  0.00    -0.088 NA
ATOM      7  C   UNL     1      50.104 157.105  30.180  0.00  0.00    +0.137 C 
BRANCH   6   8
ATOM      8  C   UNL     1      50.739 159.325  30.564  0.00  0.00    +0.192 C 
ATOM      9  O   UNL     1      50.114 159.569  29.376  0.00  0.00    -0.330 OA
ATOM     10  C   UNL     1      49.261 160.627  29.303  0.00  0.00    +0.208 C 
ATOM     11  C   UNL     1      48.695 161.057  30.586  0.00  0.00    +0.181 C 
ATOM     12  O   UNL     1      48.322 162.187  30.759  0.00  0.00    -0.293 OA
ATOM     13  C   UNL     1      48.592 160.069  31.676  0.00  0.00    +0.071 C 
ATOM     14  C   UNL     1      49.887 159.335  31.790  0.00  0.00    +0.058 C 
BRANCH   8  15
ATOM     15  C   UNL     1      51.922 160.177  30.816  0.00  0.00    +0.025 C 
ATOM     16  C   UNL     1      52.007 161.463  30.608  0.00  0.00    +0.035 C 
ATOM     17  I   UNL     1      53.780 162.527  31.025  0.00  0.00    -0.042 I 
ENDBRANCH   8  15
ENDBRANCH   6   8
ENDBRANCH   5   6
ENDBRANCH   1   5
BRANCH   3  18
ATOM     18  N   UNL     1      52.716 154.532  27.857  0.00  0.00    +0.082 NA
BRANCH  18  19
ATOM     19  S   UNL     1      51.825 153.260  28.534  0.00  0.00    +0.069 S 
ATOM     20  O   UNL     1      52.033 151.950  27.786  0.00  0.00    -0.157 OA
ATOM     21  O   UNL     1      52.021 153.066  30.008  0.00  0.00    -0.157 OA
ATOM     22  H   UNL     1      50.531 153.650  28.384  0.00  0.00    +0.235 HD
ENDBRANCH  18  19
BRANCH  18  23
ATOM     23  O   UNL     1      52.403 154.650  26.548  0.00  0.00    -0.362 OA
BRANCH  23  24
ATOM     24  C   UNL     1      53.411 154.654  25.596  0.00  0.00    +0.206 C 
ATOM     25  C   UNL     1      53.896 153.484  25.076  0.00  0.00    +0.171 C 
ATOM     26  C   UNL     1      54.894 153.452  24.130  0.00  0.00    +0.043 C 
ATOM     27  C   UNL     1      55.439 154.641  23.676  0.00  0.00    +0.040 C 
ATOM     28  C   UNL     1      54.954 155.825  24.194  0.00  0.00    +0.137 C 
ATOM     29  C   UNL     1      53.948 155.841  25.147  0.00  0.00    +0.079 C 
BRANCH  28  30
ATOM     30  O   UNL     1      55.492 157.028  23.747  0.00  0.00    -0.505 OA
ATOM     31  H   UNL     1      56.172 157.026  23.103  0.00  0.00    +0.292 HD
ENDBRANCH  28  30
BRANCH  25  32
ATOM     32  O   UNL     1      53.380 152.250  25.500  0.00  0.00    -0.503 OA
ATOM     33  H   UNL     1      52.699 152.223  26.143  0.00  0.00    +0.292 HD
ENDBRANCH  25  32
ENDBRANCH  23  24
ENDBRANCH  18  23
ENDBRANCH   3  18
TORSDOF 10
