REMARK  Name = =
REMARK  0 active torsions:
REMARK  status: ('A' for Active; 'I' for Inactive)
REMARK                            x       y       z     vdW  Elec       q    Type
REMARK                         _______ _______ _______ _____ _____    ______ ____
ROOT
ATOM      1  C   UNL     1      51.977 155.151  28.437  0.00  0.00    +0.082 C 
ATOM      2  N   UNL     1      53.184 154.376  28.410  0.00  0.00    -0.320 NA
ATOM      3  H   UNL     1      53.415 154.073  29.356  0.00  0.00    +0.119 HD
ATOM      4  H   UNL     1      53.945 154.945  28.040  0.00  0.00    +0.119 HD
ENDROOT
TORSDOF 0
