REMARK  Name = =
REMARK  1 active torsions:
REMARK  status: ('A' for Active; 'I' for Inactive)
REMARK    1  A    between atoms: C_4  and  O_8
REMARK                            x       y       z     vdW  Elec       q    Type
REMARK                         _______ _______ _______ _____ _____    ______ ____
ROOT
ATOM      1  C   UNL     1      51.613 158.000  29.485  0.00  0.00    +0.001 C 
ATOM      2  C   UNL     1      51.242 159.327  29.559  0.00  0.00    +0.010 C 
ATOM      3  C   UNL     1      49.983 159.692  29.996  0.00  0.00    +0.068 C 
ATOM      4  C   UNL     1      49.047 158.751  30.376  0.00  0.00    +0.140 C 
ATOM      5  C   UNL     1      49.418 157.424  30.303  0.00  0.00    +0.037 C 
ATOM      6  C   UNL     1      50.682 157.047  29.865  0.00  0.00    +0.003 C 
ATOM      7 BR   UNL     1      49.475 161.520  30.095  0.00  0.00    -0.046 Br
ENDROOT
BRANCH   4   8
ATOM      8  O   UNL     1      47.782 159.065  30.817  0.00  0.00    -0.505 OA
ATOM      9  H   UNL     1      47.514 159.961  30.873  0.00  0.00    +0.292 HD
ENDBRANCH   4   8
TORSDOF 1
