REMARK  Name = =
REMARK  0 active torsions:
REMARK  status: ('A' for Active; 'I' for Inactive)
REMARK                            x       y       z     vdW  Elec       q    Type
REMARK                         _______ _______ _______ _____ _____    ______ ____
ROOT
ATOM      1  C   UNL     1      51.684 156.172  28.035  0.00  0.00    -0.009 C 
ATOM      2  C   UNL     1      53.146 156.337  28.168  0.00  0.00    -0.027 C 
ATOM      3  C   UNL     1      53.751 157.399  27.296  0.00  0.00    +0.022 C 
ATOM      4  C   UNL     1      53.286 157.302  25.862  0.00  0.00    +0.008 C 
ATOM      5  C   UNL     1      51.821 157.400  25.738  0.00  0.00    +0.023 C 
ATOM      6  C   UNL     1      51.368 158.785  25.431  0.00  0.00    +0.009 C 
ATOM      7  C   UNL     1      49.882 158.796  25.070  0.00  0.00    +0.026 C 
ATOM      8  C   UNL     1      49.133 157.779  25.820  0.00  0.00    -0.024 C 
ATOM      9  C   UNL     1      47.882 157.512  25.481  0.00  0.00    +0.033 C 
ATOM     10  C   UNL     1      47.221 156.481  26.294  0.00  0.00    +0.173 C 
ATOM     11  O   UNL     1      46.277 155.833  25.766  0.00  0.00    -0.291 OA
ATOM     12  C   UNL     1      47.584 156.153  27.673  0.00  0.00    +0.074 C 
ATOM     13  C   UNL     1      48.974 156.561  28.082  0.00  0.00    +0.034 C 
ATOM     14  C   UNL     1      49.760 157.076  26.925  0.00  0.00    -0.030 C 
ATOM     15  C   UNL     1      51.060 156.890  26.899  0.00  0.00    -0.027 C 
ATOM     16  C   UNL     1      53.868 155.979  25.439  0.00  0.00    +0.001 C 
ATOM     17  C   UNL     1      55.185 155.915  26.174  0.00  0.00    +0.000 C 
ATOM     18  C   UNL     1      55.225 157.082  27.113  0.00  0.00    +0.004 C 
ENDROOT
TORSDOF 0
