REMARK  Name = =
REMARK  3 active torsions:
REMARK  status: ('A' for Active; 'I' for Inactive)
REMARK    1  A    between atoms: C_1  and  N_8
REMARK    2  A    between atoms: C_4  and  O_15
REMARK    3  A    between atoms: N_8  and  C_10
REMARK                            x       y       z     vdW  Elec       q    Type
REMARK                         _______ _______ _______ _____ _____    ______ ____
ROOT
ATOM      1  C   UNL     1      51.409 157.737  29.329  0.00  0.00    +0.050 C 
ATOM      2  C   UNL     1      51.645 159.002  29.903  0.00  0.00    +0.024 C 
ATOM      3  C   UNL     1      50.725 159.617  30.709  0.00  0.00    +0.069 C 
ATOM      4  C   UNL     1      49.536 158.957  30.949  0.00  0.00    +0.140 C 
ATOM      5  C   UNL     1      49.295 157.732  30.398  0.00  0.00    +0.038 C 
ATOM      6  C   UNL     1      50.217 157.104  29.584  0.00  0.00    +0.018 C 
ATOM      7 BR   UNL     1      51.058 161.337  31.486  0.00  0.00    -0.046 Br
ENDROOT
BRANCH   1   8
ATOM      8  N   UNL     1      52.429 157.192  28.514  0.00  0.00    -0.298 N 
ATOM      9  H   UNL     1      53.168 157.794  28.269  0.00  0.00    +0.154 HD
BRANCH   8  11
ATOM     10  C   UNL     1      52.930 155.704  26.699  0.00  0.00    +0.055 C 
ATOM     11  C   UNL     1      52.494 155.891  28.023  0.00  0.00    +0.135 C 
ATOM     12  N   UNL     1      52.179 154.795  28.687  0.00  0.00    -0.209 NA
ATOM     13  C   UNL     1      52.242 153.545  28.207  0.00  0.00    +0.200 C 
ATOM     14  N   UNL     1      52.658 153.373  26.944  0.00  0.00    -0.222 NA
ATOM     15  C   UNL     1      53.006 154.432  26.175  0.00  0.00    +0.104 C 
ENDBRANCH   8  11
ENDBRANCH   1   8
BRANCH   4  16
ATOM     16  O   UNL     1      48.614 159.603  31.773  0.00  0.00    -0.505 OA
ATOM     17  H   UNL     1      48.816 160.444  32.133  0.00  0.00    +0.292 HD
ENDBRANCH   4  16
TORSDOF 3
