REMARK  Name = =
REMARK  1 active torsions:
REMARK  status: ('A' for Active; 'I' for Inactive)
REMARK    1  A    between atoms: C_1  and  N_9
REMARK                            x       y       z     vdW  Elec       q    Type
REMARK                         _______ _______ _______ _____ _____    ______ ____
ROOT
ATOM      1  C   UNL     1      52.793 155.641  26.707  0.00  0.00    +0.228 C 
ATOM      2  O   UNL     1      53.689 155.290  25.661  0.00  0.00    -0.436 OA
ATOM      3  C   UNL     1      53.663 153.999  25.113  0.00  0.00    +0.318 C 
ATOM      4  O   UNL     1      53.740 153.774  23.884  0.00  0.00    -0.250 OA
ATOM      5  C   UNL     1      53.534 152.898  26.114  0.00  0.00    +0.110 C 
ATOM      6  C   UNL     1      52.270 153.230  26.910  0.00  0.00    +0.017 C 
ATOM      7  C   UNL     1      52.531 154.498  27.659  0.00  0.00    +0.062 C 
ENDROOT
BRANCH   1   9
ATOM      8  C   UNL     1      52.510 157.088  28.604  0.00  0.00    +0.089 C 
ATOM      9  N   UNL     1      53.159 156.848  27.361  0.00  0.00    -0.263 NA
ATOM     10  H   UNL     1      52.940 157.624  26.736  0.00  0.00    +0.127 HD
ENDBRANCH   1   9
TORSDOF 1
