REMARK  Name = =
REMARK  3 active torsions:
REMARK  status: ('A' for Active; 'I' for Inactive)
REMARK    1  A    between atoms: C_1  and  N_12
REMARK    2  A    between atoms: C_2  and  N_8
REMARK    3  A    between atoms: C_4  and  O_19
REMARK                            x       y       z     vdW  Elec       q    Type
REMARK                         _______ _______ _______ _____ _____    ______ ____
ROOT
ATOM      1  C   UNL     1      51.474 156.976  29.206  0.00  0.00    +0.064 C 
ATOM      2  C   UNL     1      52.378 156.701  28.163  0.00  0.00    +0.074 C 
ATOM      3  C   UNL     1      52.343 155.498  27.487  0.00  0.00    +0.083 C 
ATOM      4  C   UNL     1      51.439 154.509  27.785  0.00  0.00    +0.141 C 
ATOM      5  C   UNL     1      50.547 154.756  28.798  0.00  0.00    +0.038 C 
ATOM      6  C   UNL     1      50.579 155.981  29.488  0.00  0.00    +0.019 C 
ATOM      7 BR   UNL     1      53.591 155.175  26.081  0.00  0.00    -0.045 Br
ENDROOT
BRANCH   1   8
ATOM      8  N   UNL     1      51.540 158.248  29.784  0.00  0.00    -0.297 N 
ATOM      9  C   UNL     1      49.316 158.498  30.768  0.00  0.00    +0.055 C 
ATOM     10  C   UNL     1      50.576 158.951  30.545  0.00  0.00    +0.136 C 
ATOM     11  N   UNL     1      50.917 160.195  31.032  0.00  0.00    -0.209 NA
ATOM     12  C   UNL     1      50.077 160.976  31.709  0.00  0.00    +0.200 C 
ATOM     13  N   UNL     1      48.844 160.521  31.919  0.00  0.00    -0.222 NA
ATOM     14  C   UNL     1      48.427 159.322  31.482  0.00  0.00    +0.104 C 
ATOM     15  H   UNL     1      52.387 158.728  29.639  0.00  0.00    +0.154 HD
ENDBRANCH   1   8
BRANCH   2  16
ATOM     16  N   UNL     1      53.344 157.684  27.807  0.00  0.00    -0.267 N 
ATOM     17  C   UNL     1      54.277 158.105  28.769  0.00  0.00    +0.301 C 
ATOM     18  O   UNL     1      54.233 157.595  29.930  0.00  0.00    -0.253 OA
ATOM     19  N   UNL     1      55.282 159.073  28.535  0.00  0.00    -0.313 N 
ATOM     20  H   UNL     1      53.358 158.064  26.899  0.00  0.00    +0.156 HD
ATOM     21  H   UNL     1      55.359 159.499  27.651  0.00  0.00    +0.146 HD
ATOM     22  H   UNL     1      55.905 159.321  29.256  0.00  0.00    +0.146 HD
ENDBRANCH   2  16
BRANCH   4  23
ATOM     23  O   UNL     1      51.453 153.321  27.071  0.00  0.00    -0.505 OA
ATOM     24  H   UNL     1      52.080 153.193  26.386  0.00  0.00    +0.292 HD
ENDBRANCH   4  23
TORSDOF 3
