REMARK  Name = =
REMARK  3 active torsions:
REMARK  status: ('A' for Active; 'I' for Inactive)
REMARK    1  A    between atoms: C_1  and  S_19
REMARK    2  A    between atoms: S_19  and  N_21
REMARK    3  A    between atoms: S_19  and  N_22
REMARK                            x       y       z     vdW  Elec       q    Type
REMARK                         _______ _______ _______ _____ _____    ______ ____
ROOT
ATOM      1  C   UNL     1      51.735 159.202  29.146  0.00  0.00    +0.094 C 
ATOM      2  C   UNL     1      51.709 158.012  28.218  0.00  0.00    +0.017 C 
ATOM      3  C   UNL     1      52.168 156.823  29.028  0.00  0.00    +0.002 C 
ATOM      4  C   UNL     1      51.077 156.451  29.967  0.00  0.00    +0.004 C 
ATOM      5  C   UNL     1      50.515 157.568  30.786  0.00  0.00    +0.019 C 
ATOM      6  C   UNL     1      49.077 157.323  31.190  0.00  0.00    +0.009 C 
ATOM      7  C   UNL     1      48.768 158.294  32.310  0.00  0.00    +0.026 C 
ATOM      8  C   UNL     1      48.987 159.664  31.737  0.00  0.00    -0.024 C 
ATOM      9  C   UNL     1      48.238 160.621  32.231  0.00  0.00    +0.033 C 
ATOM     10  C   UNL     1      48.375 161.965  31.746  0.00  0.00    +0.173 C 
ATOM     11  O   UNL     1      47.469 162.802  31.949  0.00  0.00    -0.291 OA
ATOM     12  C   UNL     1      49.588 162.346  31.009  0.00  0.00    +0.074 C 
ATOM     13  C   UNL     1      50.143 161.258  30.164  0.00  0.00    +0.034 C 
ATOM     14  C   UNL     1      49.968 159.895  30.706  0.00  0.00    -0.033 C 
ATOM     15  C   UNL     1      50.734 158.905  30.216  0.00  0.00    -0.037 C 
ATOM     16  C   UNL     1      50.049 155.814  29.060  0.00  0.00    +0.000 C 
ATOM     17  C   UNL     1      50.884 155.020  28.107  0.00  0.00    +0.000 C 
ATOM     18  C   UNL     1      52.288 155.577  28.156  0.00  0.00    +0.000 C 
ENDROOT
BRANCH   1  19
ATOM     19  S   UNL     1      53.221 159.479  29.870  0.00  0.00    +0.027 S 
BRANCH  19  20
ATOM     20  N   UNL     1      53.378 160.656  30.865  0.00  0.00    -0.265 NA
ATOM     21  H   UNL     1      52.465 161.076  31.041  0.00  0.00    +0.132 HD
ATOM     22  H   UNL     1      54.004 161.356  30.467  0.00  0.00    +0.132 HD
ENDBRANCH  19  20
BRANCH  19  23
ATOM     23  N   UNL     1      54.434 158.671  29.431  0.00  0.00    +0.009 NA
ATOM     24  O   UNL     1      55.537 159.005  29.126  0.00  0.00    -0.135 OA
ENDBRANCH  19  23
ENDBRANCH   1  19
TORSDOF 3
REMARK  Name = =
REMARK  3 active torsions:
REMARK  status: ('A' for Active; 'I' for Inactive)
REMARK    1  A    between atoms: C_1  and  S_19
REMARK    2  A    between atoms: S_19  and  N_21
REMARK    3  A    between atoms: S_19  and  N_22
REMARK                            x       y       z     vdW  Elec       q    Type
REMARK                         _______ _______ _______ _____ _____    ______ ____
ROOT
ATOM      1  H   UNK     1      53.503 160.841  28.384  0.00  0.00    +0.000 HD
ENDROOT
TORSDOF 0
