REMARK  Name = =
REMARK  3 active torsions:
REMARK  status: ('A' for Active; 'I' for Inactive)
REMARK    1  A    between atoms: C_1  and  C_2
REMARK    2  A    between atoms: C_1  and  N_11
REMARK    3  A    between atoms: N_11  and  C_12
REMARK                            x       y       z     vdW  Elec       q    Type
REMARK                         _______ _______ _______ _____ _____    ______ ____
ROOT
ATOM      1  C   UNL     1      51.155 155.526  28.798  0.00  0.00    +0.071 C 
ENDROOT
BRANCH   1   2
ATOM      2  C   UNL     1      50.261 156.767  28.942  0.00  0.00    +0.016 C 
ATOM      3  C   UNL     1      51.161 157.940  29.063  0.00  0.00    +0.001 C 
ATOM      4  C   UNL     1      50.509 159.229  29.420  0.00  0.00    +0.000 C 
ATOM      5  C   UNL     1      51.485 159.928  30.375  0.00  0.00    +0.000 C 
ATOM      6  C   UNL     1      52.809 159.218  30.135  0.00  0.00    +0.000 C 
ATOM      7  C   UNL     1      52.341 157.773  29.956  0.00  0.00    +0.000 C 
ATOM      8  C   UNL     1      49.192 159.075  30.136  0.00  0.00    +0.000 C 
ATOM      9  C   UNL     1      49.154 157.797  30.947  0.00  0.00    +0.000 C 
ATOM     10  C   UNL     1      49.325 156.574  30.110  0.00  0.00    +0.001 C 
ENDBRANCH   1   2
BRANCH   1  11
ATOM     11  N   UNL     1      51.966 155.744  27.642  0.00  0.00    -0.264 NA
ATOM     12  H   UNL     1      52.908 155.415  27.853  0.00  0.00    +0.126 HD
BRANCH  11  13
ATOM     13  C   UNL     1      51.531 155.093  26.452  0.00  0.00    +0.233 C 
ATOM     14  O   UNL     1      51.454 153.700  26.724  0.00  0.00    -0.433 OA
ATOM     15  C   UNL     1      52.607 152.974  26.620  0.00  0.00    +0.342 C 
ATOM     16  O   UNL     1      52.798 151.944  27.340  0.00  0.00    -0.245 OA
ATOM     17  C   UNL     1      53.666 153.344  25.686  0.00  0.00    +0.078 C 
ATOM     18  C   UNL     1      53.534 154.637  25.003  0.00  0.00    -0.014 C 
ATOM     19  C   UNL     1      52.272 155.399  25.210  0.00  0.00    +0.087 C 
ENDBRANCH  11  13
ENDBRANCH   1  11
TORSDOF 3
