REMARK  Name = =
REMARK  5 active torsions:
REMARK  status: ('A' for Active; 'I' for Inactive)
REMARK    1  A    between atoms: C_1  and  N_10
REMARK    2  A    between atoms: C_1  and  C_22
REMARK    3  A    between atoms: N_13  and  C_16
REMARK    4  A    between atoms: C_22  and  N_23
REMARK    5  A    between atoms: N_23  and  C_24
REMARK                            x       y       z     vdW  Elec       q    Type
REMARK                         _______ _______ _______ _____ _____    ______ ____
ROOT
ATOM      1  C   UNL     1      49.204 159.759  31.424  0.00  0.00    +0.060 C 
ATOM      2  C   UNL     1      49.998 160.918  31.764  0.00  0.00    +0.015 C 
ATOM      3  C   UNL     1      49.297 162.247  31.873  0.00  0.00    +0.001 C 
ATOM      4  C   UNL     1      50.437 163.212  32.149  0.00  0.00    +0.000 C 
ATOM      5  C   UNL     1      51.732 162.410  31.998  0.00  0.00    +0.000 C 
ATOM      6  C   UNL     1      51.238 161.272  31.078  0.00  0.00    +0.001 C 
ATOM      7  C   UNL     1      48.310 162.159  32.985  0.00  0.00    +0.000 C 
ATOM      8  C   UNL     1      48.189 160.752  33.505  0.00  0.00    +0.001 C 
ATOM      9  C   UNL     1      48.028 159.725  32.411  0.00  0.00    +0.016 C 
ENDROOT
BRANCH   1  10
ATOM     10  N   UNL     1      48.663 159.641  30.115  0.00  0.00    -0.271 NA
ATOM     11  C   UNL     1      48.705 158.328  29.571  0.00  0.00    +0.094 C 
ATOM     12  C   UNL     1      47.609 158.200  28.532  0.00  0.00    +0.108 C 
ATOM     13  N   UNL     1      47.946 159.143  27.470  0.00  0.00    -0.305 N 
ATOM     14  C   UNL     1      49.094 159.969  27.717  0.00  0.00    +0.108 C 
ATOM     15  C   UNL     1      49.081 160.580  29.133  0.00  0.00    +0.094 C 
BRANCH  13  16
ATOM     16  C   UNL     1      47.126 159.167  26.315  0.00  0.00    +0.048 C 
ATOM     17  C   UNL     1      45.955 158.458  26.328  0.00  0.00    +0.015 C 
ATOM     18  C   UNL     1      45.142 158.461  25.219  0.00  0.00    +0.001 C 
ATOM     19  C   UNL     1      45.508 159.181  24.091  0.00  0.00    +0.000 C 
ATOM     20  C   UNL     1      46.688 159.890  24.091  0.00  0.00    +0.001 C 
ATOM     21  C   UNL     1      47.490 159.877  25.206  0.00  0.00    +0.015 C 
ENDBRANCH  13  16
ENDBRANCH   1  10
BRANCH   1  22
ATOM     22  C   UNL     1      49.981 158.458  31.700  0.00  0.00    +0.086 C 
BRANCH  22  23
ATOM     23  N   UNL     1      51.152 158.374  30.891  0.00  0.00    -0.263 NA
ATOM     24  H   UNL     1      51.928 158.082  31.486  0.00  0.00    +0.127 HD
BRANCH  23  25
ATOM     25  C   UNL     1      51.063 157.462  29.800  0.00  0.00    +0.228 C 
ATOM     26  O   UNL     1      52.079 157.683  28.831  0.00  0.00    -0.436 OA
ATOM     27  C   UNL     1      52.740 156.690  28.144  0.00  0.00    +0.318 C 
ATOM     28  O   UNL     1      53.683 156.977  27.367  0.00  0.00    -0.250 OA
ATOM     29  C   UNL     1      52.387 155.245  28.277  0.00  0.00    +0.110 C 
ATOM     30  C   UNL     1      51.050 155.128  28.985  0.00  0.00    +0.017 C 
ATOM     31  C   UNL     1      51.161 156.012  30.225  0.00  0.00    +0.062 C 
ENDBRANCH  23  25
ENDBRANCH  22  23
ENDBRANCH   1  22
TORSDOF 5
