REMARK  Name = =
REMARK  6 active torsions:
REMARK  status: ('A' for Active; 'I' for Inactive)
REMARK    1  A    between atoms: N_1  and  C_2
REMARK    2  A    between atoms: N_1  and  C_15
REMARK    3  A    between atoms: C_3  and  N_9
REMARK    4  A    between atoms: C_5  and  O_13
REMARK    5  A    between atoms: C_17  and  C_20
REMARK    6  A    between atoms: C_26  and  O_28
REMARK                            x       y       z     vdW  Elec       q    Type
REMARK                         _______ _______ _______ _____ _____    ______ ____
ROOT
ATOM      1  N   UNL     1      51.097 156.788  29.672  0.00  0.00    -0.297 N 
ATOM      2  H   UNL     1      50.255 156.833  30.180  0.00  0.00    +0.154 HD
ENDROOT
BRANCH   1   3
ATOM      3  C   UNL     1      51.945 157.895  29.727  0.00  0.00    +0.064 C 
ATOM      4  C   UNL     1      51.416 159.031  30.369  0.00  0.00    +0.074 C 
ATOM      5  C   UNL     1      52.155 160.178  30.485  0.00  0.00    +0.083 C 
ATOM      6  C   UNL     1      53.439 160.214  29.962  0.00  0.00    +0.141 C 
ATOM      7  C   UNL     1      53.991 159.128  29.330  0.00  0.00    +0.038 C 
ATOM      8  C   UNL     1      53.225 157.960  29.218  0.00  0.00    +0.019 C 
ATOM      9 BR   UNL     1      51.399 161.700  31.364  0.00  0.00    -0.045 Br
BRANCH   4  10
ATOM     10  N   UNL     1      50.109 158.989  30.899  0.00  0.00    -0.267 N 
ATOM     11  C   UNL     1      48.965 159.542  30.268  0.00  0.00    +0.301 C 
ATOM     12  O   UNL     1      49.148 160.108  29.154  0.00  0.00    -0.253 OA
ATOM     13  N   UNL     1      47.658 159.490  30.814  0.00  0.00    -0.313 N 
ATOM     14  H   UNL     1      49.982 158.544  31.768  0.00  0.00    +0.156 HD
ATOM     15  H   UNL     1      47.504 159.051  31.682  0.00  0.00    +0.146 HD
ATOM     16  H   UNL     1      46.904 159.893  30.325  0.00  0.00    +0.146 HD
ENDBRANCH   4  10
BRANCH   6  17
ATOM     17  O   UNL     1      54.144 161.388  30.102  0.00  0.00    -0.505 OA
ATOM     18  H   UNL     1      53.753 162.120  30.536  0.00  0.00    +0.292 HD
ENDBRANCH   6  17
ENDBRANCH   1   3
BRANCH   1  20
ATOM     19  C   UNL     1      50.610 154.440  29.214  0.00  0.00    +0.055 C 
ATOM     20  C   UNL     1      51.357 155.605  28.940  0.00  0.00    +0.135 C 
ATOM     21  N   UNL     1      52.277 155.499  27.982  0.00  0.00    -0.216 NA
ATOM     22  C   UNL     1      52.538 154.411  27.288  0.00  0.00    +0.140 C 
ATOM     23  N   UNL     1      51.807 153.290  27.565  0.00  0.00    -0.229 NA
ATOM     24  C   UNL     1      50.863 153.302  28.508  0.00  0.00    +0.103 C 
BRANCH  22  25
ATOM     25  C   UNL     1      53.591 154.336  26.211  0.00  0.00    +0.062 C 
ATOM     26  C   UNL     1      52.919 153.836  24.986  0.00  0.00    +0.029 C 
ATOM     27  C   UNL     1      53.798 153.156  24.003  0.00  0.00    +0.097 C 
ATOM     28  N   UNL     1      54.695 152.258  24.701  0.00  0.00    -0.246 N 
ATOM     29  C   UNL     1      55.562 152.868  25.687  0.00  0.00    +0.097 C 
ATOM     30  C   UNL     1      54.699 153.502  26.730  0.00  0.00    +0.029 C 
ATOM     31  C   UNL     1      54.719 150.865  24.430  0.00  0.00    +0.402 C 
ATOM     32  O   UNL     1      55.499 150.094  25.039  0.00  0.00    -0.226 OA
BRANCH  31  33
ATOM     33  O   UNL     1      53.878 150.309  23.479  0.00  0.00    -0.466 OA
ATOM     34  H   UNL     1      53.282 150.854  23.004  0.00  0.00    +0.297 HD
ENDBRANCH  31  33
ENDBRANCH  22  25
ENDBRANCH   1  20
TORSDOF 6
