MODEL 1
REMARK VINA RESULT:   -10.103      0.000      0.000
REMARK INTER + INTRA:         -17.431
REMARK INTER:                 -15.419
REMARK INTRA:                  -2.012
REMARK UNBOUND:                -2.012
REMARK  Name = =
REMARK  10 active torsions:
REMARK  status: ('A' for Active; 'I' for Inactive)
REMARK    1  A    between atoms: C_1  and  C_6
REMARK    2  A    between atoms: C_1  and  C_27
REMARK    3  A    between atoms: C_7  and  N_16
REMARK    4  A    between atoms: N_16  and  C_19
REMARK    5  A    between atoms: C_22  and  O_25
REMARK    6  A    between atoms: C_26  and  O_32
REMARK    7  A    between atoms: O_32  and  N_33
REMARK    8  A    between atoms: N_33  and  C_34
REMARK    9  A    between atoms: C_34  and  C_35
REMARK   10  A    between atoms: C_36  and  O_47
REMARK                            x       y       z     vdW  Elec       q    Type
REMARK                         _______ _______ _______ _____ _____    ______ ____
ROOT
ATOM      1  C   UNL     1     -23.775 -42.362  22.390  0.00  0.00    +0.043 C 
ATOM      2  C   UNL     1     -24.096 -43.798  22.895  0.00  0.00    +0.008 C 
ATOM      3  C   UNL     1     -25.347 -44.104  22.757  0.00  0.00    +0.001 C 
ATOM      4  C   UNL     1     -26.120 -43.014  22.164  0.00  0.00    +0.001 C 
ATOM      5  C   UNL     1     -25.049 -42.051  21.733  0.00  0.00    +0.008 C 
ENDROOT
BRANCH   1   6
ATOM      6  C   UNL     1     -23.566 -41.639  23.670  0.00  0.00    -0.005 C 
ATOM      7  C   UNL     1     -23.645 -40.248  23.791  0.00  0.00    +0.055 C 
ATOM      8  C   UNL     1     -23.593 -39.616  25.057  0.00  0.00    +0.014 C 
ATOM      9  C   UNL     1     -23.447 -40.392  26.199  0.00  0.00    +0.001 C 
ATOM     10  C   UNL     1     -23.361 -41.747  26.103  0.00  0.00    -0.000 C 
ATOM     11  C   UNL     1     -23.423 -42.334  24.868  0.00  0.00    -0.003 C 
ATOM     12  C   UNL     1     -23.370 -39.823  27.575  0.00  0.00    +0.000 C 
ATOM     13  C   UNL     1     -23.648 -38.379  27.682  0.00  0.00    +0.000 C 
ATOM     14  C   UNL     1     -23.793 -37.670  26.422  0.00  0.00    +0.000 C 
ATOM     15  C   UNL     1     -23.775 -38.182  25.204  0.00  0.00    +0.001 C 
BRANCH   7  16
ATOM     16  N   UNL     1     -23.661 -39.403  22.657  0.00  0.00    -0.230 N 
ATOM     17  C   UNL     1     -24.734 -38.659  22.227  0.00  0.00    +0.311 C 
ATOM     18  O   UNL     1     -24.793 -38.010  21.127  0.00  0.00    -0.264 OA
BRANCH  16  19
ATOM     19  C   UNL     1     -22.476 -39.218  21.870  0.00  0.00    +0.059 C 
ATOM     20  C   UNL     1     -21.276 -38.782  22.403  0.00  0.00    +0.018 C 
ATOM     21  C   UNL     1     -20.174 -38.615  21.592  0.00  0.00    +0.038 C 
ATOM     22  C   UNL     1     -20.192 -38.867  20.245  0.00  0.00    +0.134 C 
ATOM     23  C   UNL     1     -21.407 -39.308  19.729  0.00  0.00    +0.038 C 
ATOM     24  C   UNL     1     -22.503 -39.474  20.524  0.00  0.00    +0.018 C 
BRANCH  22  25
ATOM     25  O   UNL     1     -19.083 -38.698  19.438  0.00  0.00    -0.506 OA
ATOM     26  H   UNL     1     -18.924 -39.292  18.731  0.00  0.00    +0.292 HD
ENDBRANCH  22  25
ENDBRANCH  16  19
ENDBRANCH   7  16
ENDBRANCH   1   6
BRANCH   1  28
ATOM     27  C   UNL     1     -21.303 -42.456  21.955  0.00  0.00    +0.164 C 
ATOM     28  C   UNL     1     -22.588 -42.673  21.599  0.00  0.00    +0.037 C 
ATOM     29  C   UNL     1     -22.831 -43.099  20.293  0.00  0.00    +0.098 C 
ATOM     30  N   UNL     1     -21.828 -43.288  19.427  0.00  0.00    -0.242 NA
ATOM     31  C   UNL     1     -20.540 -43.080  19.755  0.00  0.00    +0.102 C 
ATOM     32  C   UNL     1     -20.274 -42.658  21.035  0.00  0.00    +0.060 C 
BRANCH  27  33
ATOM     33  O   UNL     1     -20.985 -42.044  23.196  0.00  0.00    -0.405 OA
BRANCH  33  34
ATOM     34  N   UNL     1     -19.936 -42.424  24.006  0.00  0.00    -0.140 NA
ATOM     35  H   UNL     1     -20.226 -43.207  24.593  0.00  0.00    +0.168 HD
BRANCH  34  36
ATOM     36  C   UNL     1     -19.540 -41.302  24.854  0.00  0.00    +0.142 C 
BRANCH  36  37
ATOM     37  C   UNL     1     -18.288 -41.626  25.543  0.00  0.00    +0.073 C 
ATOM     38  C   UNL     1     -18.231 -41.672  26.854  0.00  0.00    +0.173 C 
ATOM     39  C   UNL     1     -16.974 -42.000  27.531  0.00  0.00    +0.229 C 
ATOM     40  O   UNL     1     -16.962 -42.032  28.789  0.00  0.00    -0.283 OA
ATOM     41  C   UNL     1     -15.807 -42.271  26.718  0.00  0.00    +0.045 C 
ATOM     42  C   UNL     1     -15.865 -42.223  25.347  0.00  0.00    +0.042 C 
ATOM     43  C   UNL     1     -14.770 -42.477  24.544  0.00  0.00    +0.003 C 
ATOM     44  C   UNL     1     -13.588 -42.787  25.176  0.00  0.00    +0.000 C 
ATOM     45  C   UNL     1     -13.481 -42.847  26.555  0.00  0.00    +0.000 C 
ATOM     46  C   UNL     1     -14.610 -42.584  27.304  0.00  0.00    +0.003 C 
ATOM     47  C   UNL     1     -17.115 -41.898  24.714  0.00  0.00    +0.196 C 
ATOM     48  O   UNL     1     -17.253 -41.831  23.450  0.00  0.00    -0.287 OA
BRANCH  38  49
ATOM     49  O   UNL     1     -19.335 -41.415  27.679  0.00  0.00    -0.503 OA
ATOM     50  H   UNL     1     -19.236 -40.880  28.441  0.00  0.00    +0.292 HD
ENDBRANCH  38  49
ENDBRANCH  36  37
ENDBRANCH  34  36
ENDBRANCH  33  34
ENDBRANCH  27  33
ENDBRANCH   1  28
TORSDOF 10
ENDMDL
