REMARK  Name = =
REMARK  6 active torsions:
REMARK  status: ('A' for Active; 'I' for Inactive)
REMARK    1  A    between atoms: C_1  and  N_7
REMARK    2  A    between atoms: C_2  and  O_28
REMARK    3  A    between atoms: C_5  and  C_26
REMARK    4  A    between atoms: C_6  and  O_29
REMARK    5  A    between atoms: C_15  and  C_16
REMARK    6  A    between atoms: O_29  and  C_30
REMARK                            x       y       z     vdW  Elec       q    Type
REMARK                         _______ _______ _______ _____ _____    ______ ____
ROOT
ATOM      1  C   UNL     1      53.878 154.210  26.665  0.00  0.00    +0.120 C 
ATOM      2  C   UNL     1      54.732 153.423  25.924  0.00  0.00    +0.150 C 
ATOM      3  C   UNL     1      55.124 153.770  24.652  0.00  0.00    +0.038 C 
ATOM      4  C   UNL     1      54.627 154.943  24.140  0.00  0.00    +0.010 C 
ATOM      5  C   UNL     1      53.757 155.763  24.869  0.00  0.00    +0.078 C 
ATOM      6  C   UNL     1      53.402 155.374  26.130  0.00  0.00    +0.159 C 
ENDROOT
BRANCH   1   7
ATOM      7  N   UNL     1      53.555 153.686  27.949  0.00  0.00    -0.282 N 
ATOM      8  C   UNL     1      52.537 152.740  28.233  0.00  0.00    +0.047 C 
ATOM      9  C   UNL     1      52.285 152.809  29.591  0.00  0.00    -0.007 C 
ATOM     10  C   UNL     1      53.148 153.832  30.226  0.00  0.00    +0.049 C 
ATOM     11  C   UNL     1      54.213 154.069  29.198  0.00  0.00    +0.100 C 
ATOM     12  C   UNL     1      51.304 151.983  30.135  0.00  0.00    -0.003 C 
ATOM     13  C   UNL     1      50.581 151.107  29.375  0.00  0.00    -0.000 C 
ATOM     14  C   UNL     1      50.854 151.057  28.008  0.00  0.00    +0.001 C 
ATOM     15  C   UNL     1      51.813 151.851  27.420  0.00  0.00    +0.034 C 
BRANCH  15  16
ATOM     16  C   UNL     1      52.058 151.722  25.987  0.00  0.00    +0.233 C 
ATOM     17  O   UNL     1      53.354 151.163  25.828  0.00  0.00    -0.468 OA
ATOM     18  C   UNL     1      53.677 149.970  25.272  0.00  0.00    +0.173 C 
ATOM     19  C   UNL     1      52.683 149.024  25.081  0.00  0.00    +0.172 C 
ATOM     20  C   UNL     1      52.975 147.818  24.525  0.00  0.00    +0.040 C 
ATOM     21  C   UNL     1      54.273 147.543  24.149  0.00  0.00    +0.003 C 
ATOM     22  C   UNL     1      55.253 148.484  24.340  0.00  0.00    +0.003 C 
ATOM     23  C   UNL     1      54.991 149.730  24.907  0.00  0.00    +0.040 C 
ATOM     24  O   UNL     1      51.414 149.421  25.502  0.00  0.00    -0.468 OA
ATOM     25  C   UNL     1      51.013 150.747  25.414  0.00  0.00    +0.253 C 
ENDBRANCH  15  16
ENDBRANCH   1   7
BRANCH   5  26
ATOM     26  C   UNL     1      53.187 156.939  24.169  0.00  0.00    +0.237 C 
ATOM     27  O   UNL     1      52.208 157.595  24.565  0.00  0.00    -0.283 OA
ENDBRANCH   5  26
BRANCH   2  28
ATOM     28  O   UNL     1      55.253 152.226  26.421  0.00  0.00    -0.504 OA
ATOM     29  H   UNL     1      55.023 151.936  27.282  0.00  0.00    +0.292 HD
ENDBRANCH   2  28
BRANCH   6  30
ATOM     30  O   UNL     1      52.558 156.156  26.859  0.00  0.00    -0.469 OA
BRANCH  30  31
ATOM     31  C   UNL     1      52.478 156.379  28.221  0.00  0.00    +0.211 C 
ATOM     32  C   UNL     1      53.048 157.645  28.743  0.00  0.00    +0.021 C 
ATOM     33  C   UNL     1      52.080 158.269  29.495  0.00  0.00    -0.000 C 
ATOM     34  C   UNL     1      50.857 157.437  29.502  0.00  0.00    -0.000 C 
ATOM     35  C   UNL     1      51.098 156.309  28.750  0.00  0.00    +0.021 C 
ATOM     36  C   UNL     1      50.091 155.379  28.615  0.00  0.00    -0.000 C 
ATOM     37  C   UNL     1      48.862 155.566  29.220  0.00  0.00    -0.000 C 
ATOM     38  C   UNL     1      48.657 156.699  29.961  0.00  0.00    -0.000 C 
ATOM     39  C   UNL     1      49.654 157.631  30.099  0.00  0.00    -0.000 C 
ATOM     40  C   UNL     1      52.371 159.473  30.098  0.00  0.00    -0.000 C 
ATOM     41  C   UNL     1      53.621 160.073  29.967  0.00  0.00    -0.000 C 
ATOM     42  C   UNL     1      54.590 159.450  29.216  0.00  0.00    -0.000 C 
ATOM     43  C   UNL     1      54.285 158.242  28.616  0.00  0.00    -0.000 C 
ENDBRANCH  30  31
ENDBRANCH   6  30
TORSDOF 6
