REMARK  Name = =
REMARK  0 active torsions:
REMARK  status: ('A' for Active; 'I' for Inactive)
REMARK                            x       y       z     vdW  Elec       q    Type
REMARK                         _______ _______ _______ _____ _____    ______ ____
ROOT
ATOM      1  C   UNL     1      52.090 155.690  28.426  0.00  0.00    +0.065 C 
ATOM      2  C   UNL     1      52.788 155.767  27.299  0.00  0.00    +0.279 C 
ATOM      3  F   UNL     1      53.266 156.956  26.836  0.00  0.00    -0.172 F 
ATOM      4  F   UNL     1      53.051 154.654  26.565  0.00  0.00    -0.172 F 
ENDROOT
TORSDOF 0
