REMARK  Name = =
REMARK  1 active torsions:
REMARK  status: ('A' for Active; 'I' for Inactive)
REMARK    1  A    between atoms: C_1  and  C_11
REMARK                            x       y       z     vdW  Elec       q    Type
REMARK                         _______ _______ _______ _____ _____    ______ ____
ROOT
ATOM      1  C   UNL     1      51.704 154.871  28.250  0.00  0.00    +0.004 C 
ATOM      2  C   UNL     1      52.244 155.240  27.024  0.00  0.00    -0.000 C 
ATOM      3  C   UNL     1      52.810 154.272  26.214  0.00  0.00    +0.022 C 
ATOM      4  C   UNL     1      52.862 152.930  26.582  0.00  0.00    +0.210 C 
ATOM      5  C   UNL     1      52.312 152.583  27.825  0.00  0.00    +0.021 C 
ATOM      6  C   UNL     1      51.749 153.539  28.628  0.00  0.00    -0.001 C 
ATOM      7  O   UNL     1      53.430 151.950  25.783  0.00  0.00    -0.467 OA
ATOM      8  C   UNL     1      53.974 152.246  24.537  0.00  0.00    +0.173 C 
ATOM      9  C   UNL     1      53.913 153.672  24.154  0.00  0.00    +0.040 C 
ATOM     10  C   UNL     1      53.384 154.609  24.911  0.00  0.00    +0.003 C 
ENDROOT
BRANCH   1  11
ATOM     11  C   UNL     1      51.128 155.820  29.154  0.00  0.00    +0.060 C 
ATOM     12  C   UNL     1      51.771 156.949  29.424  0.00  0.00    +0.279 C 
ATOM     13  F   UNL     1      51.211 157.832  30.280  0.00  0.00    -0.172 F 
ATOM     14  F   UNL     1      52.984 157.160  28.838  0.00  0.00    -0.172 F 
ENDBRANCH   1  11
TORSDOF 1
