REMARK  Name = =
REMARK  3 active torsions:
REMARK  status: ('A' for Active; 'I' for Inactive)
REMARK    1  A    between atoms: C_1  and  C_5
REMARK    2  A    between atoms: C_1  and  O_15
REMARK    3  A    between atoms: O_15  and  C_18
REMARK                            x       y       z     vdW  Elec       q    Type
REMARK                         _______ _______ _______ _____ _____    ______ ____
ROOT
ATOM      1  C   UNL     1      51.482 156.345  29.414  0.00  0.00    +0.201 C 
ATOM      2  C   UNL     1      51.291 155.470  30.406  0.00  0.00    +0.313 C 
ATOM      3  F   UNL     1      51.448 154.137  30.240  0.00  0.00    -0.169 F 
ATOM      4  F   UNL     1      50.926 155.921  31.629  0.00  0.00    -0.169 F 
ENDROOT
BRANCH   1   5
ATOM      5  C   UNL     1      51.878 155.867  28.080  0.00  0.00    +0.039 C 
ATOM      6  C   UNL     1      52.945 156.444  27.405  0.00  0.00    +0.003 C 
ATOM      7  C   UNL     1      53.309 156.003  26.166  0.00  0.00    +0.022 C 
ATOM      8  C   UNL     1      52.640 154.977  25.537  0.00  0.00    +0.210 C 
ATOM      9  C   UNL     1      51.556 154.368  26.189  0.00  0.00    +0.021 C 
ATOM     10  C   UNL     1      51.219 154.841  27.437  0.00  0.00    +0.003 C 
ATOM     11  O   UNL     1      53.059 154.590  24.309  0.00  0.00    -0.467 OA
ATOM     12  C   UNL     1      54.090 155.121  23.550  0.00  0.00    +0.173 C 
ATOM     13  C   UNL     1      54.781 156.207  24.243  0.00  0.00    +0.040 C 
ATOM     14  C   UNL     1      54.419 156.606  25.437  0.00  0.00    +0.003 C 
ENDBRANCH   1   5
BRANCH   1  15
ATOM     15  O   UNL     1      51.299 157.687  29.680  0.00  0.00    -0.448 OA
BRANCH  15  18
ATOM     16 CL   UNL     1      51.611 160.453  30.644  0.00  0.00    -0.079 Cl
ATOM     17  C   UNL     1      50.093 159.617  30.409  0.00  0.00    +0.092 C 
ATOM     18  C   UNL     1      50.114 158.320  29.949  0.00  0.00    +0.156 C 
ATOM     19  C   UNL     1      48.926 157.669  29.766  0.00  0.00    +0.038 C 
ATOM     20  C   UNL     1      47.727 158.315  30.041  0.00  0.00    +0.003 C 
ATOM     21  C   UNL     1      47.710 159.606  30.499  0.00  0.00    +0.001 C 
ATOM     22  C   UNL     1      48.896 160.272  30.688  0.00  0.00    +0.014 C 
ENDBRANCH  15  18
ENDBRANCH   1  15
TORSDOF 3
