MODEL 1
REMARK VINA RESULT:   -11.291      0.000      0.000
REMARK INTER + INTRA:         -15.908
REMARK INTER:                 -14.921
REMARK INTRA:                  -0.986
REMARK UNBOUND:                -0.986
REMARK  Name = =
REMARK  6 active torsions:
REMARK  status: ('A' for Active; 'I' for Inactive)
REMARK    1  A    between atoms: C_4  and  N_33
REMARK    2  A    between atoms: C_6  and  N_8
REMARK    3  A    between atoms: C_7  and  N_17
REMARK    4  A    between atoms: C_20  and  O_32
REMARK    5  A    between atoms: C_21  and  N_26
REMARK    6  A    between atoms: N_33  and  N_40
REMARK                            x       y       z     vdW  Elec       q    Type
REMARK                         _______ _______ _______ _____ _____    ______ ____
ROOT
ATOM      1  N   UNL     1      -2.449  -9.289  29.556  0.00  0.00    -0.342 N 
ATOM      2  C   UNL     1      -1.214  -8.713  29.140  0.00  0.00    +0.142 C 
ATOM      3  N   UNL     1      -0.485  -9.248  28.131  0.00  0.00    -0.213 NA
ATOM      4  C   UNL     1       0.679  -8.693  27.751  0.00  0.00    +0.153 C 
ATOM      5  C   UNL     1       1.150  -7.553  28.394  0.00  0.00    +0.052 C 
ATOM      6  C   UNL     1       0.401  -7.021  29.416  0.00  0.00    +0.069 C 
ATOM      7  C   UNL     1      -0.794  -7.585  29.812  0.00  0.00    +0.101 C 
ATOM      8  H   UNL     1      -2.791 -10.095  29.107  0.00  0.00    +0.144 HD
ATOM      9  H   UNL     1      -2.959  -8.881  30.292  0.00  0.00    +0.144 HD
ENDROOT
BRANCH   6  10
ATOM     10  N   UNL     1       0.855  -5.854  30.097  0.00  0.00    -0.276 N 
ATOM     11  C   UNL     1       0.691  -4.584  29.727  0.00  0.00    +0.222 C 
ATOM     12  N   UNL     1       1.261  -3.762  30.626  0.00  0.00    -0.232 NA
ATOM     13  C   UNL     1       1.813  -4.509  31.609  0.00  0.00    +0.162 C 
ATOM     14  C   UNL     1       1.546  -5.825  31.259  0.00  0.00    +0.175 C 
ATOM     15  C   UNL     1       1.992  -6.812  32.082  0.00  0.00    +0.102 C 
ATOM     16  N   UNL     1       2.667  -6.495  33.196  0.00  0.00    -0.225 NA
ATOM     17  C   UNL     1       2.936  -5.226  33.555  0.00  0.00    +0.200 C 
ATOM     18  N   UNL     1       2.488  -4.261  32.729  0.00  0.00    -0.207 NA
ENDBRANCH   6  10
BRANCH   7  19
ATOM     19  N   UNL     1      -1.521  -6.985  30.876  0.00  0.00    -0.261 N 
ATOM     20  C   UNL     1      -2.363  -5.931  30.828  0.00  0.00    +0.059 C 
ATOM     21  C   UNL     1      -2.871  -5.658  32.091  0.00  0.00    +0.050 C 
ATOM     22  C   UNL     1      -3.758  -4.625  32.312  0.00  0.00    +0.148 C 
ATOM     23  C   UNL     1      -4.177  -3.820  31.276  0.00  0.00    +0.082 C 
ATOM     24  C   UNL     1      -3.664  -4.101  30.013  0.00  0.00    +0.019 C 
ATOM     25  C   UNL     1      -2.776  -5.133  29.786  0.00  0.00    +0.017 C 
ATOM     26  C   UNL     1      -2.303  -6.594  32.937  0.00  0.00    +0.021 C 
ATOM     27  C   UNL     1      -1.498  -7.372  32.164  0.00  0.00    +0.070 C 
BRANCH  23  28
ATOM     28  N   UNL     1      -5.097  -2.739  31.469  0.00  0.00    -0.302 N 
ATOM     29  C   UNL     1      -6.496  -2.938  31.722  0.00  0.00    +0.108 C 
ATOM     30  C   UNL     1      -6.941  -2.135  32.907  0.00  0.00    +0.090 C 
ATOM     31  N   UNL     1      -6.359  -0.832  32.986  0.00  0.00    -0.295 NA
ATOM     32  C   UNL     1      -5.688  -0.438  31.761  0.00  0.00    +0.090 C 
ATOM     33  C   UNL     1      -4.591  -1.389  31.405  0.00  0.00    +0.108 C 
ATOM     34  H   UNL     1      -5.680  -0.824  33.747  0.00  0.00    +0.123 HD
ENDBRANCH  23  28
BRANCH  22  35
ATOM     35  O   UNL     1      -4.254  -4.367  33.581  0.00  0.00    -0.504 OA
ATOM     36  H   UNL     1      -3.840  -4.745  34.332  0.00  0.00    +0.292 HD
ENDBRANCH  22  35
ENDBRANCH   7  19
BRANCH   4  37
ATOM     37  N   UNL     1       1.466  -9.238  26.690  0.00  0.00    -0.195 N 
ATOM     38  C   UNL     1       1.223 -10.592  26.335  0.00  0.00    +0.150 C 
ATOM     39  N   UNL     1       0.323 -10.972  25.411  0.00  0.00    -0.228 NA
ATOM     40  C   UNL     1       0.095 -12.254  25.079  0.00  0.00    +0.100 C 
ATOM     41  C   UNL     1       0.796 -13.301  25.686  0.00  0.00    +0.021 C 
ATOM     42  C   UNL     1       1.720 -12.943  26.632  0.00  0.00    +0.005 C 
ATOM     43  C   UNL     1       1.932 -11.628  26.953  0.00  0.00    +0.036 C 
BRANCH  37  44
ATOM     44  N   UNL     1       2.429  -8.549  25.998  0.00  0.00    -0.181 NA
ATOM     45  C   UNL     1       3.337  -9.369  25.247  0.00  0.00    +0.164 C 
ATOM     46  N   UNL     1       2.690  -9.434  23.949  0.00  0.00    -0.281 NA
ATOM     47  C   UNL     1       1.951  -8.212  23.778  0.00  0.00    +0.089 C 
ATOM     48  C   UNL     1       1.963  -7.511  25.139  0.00  0.00    +0.111 C 
ATOM     49  H   UNL     1       2.057 -10.233  23.913  0.00  0.00    +0.125 HD
ENDBRANCH  37  44
ENDBRANCH   4  37
TORSDOF 6
ENDMDL
