MODEL 1
REMARK VINA RESULT:   -12.206      0.000      0.000
REMARK INTER + INTRA:         -13.712
REMARK INTER:                 -13.633
REMARK INTRA:                  -0.079
REMARK UNBOUND:                -0.079
REMARK  Name = =
REMARK  3 active torsions:
REMARK  status: ('A' for Active; 'I' for Inactive)
REMARK    1  A    between atoms: C_20  and  O_21
REMARK    2  A    between atoms: O_21  and  N_22
REMARK    3  A    between atoms: N_25  and  C_26
REMARK                            x       y       z     vdW  Elec       q    Type
REMARK                         _______ _______ _______ _____ _____    ______ ____
ROOT
ATOM      1  C   UNL     1      53.324 153.727  26.048  0.00  0.00    +0.000 C 
ATOM      2  C   UNL     1      53.019 154.896  26.716  0.00  0.00    +0.003 C 
ATOM      3  C   UNL     1      52.209 154.916  27.835  0.00  0.00    +0.037 C 
ATOM      4  C   UNL     1      51.703 153.726  28.278  0.00  0.00    +0.003 C 
ATOM      5  C   UNL     1      51.980 152.535  27.642  0.00  0.00    +0.000 C 
ATOM      6  C   UNL     1      52.783 152.530  26.534  0.00  0.00    +0.000 C 
ATOM      7  C   UNL     1      53.102 151.357  25.834  0.00  0.00    +0.000 C 
ATOM      8  C   UNL     1      53.924 151.398  24.699  0.00  0.00    +0.000 C 
ATOM      9  C   UNL     1      54.241 150.231  23.999  0.00  0.00    +0.000 C 
ATOM     10  C   UNL     1      53.725 149.052  24.457  0.00  0.00    +0.000 C 
ATOM     11  C   UNL     1      52.925 149.003  25.562  0.00  0.00    +0.000 C 
ATOM     12  C   UNL     1      52.602 150.157  26.265  0.00  0.00    +0.000 C 
ATOM     13  C   UNL     1      54.437 152.586  24.251  0.00  0.00    +0.000 C 
ATOM     14  C   UNL     1      54.140 153.736  24.918  0.00  0.00    +0.000 C 
ATOM     15  C   UNL     1      54.668 154.924  24.439  0.00  0.00    +0.000 C 
ATOM     16  C   UNL     1      54.370 156.090  25.096  0.00  0.00    +0.000 C 
ATOM     17  C   UNL     1      53.555 156.088  26.225  0.00  0.00    +0.000 C 
ATOM     18  C   UNL     1      53.245 157.249  26.888  0.00  0.00    +0.003 C 
ATOM     19  C   UNL     1      52.421 157.257  28.024  0.00  0.00    +0.040 C 
ATOM     20  C   UNL     1      51.889 156.097  28.516  0.00  0.00    +0.170 C 
ENDROOT
BRANCH  20  21
ATOM     21  O   UNL     1      51.077 156.028  29.620  0.00  0.00    -0.383 OA
BRANCH  21  22
ATOM     22  N   UNL     1      49.931 156.613  29.824  0.00  0.00    -0.132 N 
ATOM     23  C   UNL     1      49.762 158.059  30.249  0.00  0.00    +0.334 C 
ATOM     24  O   UNL     1      50.807 158.608  30.417  0.00  0.00    -0.250 OA
ATOM     25  N   UNL     1      48.407 158.325  30.319  0.00  0.00    -0.259 N 
ATOM     26  H   UNL     1      49.115 156.078  29.692  0.00  0.00    +0.197 HD
ATOM     27  H   UNL     1      47.616 157.756  30.176  0.00  0.00    +0.153 HD
BRANCH  25  28
ATOM     28  C   UNL     1      48.573 159.991  30.742  0.00  0.00    +0.278 C 
ATOM     29  O   UNL     1      47.570 160.527  30.972  0.00  0.00    -0.196 OA
ENDBRANCH  25  28
ENDBRANCH  21  22
ENDBRANCH  20  21
TORSDOF 3
ENDMDL
