REMARK  Name = =
REMARK  0 active torsions:
REMARK  status: ('A' for Active; 'I' for Inactive)
REMARK                            x       y       z     vdW  Elec       q    Type
REMARK                         _______ _______ _______ _____ _____    ______ ____
ROOT
ATOM      1  C   UNL     1      57.296 163.531  42.631  0.00  0.00    -0.000 C 
ATOM      2  C   UNL     1      58.140 162.477  42.355  0.00  0.00    -0.000 C 
ATOM      3  C   UNL     1      59.418 162.771  41.924  0.00  0.00    -0.000 C 
ATOM      4  C   UNL     1      60.308 161.738  41.634  0.00  0.00    -0.002 C 
ATOM      5  C   UNL     1      59.883 160.440  41.786  0.00  0.00    +0.003 C 
ATOM      6  C   UNL     1      58.598 160.181  42.218  0.00  0.00    -0.021 C 
ATOM      7  C   UNL     1      57.694 161.180  42.513  0.00  0.00    -0.004 C 
ATOM      8  C   UNL     1      58.256 158.739  42.343  0.00  0.00    +0.058 C 
ATOM      9  C   UNL     1      58.779 158.039  41.132  0.00  0.00    +0.147 C 
ATOM     10  O   UNL     1      60.079 158.283  40.805  0.00  0.00    -0.349 OA
ATOM     11  C   UNL     1      60.734 159.253  41.509  0.00  0.00    +0.168 C 
ATOM     12  C   UNL     1      59.864 164.080  41.765  0.00  0.00    -0.000 C 
ATOM     13  C   UNL     1      58.982 165.116  42.054  0.00  0.00    -0.000 C 
ATOM     14  C   UNL     1      57.693 164.841  42.487  0.00  0.00    -0.000 C 
ENDROOT
TORSDOF 0
