REMARK  Name = =
REMARK  1 active torsions:
REMARK  status: ('A' for Active; 'I' for Inactive)
REMARK    1  A    between atoms: C_12  and  C_15
REMARK                            x       y       z     vdW  Elec       q    Type
REMARK                         _______ _______ _______ _____ _____    ______ ____
ROOT
ATOM      1  C   UNL     1      56.528 163.727  41.600  0.00  0.00    -0.000 C 
ATOM      2  C   UNL     1      57.360 162.688  41.259  0.00  0.00    -0.000 C 
ATOM      3  C   UNL     1      58.495 162.922  40.490  0.00  0.00    +0.001 C 
ATOM      4  C   UNL     1      59.328 161.889  40.147  0.00  0.00    -0.002 C 
ATOM      5  C   UNL     1      59.064 160.574  40.559  0.00  0.00    +0.003 C 
ATOM      6  C   UNL     1      57.945 160.317  41.322  0.00  0.00    -0.021 C 
ATOM      7  C   UNL     1      57.130 161.381  41.648  0.00  0.00    -0.004 C 
ATOM      8  C   UNL     1      57.645 158.931  41.769  0.00  0.00    +0.058 C 
ATOM      9  C   UNL     1      58.834 158.041  41.524  0.00  0.00    +0.147 C 
ATOM     10  O   UNL     1      59.265 158.242  40.204  0.00  0.00    -0.349 OA
ATOM     11  C   UNL     1      59.947 159.454  40.200  0.00  0.00    +0.168 C 
ATOM     12  C   UNL     1      58.769 164.203  40.078  0.00  0.00    +0.018 C 
ATOM     13  C   UNL     1      57.927 165.265  40.422  0.00  0.00    +0.002 C 
ATOM     14  C   UNL     1      56.802 165.005  41.190  0.00  0.00    +0.000 C 
ENDROOT
BRANCH  12  15
ATOM     15  C   UNL     1      59.931 164.544  39.272  0.00  0.00    +0.089 C 
ATOM     16  N   UNL     1      59.898 165.631  38.536  0.00  0.00    -0.297 NA
ATOM     17  H   UNL     1      60.676 165.876  37.985  0.00  0.00    +0.187 HD
ENDBRANCH  12  15
TORSDOF 1
