REMARK  Name = =
REMARK  3 active torsions:
REMARK  status: ('A' for Active; 'I' for Inactive)
REMARK    1  A    between atoms: C_12  and  C_15
REMARK    2  A    between atoms: N_17  and  S_18
REMARK    3  A    between atoms: S_18  and  C_21
REMARK                            x       y       z     vdW  Elec       q    Type
REMARK                         _______ _______ _______ _____ _____    ______ ____
ROOT
ATOM      1  C   UNL     1      56.674 163.841  41.338  0.00  0.00    -0.000 C 
ATOM      2  C   UNL     1      57.696 162.944  41.086  0.00  0.00    -0.000 C 
ATOM      3  C   UNL     1      58.938 163.375  40.603  0.00  0.00    +0.002 C 
ATOM      4  C   UNL     1      59.906 162.426  40.376  0.00  0.00    -0.002 C 
ATOM      5  C   UNL     1      59.679 161.078  40.613  0.00  0.00    +0.003 C 
ATOM      6  C   UNL     1      58.475 160.632  41.085  0.00  0.00    -0.021 C 
ATOM      7  C   UNL     1      57.511 161.586  41.310  0.00  0.00    -0.004 C 
ATOM      8  C   UNL     1      58.244 159.181  41.334  0.00  0.00    +0.058 C 
ATOM      9  C   UNL     1      59.587 158.492  41.447  0.00  0.00    +0.147 C 
ATOM     10  O   UNL     1      60.304 158.807  40.287  0.00  0.00    -0.349 OA
ATOM     11  C   UNL     1      60.789 160.101  40.341  0.00  0.00    +0.168 C 
ATOM     12  C   UNL     1      59.168 164.713  40.367  0.00  0.00    +0.032 C 
ATOM     13  C   UNL     1      58.111 165.564  40.636  0.00  0.00    +0.003 C 
ATOM     14  C   UNL     1      56.883 165.177  41.109  0.00  0.00    +0.000 C 
ENDROOT
BRANCH  12  15
ATOM     15  C   UNL     1      60.437 165.234  39.858  0.00  0.00    +0.139 C 
ATOM     16  N   UNL     1      61.507 164.580  39.710  0.00  0.00    -0.284 NA
ATOM     17  N   UNL     1      60.528 166.627  39.475  0.00  0.00    -0.199 N 
ATOM     18  H   UNL     1      61.537 163.625  39.946  0.00  0.00    +0.188 HD
ATOM     19  H   UNL     1      60.008 167.298  39.974  0.00  0.00    +0.175 HD
BRANCH  17  20
ATOM     20  S   UNL     1      61.527 167.140  38.164  0.00  0.00    +0.075 S 
ATOM     21  O   UNL     1      61.641 168.652  38.255  0.00  0.00    -0.150 OA
ATOM     22  O   UNL     1      62.920 166.623  38.244  0.00  0.00    -0.150 OA
BRANCH  20  23
ATOM     23  C   UNL     1      60.776 166.789  36.625  0.00  0.00    +0.125 C 
ATOM     24  C   UNL     1      60.559 165.486  36.231  0.00  0.00    +0.020 C 
ATOM     25  C   UNL     1      59.967 165.175  35.021  0.00  0.00    +0.001 C 
ATOM     26  C   UNL     1      59.593 166.224  34.206  0.00  0.00    +0.000 C 
ATOM     27  C   UNL     1      59.805 167.531  34.590  0.00  0.00    +0.001 C 
ATOM     28  C   UNL     1      60.398 167.816  35.802  0.00  0.00    +0.020 C 
ENDBRANCH  20  23
ENDBRANCH  17  20
ENDBRANCH  12  15
TORSDOF 3
