REMARK  Name = =
REMARK  6 active torsions:
REMARK  status: ('A' for Active; 'I' for Inactive)
REMARK    1  A    between atoms: C_1  and  C_15
REMARK    2  A    between atoms: N_3  and  S_18
REMARK    3  A    between atoms: N_3  and  N_27
REMARK    4  A    between atoms: S_18  and  C_21
REMARK    5  A    between atoms: N_27  and  N_28
REMARK    6  A    between atoms: C_29  and  O_31
REMARK                            x       y       z     vdW  Elec       q    Type
REMARK                         _______ _______ _______ _____ _____    ______ ____
ROOT
ATOM      1  C   UNL     1      60.149 165.552  39.915  0.00  0.00    +0.160 C 
ATOM      2  N   UNL     1      60.307 166.838  40.234  0.00  0.00    -0.283 NA
ATOM      3  N   UNL     1      61.124 165.099  38.999  0.00  0.00    -0.100 N 
ATOM      4  H   UNL     1      59.687 167.268  40.866  0.00  0.00    +0.188 HD
ENDROOT
BRANCH   1  16
ATOM      5  C   UNL     1      56.670 163.696  41.346  0.00  0.00    -0.000 C 
ATOM      6  C   UNL     1      57.718 162.899  40.901  0.00  0.00    -0.000 C 
ATOM      7  C   UNL     1      58.903 163.482  40.455  0.00  0.00    +0.003 C 
ATOM      8  C   UNL     1      59.925 162.646  40.057  0.00  0.00    -0.002 C 
ATOM      9  C   UNL     1      59.804 161.278  40.088  0.00  0.00    +0.003 C 
ATOM     10  C   UNL     1      58.634 160.707  40.525  0.00  0.00    -0.021 C 
ATOM     11  C   UNL     1      57.602 161.517  40.928  0.00  0.00    -0.004 C 
ATOM     12  C   UNL     1      58.581 159.230  40.526  0.00  0.00    +0.058 C 
ATOM     13  C   UNL     1      59.921 158.796  41.126  0.00  0.00    +0.147 C 
ATOM     14  O   UNL     1      61.011 159.243  40.450  0.00  0.00    -0.349 OA
ATOM     15  C   UNL     1      60.886 160.353  39.671  0.00  0.00    +0.168 C 
ATOM     16  C   UNL     1      59.027 164.856  40.456  0.00  0.00    +0.034 C 
ATOM     17  C   UNL     1      57.953 165.654  40.912  0.00  0.00    +0.003 C 
ATOM     18  C   UNL     1      56.803 165.057  41.345  0.00  0.00    +0.000 C 
ENDBRANCH   1  16
BRANCH   3  19
ATOM     19  S   UNL     1      60.861 164.924  37.310  0.00  0.00    +0.091 S 
ATOM     20  O   UNL     1      59.475 164.620  36.915  0.00  0.00    -0.148 OA
ATOM     21  O   UNL     1      61.757 163.869  36.726  0.00  0.00    -0.148 OA
BRANCH  19  22
ATOM     22  C   UNL     1      61.285 166.454  36.521  0.00  0.00    +0.127 C 
ATOM     23  C   UNL     1      62.585 166.669  36.095  0.00  0.00    +0.020 C 
ATOM     24  C   UNL     1      62.930 167.862  35.479  0.00  0.00    +0.001 C 
ATOM     25  C   UNL     1      61.996 168.838  35.285  0.00  0.00    +0.000 C 
ATOM     26  C   UNL     1      60.700 168.636  35.705  0.00  0.00    +0.001 C 
ATOM     27  C   UNL     1      60.346 167.437  36.326  0.00  0.00    +0.020 C 
ENDBRANCH  19  22
ENDBRANCH   3  19
BRANCH   3  28
ATOM     28  N   UNL     1      62.426 164.859  39.484  0.00  0.00    -0.134 NA
ATOM     29  H   UNL     1      62.910 164.207  38.867  0.00  0.00    +0.170 HD
BRANCH  28  30
ATOM     30  N   UNL     1      63.109 166.075  39.516  0.00  0.00    -0.199 N 
ATOM     31  C   UNL     1      64.515 166.135  39.716  0.00  0.00    +0.413 C 
ATOM     32  O   UNL     1      65.102 165.018  39.861  0.00  0.00    -0.225 OA
ATOM     33  H   UNL     1      62.605 166.912  39.397  0.00  0.00    +0.174 HD
BRANCH  31  34
ATOM     34  O   UNL     1      65.169 167.348  39.746  0.00  0.00    -0.465 OA
ATOM     35  H   UNL     1      64.687 168.143  39.633  0.00  0.00    +0.297 HD
ENDBRANCH  31  34
ENDBRANCH  28  30
ENDBRANCH   3  28
TORSDOF 6
