REMARK  Name = =
REMARK  7 active torsions:
REMARK  status: ('A' for Active; 'I' for Inactive)
REMARK    1  A    between atoms: C_1  and  C_15
REMARK    2  A    between atoms: N_3  and  S_18
REMARK    3  A    between atoms: N_3  and  N_27
REMARK    4  A    between atoms: S_18  and  C_21
REMARK    5  A    between atoms: N_27  and  N_33
REMARK    6  A    between atoms: C_28  and  C_30
REMARK    7  A    between atoms: C_34  and  O_36
REMARK                            x       y       z     vdW  Elec       q    Type
REMARK                         _______ _______ _______ _____ _____    ______ ____
ROOT
ATOM      1  C   UNL     1      61.770 164.399  39.165  0.00  0.00    +0.164 C 
ATOM      2  N   UNL     1      62.239 163.226  39.049  0.00  0.00    -0.282 NA
ATOM      3  N   UNL     1      62.729 165.443  38.858  0.00  0.00    -0.079 N 
ATOM      4  H   UNL     1      61.667 162.447  39.235  0.00  0.00    +0.188 HD
ENDROOT
BRANCH   1  16
ATOM      5  C   UNL     1      57.883 165.638  40.301  0.00  0.00    -0.000 C 
ATOM      6  C   UNL     1      58.268 164.337  40.576  0.00  0.00    -0.000 C 
ATOM      7  C   UNL     1      59.551 163.948  40.190  0.00  0.00    +0.003 C 
ATOM      8  C   UNL     1      59.875 162.644  40.487  0.00  0.00    -0.002 C 
ATOM      9  C   UNL     1      59.005 161.759  41.124  0.00  0.00    +0.003 C 
ATOM     10  C   UNL     1      57.756 162.164  41.490  0.00  0.00    -0.021 C 
ATOM     11  C   UNL     1      57.392 163.480  41.206  0.00  0.00    -0.004 C 
ATOM     12  C   UNL     1      56.844 161.229  42.161  0.00  0.00    +0.058 C 
ATOM     13  C   UNL     1      57.395 159.844  42.170  0.00  0.00    +0.147 C 
ATOM     14  O   UNL     1      58.768 159.789  42.421  0.00  0.00    -0.349 OA
ATOM     15  C   UNL     1      59.492 160.358  41.379  0.00  0.00    +0.168 C 
ATOM     16  C   UNL     1      60.430 164.798  39.557  0.00  0.00    +0.034 C 
ATOM     17  C   UNL     1      59.975 166.088  39.314  0.00  0.00    +0.003 C 
ATOM     18  C   UNL     1      58.722 166.510  39.676  0.00  0.00    +0.000 C 
ENDBRANCH   1  16
BRANCH   3  19
ATOM     19  S   UNL     1      63.093 165.741  37.232  0.00  0.00    +0.094 S 
ATOM     20  O   UNL     1      63.689 164.470  36.609  0.00  0.00    -0.148 OA
ATOM     21  O   UNL     1      64.177 166.776  37.053  0.00  0.00    -0.148 OA
BRANCH  19  22
ATOM     22  C   UNL     1      61.743 166.168  36.236  0.00  0.00    +0.127 C 
ATOM     23  C   UNL     1      61.435 167.477  35.974  0.00  0.00    +0.020 C 
ATOM     24  C   UNL     1      60.358 167.846  35.180  0.00  0.00    +0.001 C 
ATOM     25  C   UNL     1      59.556 166.865  34.628  0.00  0.00    +0.000 C 
ATOM     26  C   UNL     1      59.833 165.544  34.868  0.00  0.00    +0.001 C 
ATOM     27  C   UNL     1      60.910 165.209  35.659  0.00  0.00    +0.020 C 
ENDBRANCH  19  22
ENDBRANCH   3  19
BRANCH   3  28
ATOM     28  N   UNL     1      63.344 166.128  39.883  0.00  0.00    -0.099 N 
ATOM     29  C   UNL     1      63.190 167.528  40.054  0.00  0.00    +0.336 C 
ATOM     30  O   UNL     1      62.482 168.246  39.304  0.00  0.00    -0.262 OA
BRANCH  29  31
ATOM     31  C   UNL     1      63.867 168.245  41.147  0.00  0.00    +0.300 C 
ATOM     32  O   UNL     1      64.519 167.562  41.962  0.00  0.00    -0.265 OA
ATOM     33  N   UNL     1      63.791 169.643  41.283  0.00  0.00    -0.321 N 
ATOM     34  H   UNL     1      63.274 170.173  40.634  0.00  0.00    +0.145 HD
ATOM     35  H   UNL     1      64.255 170.091  42.027  0.00  0.00    +0.145 HD
ENDBRANCH  29  31
BRANCH  28  36
ATOM     36  N   UNL     1      64.160 165.456  40.821  0.00  0.00    -0.178 N 
ATOM     37  C   UNL     1      65.388 164.843  40.501  0.00  0.00    +0.416 C 
ATOM     38  O   UNL     1      65.811 164.875  39.321  0.00  0.00    -0.225 OA
ATOM     39  H   UNL     1      63.852 165.413  41.755  0.00  0.00    +0.178 HD
BRANCH  37  40
ATOM     40  O   UNL     1      66.142 164.197  41.481  0.00  0.00    -0.465 OA
ATOM     41  H   UNL     1      65.834 164.168  42.366  0.00  0.00    +0.297 HD
ENDBRANCH  37  40
ENDBRANCH  28  36
ENDBRANCH   3  28
TORSDOF 7
