MODEL 1
REMARK VINA RESULT:    -9.740      0.000      0.000
REMARK INTER + INTRA:         -14.591
REMARK INTER:                 -14.011
REMARK INTRA:                  -0.581
REMARK UNBOUND:                -0.581
REMARK  Name = =
REMARK  8 active torsions:
REMARK  status: ('A' for Active; 'I' for Inactive)
REMARK    1  A    between atoms: N_1  and  C_6
REMARK    2  A    between atoms: N_1  and  N_16
REMARK    3  A    between atoms: C_2  and  C_9
REMARK    4  A    between atoms: N_8  and  C_15
REMARK    5  A    between atoms: C_17  and  C_19
REMARK    6  A    between atoms: N_21  and  C_22
REMARK    7  A    between atoms: C_23  and  C_24
REMARK    8  A    between atoms: C_24  and  O_26
REMARK                            x       y       z     vdW  Elec       q    Type
REMARK                         _______ _______ _______ _____ _____    ______ ____
ROOT
ATOM      1  N   UNL     1      53.460 156.485  26.786  0.00  0.00    -0.247 N 
ATOM      2  H   UNL     1      54.001 157.229  26.435  0.00  0.00    +0.172 HD
ENDROOT
BRANCH   1   7
ATOM      3  C   UNL     1      51.584 158.024  29.526  0.00  0.00    +0.139 C 
ATOM      4  N   UNL     1      50.957 156.910  29.928  0.00  0.00    -0.219 NA
ATOM      5  C   UNL     1      51.083 155.704  29.376  0.00  0.00    +0.200 C 
ATOM      6  N   UNL     1      51.912 155.580  28.319  0.00  0.00    -0.208 NA
ATOM      7  C   UNL     1      52.572 156.681  27.875  0.00  0.00    +0.148 C 
ATOM      8  C   UNL     1      52.431 157.906  28.449  0.00  0.00    +0.059 C 
BRANCH   3  10
ATOM      9  N   UNL     1      50.159 159.476  30.929  0.00  0.00    -0.301 N 
ATOM     10  C   UNL     1      51.386 159.293  30.240  0.00  0.00    +0.264 C 
ATOM     11  O   UNL     1      52.269 160.179  30.247  0.00  0.00    -0.268 OA
ATOM     12  H   UNL     1      49.484 158.760  30.909  0.00  0.00    +0.150 HD
BRANCH   9  17
ATOM     13  C   UNL     1      49.568 160.482  33.116  0.00  0.00    +0.020 C 
ATOM     14  C   UNL     1      48.347 161.338  33.372  0.00  0.00    +0.002 C 
ATOM     15  C   UNL     1      48.304 162.330  32.233  0.00  0.00    +0.002 C 
ATOM     16  C   UNL     1      48.783 161.496  31.063  0.00  0.00    +0.020 C 
ATOM     17  C   UNL     1      49.879 160.679  31.652  0.00  0.00    +0.072 C 
ENDBRANCH   9  17
ENDBRANCH   3  10
ENDBRANCH   1   7
BRANCH   1  18
ATOM     18  N   UNL     1      53.548 155.212  26.227  0.00  0.00    -0.228 N 
ATOM     19  C   UNL     1      54.240 154.923  25.032  0.00  0.00    +0.315 C 
ATOM     20  O   UNL     1      54.815 155.868  24.410  0.00  0.00    -0.264 OA
ATOM     21  H   UNL     1      53.100 154.470  26.694  0.00  0.00    +0.173 HD
BRANCH  19  22
ATOM     22  C   UNL     1      54.310 153.572  24.497  0.00  0.00    +0.305 C 
ATOM     23  O   UNL     1      54.360 153.417  23.233  0.00  0.00    -0.265 OA
ATOM     24  N   UNL     1      54.322 152.434  25.324  0.00  0.00    -0.275 N 
ATOM     25  H   UNL     1      54.286 152.580  26.297  0.00  0.00    +0.155 HD
BRANCH  24  26
ATOM     26  C   UNL     1      54.382 151.099  24.867  0.00  0.00    +0.071 C 
ATOM     27  C   UNL     1      53.549 150.205  25.378  0.00  0.00    +0.098 C 
BRANCH  27  28
ATOM     28  C   UNL     1      53.603 148.822  24.912  0.00  0.00    +0.340 C 
ATOM     29  O   UNL     1      52.567 148.072  24.985  0.00  0.00    -0.245 OA
BRANCH  28  30
ATOM     30  O   UNL     1      54.768 148.315  24.389  0.00  0.00    -0.477 OA
ATOM     31  H   UNL     1      54.970 148.442  23.483  0.00  0.00    +0.295 HD
ENDBRANCH  28  30
ENDBRANCH  27  28
ENDBRANCH  24  26
ENDBRANCH  19  22
ENDBRANCH   1  18
TORSDOF 8
ENDMDL
