REMARK  Name = =
REMARK  1 active torsions:
REMARK  status: ('A' for Active; 'I' for Inactive)
REMARK    1  A    between atoms: C_7  and  C_8
REMARK                            x       y       z     vdW  Elec       q    Type
REMARK                         _______ _______ _______ _____ _____    ______ ____
ROOT
ATOM      1  F   UNL     1      49.490 155.762  29.480  0.00  0.00    -0.204 F 
ATOM      2  C   UNL     1      50.266 156.868  29.611  0.00  0.00    +0.140 C 
ATOM      3  C   UNL     1      49.774 157.960  30.286  0.00  0.00    +0.030 C 
ATOM      4  C   UNL     1      50.548 159.106  30.435  0.00  0.00    +0.002 C 
ATOM      5  C   UNL     1      51.807 159.159  29.910  0.00  0.00    +0.000 C 
ATOM      6  C   UNL     1      52.276 158.055  29.240  0.00  0.00    +0.002 C 
ATOM      7  C   UNL     1      51.546 156.896  29.066  0.00  0.00    +0.027 C 
ENDROOT
BRANCH   7   8
ATOM      8  C   UNL     1      52.080 155.742  28.347  0.00  0.00    +0.002 C 
ATOM      9  C   UNL     1      52.037 154.456  28.846  0.00  0.00    +0.001 C 
ATOM     10  C   UNL     1      52.554 153.383  28.137  0.00  0.00    +0.011 C 
ATOM     11  C   UNL     1      53.135 153.563  26.898  0.00  0.00    +0.058 C 
ATOM     12  C   UNL     1      53.179 154.844  26.401  0.00  0.00    +0.011 C 
ATOM     13  C   UNL     1      52.663 155.917  27.107  0.00  0.00    +0.001 C 
ATOM     14 CL   UNL     1      53.778 152.182  26.029  0.00  0.00    -0.082 Cl
ENDBRANCH   7   8
TORSDOF 1
