REMARK  Name = =
REMARK  0 active torsions:
REMARK  status: ('A' for Active; 'I' for Inactive)
REMARK                            x       y       z     vdW  Elec       q    Type
REMARK                         _______ _______ _______ _____ _____    ______ ____
ROOT
ATOM      1  C   UNL     1      53.366 157.135  27.080  0.00  0.00    +0.022 C 
ATOM      2  C   UNL     1      52.822 157.699  28.353  0.00  0.00    +0.004 C 
ATOM      3  C   UNL     1      51.534 156.979  28.675  0.00  0.00    +0.001 C 
ATOM      4  C   UNL     1      51.948 155.565  29.112  0.00  0.00    +0.004 C 
ATOM      5  C   UNL     1      52.408 154.846  27.904  0.00  0.00    +0.018 C 
ATOM      6  C   UNL     1      51.454 153.862  27.346  0.00  0.00    +0.009 C 
ATOM      7  C   UNL     1      52.011 153.096  26.210  0.00  0.00    +0.026 C 
ATOM      8  C   UNL     1      53.140 153.751  25.509  0.00  0.00    -0.031 C 
ATOM      9  C   UNL     1      53.891 153.056  24.677  0.00  0.00    -0.031 C 
ATOM     10  C   UNL     1      55.009 153.668  23.972  0.00  0.00    +0.026 C 
ATOM     11  C   UNL     1      55.274 155.102  24.247  0.00  0.00    +0.009 C 
ATOM     12  C   UNL     1      54.072 155.912  24.654  0.00  0.00    +0.026 C 
ATOM     13  C   UNL     1      53.406 155.152  25.746  0.00  0.00    -0.034 C 
ATOM     14  C   UNL     1      53.060 155.693  26.896  0.00  0.00    -0.049 C 
ATOM     15  C   UNL     1      50.678 155.069  29.714  0.00  0.00    +0.000 C 
ATOM     16  C   UNL     1      50.267 156.260  30.590  0.00  0.00    +0.000 C 
ATOM     17  C   UNL     1      50.856 157.483  29.906  0.00  0.00    +0.000 C 
ENDROOT
TORSDOF 0
