REMARK  Name = =
REMARK  1 active torsions:
REMARK  status: ('A' for Active; 'I' for Inactive)
REMARK    1  A    between atoms: C_1  and  S_18
REMARK                            x       y       z     vdW  Elec       q    Type
REMARK                         _______ _______ _______ _____ _____    ______ ____
ROOT
ATOM      1  C   UNL     1      52.738 156.738  26.700  0.00  0.00    +0.094 C 
ATOM      2  C   UNL     1      51.738 157.455  27.577  0.00  0.00    +0.017 C 
ATOM      3  C   UNL     1      51.619 156.737  28.910  0.00  0.00    +0.002 C 
ATOM      4  C   UNL     1      51.002 155.397  28.572  0.00  0.00    +0.004 C 
ATOM      5  C   UNL     1      52.126 154.556  28.026  0.00  0.00    +0.019 C 
ATOM      6  C   UNL     1      51.657 153.175  27.638  0.00  0.00    +0.009 C 
ATOM      7  C   UNL     1      52.908 152.396  27.286  0.00  0.00    +0.026 C 
ATOM      8  C   UNL     1      53.437 153.107  26.050  0.00  0.00    -0.031 C 
ATOM      9  C   UNL     1      53.950 152.384  25.103  0.00  0.00    -0.031 C 
ATOM     10  C   UNL     1      54.483 152.972  23.880  0.00  0.00    +0.026 C 
ATOM     11  C   UNL     1      54.997 154.382  24.076  0.00  0.00    +0.009 C 
ATOM     12  C   UNL     1      53.980 155.238  24.802  0.00  0.00    +0.026 C 
ATOM     13  C   UNL     1      53.357 154.549  25.954  0.00  0.00    -0.033 C 
ATOM     14  C   UNL     1      52.741 155.275  26.894  0.00  0.00    -0.037 C 
ATOM     15  C   UNL     1      50.425 154.905  29.851  0.00  0.00    +0.000 C 
ATOM     16  C   UNL     1      50.262 156.150  30.732  0.00  0.00    +0.000 C 
ATOM     17  C   UNL     1      50.611 157.333  29.819  0.00  0.00    +0.000 C 
ENDROOT
BRANCH   1  18
ATOM     18  S   UNL     1      54.368 157.332  27.252  0.00  0.00    +0.021 S 
ATOM     19  O   UNL     1      55.036 158.175  26.204  0.00  0.00    -0.259 OA
ATOM     20  H   UNL     1      55.159 156.260  27.525  0.00  0.00    +0.139 HD
ENDBRANCH   1  18
TORSDOF 1
