REMARK  Name = =
REMARK  3 active torsions:
REMARK  status: ('A' for Active; 'I' for Inactive)
REMARK    1  A    between atoms: C_1  and  S_18
REMARK    2  A    between atoms: C_1  and  N_20
REMARK    3  A    between atoms: N_20  and  N_23
REMARK                            x       y       z     vdW  Elec       q    Type
REMARK                         _______ _______ _______ _____ _____    ______ ____
ROOT
ATOM      1  C   UNL     1      51.605 154.909  27.531  0.00  0.00    +0.161 C 
ATOM      2  C   UNL     1      51.314 156.093  28.472  0.00  0.00    +0.037 C 
ATOM      3  C   UNL     1      52.301 157.184  28.101  0.00  0.00    +0.003 C 
ATOM      4  C   UNL     1      53.681 156.679  28.363  0.00  0.00    +0.004 C 
ATOM      5  C   UNL     1      53.622 155.264  28.972  0.00  0.00    +0.021 C 
ATOM      6  C   UNL     1      55.011 154.901  29.327  0.00  0.00    +0.009 C 
ATOM      7  C   UNL     1      55.431 153.490  29.039  0.00  0.00    +0.026 C 
ATOM      8  C   UNL     1      54.917 152.975  27.775  0.00  0.00    -0.031 C 
ATOM      9  C   UNL     1      55.624 152.162  27.041  0.00  0.00    -0.031 C 
ATOM     10  C   UNL     1      55.174 151.605  25.763  0.00  0.00    +0.026 C 
ATOM     11  C   UNL     1      54.030 152.424  25.227  0.00  0.00    +0.009 C 
ATOM     12  C   UNL     1      52.930 152.615  26.305  0.00  0.00    +0.026 C 
ATOM     13  C   UNL     1      53.561 153.419  27.371  0.00  0.00    -0.032 C 
ATOM     14  C   UNL     1      52.973 154.442  27.918  0.00  0.00    -0.019 C 
ATOM     15  C   UNL     1      54.351 157.668  29.230  0.00  0.00    +0.000 C 
ATOM     16  C   UNL     1      53.234 158.399  29.943  0.00  0.00    +0.000 C 
ATOM     17  C   UNL     1      52.055 158.341  29.021  0.00  0.00    +0.000 C 
ENDROOT
BRANCH   1  18
ATOM     18  S   UNL     1      51.655 155.583  25.889  0.00  0.00    +0.039 S 
ATOM     19  O   UNL     1      52.244 154.585  24.938  0.00  0.00    -0.258 OA
ATOM     20  H   UNL     1      52.418 156.709  25.888  0.00  0.00    +0.141 HD
ENDBRANCH   1  18
BRANCH   1  21
ATOM     21  N   UNL     1      50.585 153.964  27.771  0.00  0.00    -0.161 N 
ATOM     22  C   UNL     1      49.402 154.309  28.432  0.00  0.00    +0.324 C 
ATOM     23  O   UNL     1      49.159 155.457  28.853  0.00  0.00    -0.263 OA
BRANCH  21  24
ATOM     24  N   UNL     1      50.746 152.638  27.365  0.00  0.00    -0.171 NA
ATOM     25  C   UNL     1      51.202 151.707  28.104  0.00  0.00    +0.140 C 
ENDBRANCH  21  24
ENDBRANCH   1  21
TORSDOF 3
