REMARK  Name = =
REMARK  5 active torsions:
REMARK  status: ('A' for Active; 'I' for Inactive)
REMARK    1  A    between atoms: C_1  and  S_18
REMARK    2  A    between atoms: C_1  and  N_20
REMARK    3  A    between atoms: C_12  and  C_25
REMARK    4  A    between atoms: N_20  and  N_23
REMARK    5  A    between atoms: C_25  and  C_26
REMARK                            x       y       z     vdW  Elec       q    Type
REMARK                         _______ _______ _______ _____ _____    ______ ____
ROOT
ATOM      1  C   UNL     1      52.072 154.335  26.497  0.00  0.00    +0.161 C 
ATOM      2  C   UNL     1      52.389 155.840  26.460  0.00  0.00    +0.037 C 
ATOM      3  C   UNL     1      52.501 156.312  27.859  0.00  0.00    +0.003 C 
ATOM      4  C   UNL     1      52.890 155.367  28.919  0.00  0.00    +0.004 C 
ATOM      5  C   UNL     1      53.356 154.028  28.558  0.00  0.00    +0.021 C 
ATOM      6  C   UNL     1      54.427 153.405  29.260  0.00  0.00    +0.009 C 
ATOM      7  C   UNL     1      55.729 153.244  28.469  0.00  0.00    +0.026 C 
ATOM      8  C   UNL     1      55.343 152.600  27.151  0.00  0.00    -0.031 C 
ATOM      9  C   UNL     1      55.974 151.580  26.663  0.00  0.00    -0.031 C 
ATOM     10  C   UNL     1      55.593 150.964  25.390  0.00  0.00    +0.026 C 
ATOM     11  C   UNL     1      54.416 151.519  24.689  0.00  0.00    +0.009 C 
ATOM     12  C   UNL     1      54.165 152.992  25.001  0.00  0.00    +0.026 C 
ATOM     13  C   UNL     1      54.194 153.164  26.424  0.00  0.00    -0.032 C 
ATOM     14  C   UNL     1      53.274 153.761  27.096  0.00  0.00    -0.019 C 
ATOM     15  C   UNL     1      53.905 156.087  29.773  0.00  0.00    +0.000 C 
ATOM     16  C   UNL     1      53.658 157.567  29.526  0.00  0.00    +0.000 C 
ATOM     17  C   UNL     1      53.307 157.550  28.046  0.00  0.00    +0.000 C 
ENDROOT
BRANCH   1  18
ATOM     18  S   UNL     1      50.826 154.281  27.872  0.00  0.00    +0.039 S 
ATOM     19  O   UNL     1      50.925 152.998  28.636  0.00  0.00    -0.258 OA
ATOM     20  H   UNL     1      49.577 154.389  27.345  0.00  0.00    +0.141 HD
ENDBRANCH   1  18
BRANCH   1  21
ATOM     21  N   UNL     1      51.385 153.817  25.429  0.00  0.00    -0.161 N 
ATOM     22  C   UNL     1      51.034 152.460  25.319  0.00  0.00    +0.324 C 
ATOM     23  O   UNL     1      51.355 151.678  26.236  0.00  0.00    -0.263 OA
BRANCH  21  24
ATOM     24  N   UNL     1      50.967 154.670  24.374  0.00  0.00    -0.171 NA
ATOM     25  C   UNL     1      51.783 155.034  23.445  0.00  0.00    +0.140 C 
ENDBRANCH  21  24
ENDBRANCH   1  21
BRANCH  12  26
ATOM     26  C   UNL     1      55.458 153.674  24.438  0.00  0.00    +0.030 C 
BRANCH  26  27
ATOM     27  C   UNL     1      55.118 154.308  23.140  0.00  0.00    -0.026 C 
ATOM     28  C   UNL     1      55.939 154.364  22.124  0.00  0.00    -0.005 C 
ENDBRANCH  26  27
ENDBRANCH  12  26
TORSDOF 5
