REMARK  Name = =
REMARK  8 active torsions:
REMARK  status: ('A' for Active; 'I' for Inactive)
REMARK    1  A    between atoms: C_1  and  N_18
REMARK    2  A    between atoms: C_1  and  S_23
REMARK    3  A    between atoms: C_12  and  C_30
REMARK    4  A    between atoms: N_18  and  N_21
REMARK    5  A    between atoms: S_23  and  O_25
REMARK    6  A    between atoms: O_25  and  C_26
REMARK    7  A    between atoms: C_26  and  C_28
REMARK    8  A    between atoms: C_30  and  C_31
REMARK                            x       y       z     vdW  Elec       q    Type
REMARK                         _______ _______ _______ _____ _____    ______ ____
ROOT
ATOM      1  C   UNL     1      53.290 154.269  25.601  0.00  0.00    +0.188 C 
ATOM      2  C   UNL     1      53.795 153.163  24.703  0.00  0.00    +0.039 C 
ATOM      3  C   UNL     1      54.631 152.117  25.380  0.00  0.00    +0.003 C 
ATOM      4  C   UNL     1      53.856 151.455  26.499  0.00  0.00    +0.004 C 
ATOM      5  C   UNL     1      53.384 152.464  27.443  0.00  0.00    +0.021 C 
ATOM      6  C   UNL     1      54.133 152.464  28.761  0.00  0.00    +0.009 C 
ATOM      7  C   UNL     1      53.404 153.205  29.835  0.00  0.00    +0.026 C 
ATOM      8  C   UNL     1      52.433 154.136  29.222  0.00  0.00    -0.031 C 
ATOM      9  C   UNL     1      51.297 154.487  29.851  0.00  0.00    -0.031 C 
ATOM     10  C   UNL     1      50.401 155.409  29.161  0.00  0.00    +0.026 C 
ATOM     11  C   UNL     1      50.967 156.412  28.252  0.00  0.00    +0.009 C 
ATOM     12  C   UNL     1      52.350 156.094  27.683  0.00  0.00    +0.026 C 
ATOM     13  C   UNL     1      52.669 154.713  27.887  0.00  0.00    -0.032 C 
ATOM     14  C   UNL     1      53.112 153.824  26.959  0.00  0.00    -0.017 C 
ATOM     15  C   UNL     1      52.757 150.713  25.818  0.00  0.00    +0.000 C 
ATOM     16  C   UNL     1      53.442 150.155  24.591  0.00  0.00    +0.000 C 
ATOM     17  C   UNL     1      54.710 150.946  24.387  0.00  0.00    +0.000 C 
ENDROOT
BRANCH   1  18
ATOM     18  N   UNL     1      52.023 154.629  24.950  0.00  0.00    -0.159 N 
ATOM     19  C   UNL     1      52.046 155.504  23.844  0.00  0.00    +0.324 C 
ATOM     20  O   UNL     1      50.968 155.857  23.252  0.00  0.00    -0.263 OA
BRANCH  18  21
ATOM     21  N   UNL     1      50.811 154.075  25.413  0.00  0.00    -0.171 NA
ATOM     22  C   UNL     1      50.540 152.842  25.101  0.00  0.00    +0.140 C 
ENDBRANCH  18  21
ENDBRANCH   1  18
BRANCH   1  23
ATOM     23  S   UNL     1      54.505 155.574  25.544  0.00  0.00    +0.174 S 
ATOM     24  O   UNL     1      55.858 155.007  25.948  0.00  0.00    -0.118 OA
BRANCH  23  25
ATOM     25  O   UNL     1      54.653 156.372  24.057  0.00  0.00    -0.366 OA
BRANCH  25  26
ATOM     26  C   UNL     1      54.966 157.720  23.974  0.00  0.00    +0.397 C 
ATOM     27  O   UNL     1      54.811 158.408  25.027  0.00  0.00    -0.240 OA
BRANCH  26  28
ATOM     28  C   UNL     1      55.449 158.370  22.781  0.00  0.00    +0.317 C 
ATOM     29  O   UNL     1      55.731 157.666  21.777  0.00  0.00    -0.276 OA
ENDBRANCH  26  28
ENDBRANCH  25  26
ENDBRANCH  23  25
ENDBRANCH   1  23
BRANCH  12  30
ATOM     30  C   UNL     1      53.272 157.036  28.423  0.00  0.00    +0.030 C 
BRANCH  30  31
ATOM     31  C   UNL     1      52.652 157.885  29.433  0.00  0.00    -0.026 C 
ATOM     32  C   UNL     1      52.345 159.151  29.109  0.00  0.00    -0.005 C 
ENDBRANCH  30  31
ENDBRANCH  12  30
TORSDOF 8
