REMARK  Name = =
REMARK  0 active torsions:
REMARK  status: ('A' for Active; 'I' for Inactive)
REMARK                            x       y       z     vdW  Elec       q    Type
REMARK                         _______ _______ _______ _____ _____    ______ ____
ROOT
ATOM      1  C   UNL     1      52.477 156.228  28.181  0.00  0.00    +0.122 C 
ATOM      2  N   UNL     1      51.469 155.407  28.503  0.00  0.00    -0.146 NA
ATOM      3  N   UNL     1      50.497 155.770  29.341  0.00  0.00    -0.146 NA
ATOM      4  C   UNL     1      50.468 156.980  29.915  0.00  0.00    +0.122 C 
ATOM      5  C   UNL     1      51.479 157.863  29.620  0.00  0.00    +0.024 C 
ATOM      6  C   UNL     1      52.495 157.482  28.742  0.00  0.00    +0.024 C 
ENDROOT
TORSDOF 0
