REMARK  Name = =
REMARK  1 active torsions:
REMARK  status: ('A' for Active; 'I' for Inactive)
REMARK    1  A    between atoms: C_4  and  C_7
REMARK                            x       y       z     vdW  Elec       q    Type
REMARK                         _______ _______ _______ _____ _____    ______ ____
ROOT
ATOM      1  C   UNL     1      52.076 156.644  29.202  0.00  0.00    +0.122 C 
ATOM      2  N   UNL     1      50.885 156.125  29.548  0.00  0.00    -0.147 NA
ATOM      3  N   UNL     1      49.879 156.913  29.926  0.00  0.00    -0.150 NA
ATOM      4  C   UNL     1      49.983 158.244  29.985  0.00  0.00    +0.107 C 
ATOM      5  C   UNL     1      51.196 158.803  29.634  0.00  0.00    +0.020 C 
ATOM      6  C   UNL     1      52.271 158.009  29.234  0.00  0.00    +0.024 C 
ENDROOT
BRANCH   4   7
ATOM      7  C   UNL     1      48.902 159.149  30.394  0.00  0.00    +0.162 C 
ATOM      8  N   UNL     1      49.057 160.499  30.025  0.00  0.00    -0.202 NA
ATOM      9  C   UNL     1      49.189 161.371  31.103  0.00  0.00    +0.102 C 
ATOM     10  C   UNL     1      48.354 160.965  32.266  0.00  0.00    +0.078 C 
ATOM     11  S   UNL     1      48.673 159.153  32.208  0.00  0.00    -0.116 S 
ENDBRANCH   4   7
TORSDOF 1
