REMARK  Name = =
REMARK  1 active torsions:
REMARK  status: ('A' for Active; 'I' for Inactive)
REMARK    1  A    between atoms: C_1  and  C_9
REMARK                            x       y       z     vdW  Elec       q    Type
REMARK                         _______ _______ _______ _____ _____    ______ ____
ROOT
ATOM      1  C   UNL     1      48.943 161.451  34.128  0.00  0.00    +0.122 C 
ATOM      2  N   UNL     1      47.981 160.943  33.342  0.00  0.00    -0.147 NA
ATOM      3  N   UNL     1      48.264 160.371  32.190  0.00  0.00    -0.150 NA
ATOM      4  C   UNL     1      49.499 160.254  31.728  0.00  0.00    +0.107 C 
ATOM      5  C   UNL     1      50.523 160.760  32.498  0.00  0.00    +0.020 C 
ATOM      6  C   UNL     1      50.248 161.361  33.702  0.00  0.00    +0.024 C 
ENDROOT
BRANCH   4   7
ATOM      7  C   UNL     1      49.850 159.613  30.432  0.00  0.00    +0.162 C 
ATOM      8  N   UNL     1      51.248 159.441  30.301  0.00  0.00    -0.202 NA
ATOM      9  C   UNL     1      51.553 158.399  29.386  0.00  0.00    +0.102 C 
ATOM     10  C   UNL     1      50.868 157.117  29.882  0.00  0.00    +0.078 C 
ATOM     11  S   UNL     1      49.270 157.871  30.400  0.00  0.00    -0.116 S 
ENDBRANCH   4   7
TORSDOF 1
REMARK  Name = =
REMARK  1 active torsions:
REMARK  status: ('A' for Active; 'I' for Inactive)
REMARK    1  A    between atoms: C_1  and  C_9
REMARK                            x       y       z     vdW  Elec       q    Type
REMARK                         _______ _______ _______ _____ _____    ______ ____
ROOT
ATOM      1  P   UNL     1      49.044 160.598  29.195  0.00  0.00    +0.000 P 
ENDROOT
TORSDOF 0
REMARK  Name = =
REMARK  1 active torsions:
REMARK  status: ('A' for Active; 'I' for Inactive)
REMARK    1  A    between atoms: C_1  and  C_9
REMARK                            x       y       z     vdW  Elec       q    Type
REMARK                         _______ _______ _______ _____ _____    ______ ____
ROOT
ATOM      1  O   HOH     1      47.685 160.831  29.751  0.00  0.00    -0.253 OA
ATOM      2  H   HOH     0      48.655 160.831  29.751  0.00  0.00    +0.253 HD
ENDROOT
TORSDOF 0
REMARK  Name = =
REMARK  1 active torsions:
REMARK  status: ('A' for Active; 'I' for Inactive)
REMARK    1  A    between atoms: C_1  and  C_9
REMARK                            x       y       z     vdW  Elec       q    Type
REMARK                         _______ _______ _______ _____ _____    ______ ____
ROOT
ATOM      1  O   HOH     1      48.328 159.449  28.216  0.00  0.00    -0.253 OA
ATOM      2  H   HOH     0      49.298 159.449  28.216  0.00  0.00    +0.253 HD
ENDROOT
TORSDOF 0
REMARK  Name = =
REMARK  1 active torsions:
REMARK  status: ('A' for Active; 'I' for Inactive)
REMARK    1  A    between atoms: C_1  and  C_9
REMARK                            x       y       z     vdW  Elec       q    Type
REMARK                         _______ _______ _______ _____ _____    ______ ____
ROOT
ATOM      1  O   HOH     1      50.042 161.867  29.651  0.00  0.00    -0.253 OA
ATOM      2  H   HOH     0      51.012 161.867  29.651  0.00  0.00    +0.253 HD
ENDROOT
TORSDOF 0
REMARK  Name = =
REMARK  1 active torsions:
REMARK  status: ('A' for Active; 'I' for Inactive)
REMARK    1  A    between atoms: C_1  and  C_9
REMARK                            x       y       z     vdW  Elec       q    Type
REMARK                         _______ _______ _______ _____ _____    ______ ____
ROOT
ATOM      1  O   HOH     1      48.822 161.458  27.833  0.00  0.00    -0.253 OA
ATOM      2  H   HOH     0      49.792 161.458  27.833  0.00  0.00    +0.253 HD
ENDROOT
TORSDOF 0
