REMARK  Name = =
REMARK  7 active torsions:
REMARK  status: ('A' for Active; 'I' for Inactive)
REMARK    1  A    between atoms: C_1  and  C_7
REMARK    2  A    between atoms: C_4  and  C_17
REMARK    3  A    between atoms: C_17  and  P_22
REMARK    4  A    between atoms: P_22  and  O_23
REMARK    5  A    between atoms: P_22  and  O_24
REMARK    6  A    between atoms: P_22  and  O_25
REMARK    7  A    between atoms: O_23  and  O_26
REMARK                            x       y       z     vdW  Elec       q    Type
REMARK                         _______ _______ _______ _____ _____    ______ ____
ROOT
ATOM      1  C   UNL     1      51.551 157.474  28.573  0.00  0.00    +0.084 C 
ATOM      2  N   UNL     1      50.337 157.227  29.145  0.00  0.00    -0.152 NA
ATOM      3  N   UNL     1      49.828 158.039  30.046  0.00  0.00    -0.150 NA
ATOM      4  C   UNL     1      50.473 159.150  30.450  0.00  0.00    +0.114 C 
ATOM      5  C   UNL     1      51.705 159.478  29.924  0.00  0.00    +0.021 C 
ATOM      6  C   UNL     1      52.228 158.607  28.973  0.00  0.00    +0.018 C 
ENDROOT
BRANCH   1   7
ATOM      7  C   UNL     1      52.109 156.561  27.569  0.00  0.00    +0.071 C 
ATOM      8  C   UNL     1      53.543 156.901  27.188  0.00  0.00    +0.058 C 
ATOM      9  C   UNL     1      53.936 156.033  26.019  0.00  0.00    +0.206 C 
ATOM     10  O   UNL     1      53.412 154.731  26.088  0.00  0.00    -0.476 OA
ATOM     11  C   UNL     1      52.808 154.248  27.230  0.00  0.00    +0.135 C 
ATOM     12  C   UNL     1      52.130 155.139  28.021  0.00  0.00    +0.017 C 
ATOM     13  C   UNL     1      51.504 154.725  29.173  0.00  0.00    -0.001 C 
ATOM     14  C   UNL     1      51.567 153.390  29.528  0.00  0.00    -0.000 C 
ATOM     15  C   UNL     1      52.251 152.497  28.726  0.00  0.00    +0.003 C 
ATOM     16  C   UNL     1      52.876 152.921  27.574  0.00  0.00    +0.037 C 
ENDBRANCH   1   7
BRANCH   4  17
ATOM     17  C   UNL     1      49.868 160.017  31.452  0.00  0.00    +0.205 C 
ATOM     18  N   UNL     1      49.556 159.280  32.645  0.00  0.00    -0.196 NA
ATOM     19  C   UNL     1      49.298 160.177  33.713  0.00  0.00    +0.102 C 
ATOM     20  C   UNL     1      50.492 161.089  33.883  0.00  0.00    +0.079 C 
ATOM     21  S   UNL     1      51.051 161.231  32.139  0.00  0.00    -0.109 S 
BRANCH  17  22
ATOM     22  P   UNL     1      48.433 160.819  30.721  0.00  0.00    +0.207 P 
ATOM     23  H   UNL     1      49.267 161.752  31.303  0.00  0.00    +0.137 HD
BRANCH  22  24
ATOM     24  O   UNL     1      47.494 159.387  30.772  0.00  0.00    -0.340 OA
ATOM     25  H   UNL     1      47.083 159.239  29.906  0.00  0.00    +0.218 HD
ENDBRANCH  22  24
BRANCH  22  26
ATOM     26  O   UNL     1      48.589 160.950  29.053  0.00  0.00    -0.340 OA
ATOM     27  H   UNL     1      48.010 160.302  28.622  0.00  0.00    +0.218 HD
ENDBRANCH  22  26
BRANCH  22  28
ATOM     28  O   UNL     1      46.983 160.833  31.020  0.00  0.00    -0.175 OA
BRANCH  28  29
ATOM     29  O   UNL     1      47.719 161.850  31.834  0.00  0.00    -0.243 OA
ATOM     30  H   UNL     1      47.092 162.323  32.404  0.00  0.00    +0.254 HD
ENDBRANCH  28  29
ENDBRANCH  22  28
ENDBRANCH  17  22
ENDBRANCH   4  17
TORSDOF 7
