REMARK  Name = =
REMARK  6 active torsions:
REMARK  status: ('A' for Active; 'I' for Inactive)
REMARK    1  A    between atoms: C_1  and  C_9
REMARK    2  A    between atoms: C_6  and  C_12
REMARK    3  A    between atoms: O_23  and  O_25
REMARK    4  A    between atoms: O_23  and  O_26
REMARK    5  A    between atoms: O_26  and  N_27
REMARK    6  A    between atoms: N_27  and  O_28
REMARK                            x       y       z     vdW  Elec       q    Type
REMARK                         _______ _______ _______ _____ _____    ______ ____
ROOT
ATOM      1  C   UNL     1      52.351 156.812  28.628  0.00  0.00    +0.084 C 
ATOM      2  N   UNL     1      51.206 156.363  29.175  0.00  0.00    -0.152 NA
ATOM      3  N   UNL     1      50.406 157.138  29.889  0.00  0.00    -0.150 NA
ATOM      4  C   UNL     1      50.654 158.437  30.137  0.00  0.00    +0.107 C 
ATOM      5  C   UNL     1      51.818 158.950  29.599  0.00  0.00    +0.020 C 
ATOM      6  C   UNL     1      52.656 158.139  28.851  0.00  0.00    +0.018 C 
ENDROOT
BRANCH   1   7
ATOM      7  C   UNL     1      53.252 155.916  27.816  0.00  0.00    +0.071 C 
ATOM      8  C   UNL     1      53.639 156.546  26.520  0.00  0.00    +0.058 C 
ATOM      9  C   UNL     1      53.078 155.912  25.297  0.00  0.00    +0.206 C 
ATOM     10  O   UNL     1      51.969 155.064  25.543  0.00  0.00    -0.476 OA
ATOM     11  C   UNL     1      52.059 154.146  26.576  0.00  0.00    +0.135 C 
ATOM     12  C   UNL     1      52.699 154.557  27.716  0.00  0.00    +0.017 C 
ATOM     13  C   UNL     1      52.835 153.708  28.793  0.00  0.00    -0.001 C 
ATOM     14  C   UNL     1      52.329 152.427  28.743  0.00  0.00    -0.000 C 
ATOM     15  C   UNL     1      51.683 152.002  27.605  0.00  0.00    +0.003 C 
ATOM     16  C   UNL     1      51.557 152.865  26.537  0.00  0.00    +0.037 C 
ENDBRANCH   1   7
BRANCH   4  17
ATOM     17  C   UNL     1      49.716 159.258  30.949  0.00  0.00    +0.162 C 
ATOM     18  N   UNL     1      49.132 158.417  31.964  0.00  0.00    -0.202 NA
ATOM     19  C   UNL     1      48.629 159.236  33.017  0.00  0.00    +0.102 C 
ATOM     20  C   UNL     1      49.815 160.028  33.590  0.00  0.00    +0.078 C 
ATOM     21  S   UNL     1      50.639 160.450  31.998  0.00  0.00    -0.116 S 
ENDBRANCH   4  17
TORSDOF 2
REMARK  Name = =
REMARK  6 active torsions:
REMARK  status: ('A' for Active; 'I' for Inactive)
REMARK    1  A    between atoms: C_1  and  C_9
REMARK    2  A    between atoms: C_6  and  C_12
REMARK    3  A    between atoms: O_23  and  O_25
REMARK    4  A    between atoms: O_23  and  O_26
REMARK    5  A    between atoms: O_26  and  N_27
REMARK    6  A    between atoms: N_27  and  O_28
REMARK                            x       y       z     vdW  Elec       q    Type
REMARK                         _______ _______ _______ _____ _____    ______ ____
ROOT
ATOM      1  P   UNL     1      48.423 160.023  30.009  0.00  0.00    -0.067 P 
ATOM      2  H   UNL     1      49.803 160.023  30.009  0.00  0.00    +0.067 HD
ENDROOT
TORSDOF 0
REMARK  Name = =
REMARK  6 active torsions:
REMARK  status: ('A' for Active; 'I' for Inactive)
REMARK    1  A    between atoms: C_1  and  C_9
REMARK    2  A    between atoms: C_6  and  C_12
REMARK    3  A    between atoms: O_23  and  O_25
REMARK    4  A    between atoms: O_23  and  O_26
REMARK    5  A    between atoms: O_26  and  N_27
REMARK    6  A    between atoms: N_27  and  O_28
REMARK                            x       y       z     vdW  Elec       q    Type
REMARK                         _______ _______ _______ _____ _____    ______ ____
ROOT
ATOM      1  O   UNL     1      47.876 161.584  30.114  0.00  0.00    -0.085 OA
ENDROOT
BRANCH   1   2
ATOM      2  N   UNL     1      47.554 161.974  31.383  0.00  0.00    -0.045 NA
ATOM      3  H   UNL     1      47.637 161.176  32.013  0.00  0.00    +0.191 HD
BRANCH   2   4
ATOM      4  O   UNL     1      48.385 162.950  31.790  0.00  0.00    -0.289 OA
ATOM      5  H   UNL     1      48.308 163.710  31.192  0.00  0.00    +0.239 HD
ENDBRANCH   2   4
ENDBRANCH   1   2
BRANCH   1   6
ATOM      6  O   UNL     1      49.071 161.388  30.195  0.00  0.00    -0.048 OA
BRANCH   6   7
ATOM      7  O   UNL     1      48.973 161.029  28.776  0.00  0.00    -0.219 OA
ATOM      8  H   UNL     1      49.850 160.781  28.444  0.00  0.00    +0.256 HD
ENDBRANCH   6   7
ENDBRANCH   1   6
TORSDOF 4
REMARK  Name = =
REMARK  6 active torsions:
REMARK  status: ('A' for Active; 'I' for Inactive)
REMARK    1  A    between atoms: C_1  and  C_9
REMARK    2  A    between atoms: C_6  and  C_12
REMARK    3  A    between atoms: O_23  and  O_25
REMARK    4  A    between atoms: O_23  and  O_26
REMARK    5  A    between atoms: O_26  and  N_27
REMARK    6  A    between atoms: N_27  and  O_28
REMARK                            x       y       z     vdW  Elec       q    Type
REMARK                         _______ _______ _______ _____ _____    ______ ____
ROOT
ATOM      1  O   HOH     1      47.899 158.633  29.162  0.00  0.00    -0.253 OA
ATOM      2  H   HOH     0      48.869 158.633  29.162  0.00  0.00    +0.253 HD
ENDROOT
TORSDOF 0
