REMARK  Name = =
REMARK  9 active torsions:
REMARK  status: ('A' for Active; 'I' for Inactive)
REMARK    1  A    between atoms: C_1  and  C_9
REMARK    2  A    between atoms: C_6  and  C_12
REMARK    3  A    between atoms: O_24  and  O_26
REMARK    4  A    between atoms: O_26  and  N_27
REMARK    5  A    between atoms: N_27  and  O_28
REMARK    6  A    between atoms: N_27  and  O_29
REMARK    7  A    between atoms: O_29  and  P_30
REMARK    8  A    between atoms: P_30  and  O_32
REMARK    9  A    between atoms: P_30  and  O_33
REMARK                            x       y       z     vdW  Elec       q    Type
REMARK                         _______ _______ _______ _____ _____    ______ ____
ROOT
ATOM      1  C   UNL     1      52.420 155.135  28.025  0.00  0.00    +0.084 C 
ATOM      2  N   UNL     1      52.464 156.377  27.536  0.00  0.00    -0.152 NA
ATOM      3  N   UNL     1      51.913 157.363  28.176  0.00  0.00    -0.150 NA
ATOM      4  C   UNL     1      51.281 157.228  29.330  0.00  0.00    +0.107 C 
ATOM      5  C   UNL     1      51.209 155.962  29.876  0.00  0.00    +0.020 C 
ATOM      6  C   UNL     1      51.785 154.888  29.220  0.00  0.00    +0.018 C 
ENDROOT
BRANCH   1   7
ATOM      7  C   UNL     1      53.067 154.062  27.246  0.00  0.00    +0.071 C 
ATOM      8  C   UNL     1      52.076 153.009  26.840  0.00  0.00    +0.058 C 
ATOM      9  C   UNL     1      52.880 151.882  26.187  0.00  0.00    +0.206 C 
ATOM     10  O   UNL     1      53.620 152.404  25.095  0.00  0.00    -0.476 OA
ATOM     11  C   UNL     1      53.947 153.753  24.982  0.00  0.00    +0.135 C 
ATOM     12  C   UNL     1      53.693 154.621  26.021  0.00  0.00    +0.017 C 
ATOM     13  C   UNL     1      54.030 155.949  25.875  0.00  0.00    -0.001 C 
ATOM     14  C   UNL     1      54.614 156.414  24.705  0.00  0.00    -0.000 C 
ATOM     15  C   UNL     1      54.856 155.510  23.674  0.00  0.00    +0.003 C 
ATOM     16  C   UNL     1      54.533 154.190  23.794  0.00  0.00    +0.037 C 
ENDBRANCH   1   7
BRANCH   4  17
ATOM     17  C   UNL     1      50.673 158.435  29.990  0.00  0.00    +0.162 C 
ATOM     18  N   UNL     1      51.578 158.884  30.982  0.00  0.00    -0.202 NA
ATOM     19  C   UNL     1      51.535 160.274  31.193  0.00  0.00    +0.102 C 
ATOM     20  C   UNL     1      51.540 161.030  29.903  0.00  0.00    +0.078 C 
ATOM     21  S   UNL     1      50.678 159.840  28.817  0.00  0.00    -0.116 S 
ENDBRANCH   4  17
TORSDOF 2
REMARK  Name = =
REMARK  9 active torsions:
REMARK  status: ('A' for Active; 'I' for Inactive)
REMARK    1  A    between atoms: C_1  and  C_9
REMARK    2  A    between atoms: C_6  and  C_12
REMARK    3  A    between atoms: O_24  and  O_26
REMARK    4  A    between atoms: O_26  and  N_27
REMARK    5  A    between atoms: N_27  and  O_28
REMARK    6  A    between atoms: N_27  and  O_29
REMARK    7  A    between atoms: O_29  and  P_30
REMARK    8  A    between atoms: P_30  and  O_32
REMARK    9  A    between atoms: P_30  and  O_33
REMARK                            x       y       z     vdW  Elec       q    Type
REMARK                         _______ _______ _______ _____ _____    ______ ____
ROOT
ATOM      1  P   UNL     1      49.076 157.966  30.506  0.00  0.00    +0.000 P 
ENDROOT
TORSDOF 0
REMARK  Name = =
REMARK  9 active torsions:
REMARK  status: ('A' for Active; 'I' for Inactive)
REMARK    1  A    between atoms: C_1  and  C_9
REMARK    2  A    between atoms: C_6  and  C_12
REMARK    3  A    between atoms: O_24  and  O_26
REMARK    4  A    between atoms: O_26  and  N_27
REMARK    5  A    between atoms: N_27  and  O_28
REMARK    6  A    between atoms: N_27  and  O_29
REMARK    7  A    between atoms: O_29  and  P_30
REMARK    8  A    between atoms: P_30  and  O_32
REMARK    9  A    between atoms: P_30  and  O_33
REMARK                            x       y       z     vdW  Elec       q    Type
REMARK                         _______ _______ _______ _____ _____    ______ ____
ROOT
ATOM      1  O   HOH     1      48.829 156.797  29.580  0.00  0.00    -0.253 OA
ATOM      2  H   HOH     0      49.799 156.797  29.580  0.00  0.00    +0.253 HD
ENDROOT
TORSDOF 0
REMARK  Name = =
REMARK  9 active torsions:
REMARK  status: ('A' for Active; 'I' for Inactive)
REMARK    1  A    between atoms: C_1  and  C_9
REMARK    2  A    between atoms: C_6  and  C_12
REMARK    3  A    between atoms: O_24  and  O_26
REMARK    4  A    between atoms: O_26  and  N_27
REMARK    5  A    between atoms: N_27  and  O_28
REMARK    6  A    between atoms: N_27  and  O_29
REMARK    7  A    between atoms: O_29  and  P_30
REMARK    8  A    between atoms: P_30  and  O_32
REMARK    9  A    between atoms: P_30  and  O_33
REMARK                            x       y       z     vdW  Elec       q    Type
REMARK                         _______ _______ _______ _____ _____    ______ ____
ROOT
ATOM      1  O   UNL     1      48.869 160.024  32.506  0.00  0.00    -0.142 OA
ENDROOT
BRANCH   1   2
ATOM      2  P   UNL     1      48.957 161.628  32.971  0.00  0.00    +0.492 P 
ATOM      3  O   UNL     1      48.600 162.586  31.872  0.00  0.00    -0.226 OA
BRANCH   2   4
ATOM      4  O   UNL     1      47.835 161.855  34.242  0.00  0.00    -0.302 OA
ATOM      5  H   UNL     1      48.042 161.247  34.969  0.00  0.00    +0.222 HD
ENDBRANCH   2   4
BRANCH   2   6
ATOM      6  O   UNL     1      50.475 162.057  33.563  0.00  0.00    -0.302 OA
ATOM      7  H   UNL     1      50.727 161.450  34.276  0.00  0.00    +0.222 HD
ENDBRANCH   2   6
ENDBRANCH   1   2
BRANCH   1   8
ATOM      8  N   UNL     1      47.980 159.797  31.522  0.00  0.00    +0.115 NA
BRANCH   8   9
ATOM      9  O   UNL     1      46.853 160.520  31.645  0.00  0.00    -0.263 OA
ATOM     10  H   UNL     1      46.255 160.314  30.910  0.00  0.00    +0.242 HD
ENDBRANCH   8   9
BRANCH   8  11
ATOM     11  O   UNL     1      47.743 158.483  31.322  0.00  0.00    -0.087 OA
BRANCH  11  12
ATOM     12  O   UNL     1      49.040 158.247  32.156  0.00  0.00    -0.228 OA
ATOM     13  H   UNL     1      49.207 157.294  32.231  0.00  0.00    +0.255 HD
ENDBRANCH  11  12
ENDBRANCH   8  11
ENDBRANCH   1   8
TORSDOF 7
REMARK  Name = =
REMARK  9 active torsions:
REMARK  status: ('A' for Active; 'I' for Inactive)
REMARK    1  A    between atoms: C_1  and  C_9
REMARK    2  A    between atoms: C_6  and  C_12
REMARK    3  A    between atoms: O_24  and  O_26
REMARK    4  A    between atoms: O_26  and  N_27
REMARK    5  A    between atoms: N_27  and  O_28
REMARK    6  A    between atoms: N_27  and  O_29
REMARK    7  A    between atoms: O_29  and  P_30
REMARK    8  A    between atoms: P_30  and  O_32
REMARK    9  A    between atoms: P_30  and  O_33
REMARK                            x       y       z     vdW  Elec       q    Type
REMARK                         _______ _______ _______ _____ _____    ______ ____
ROOT
ATOM      1  O   HOH     1      48.421 159.312  29.692  0.00  0.00    -0.253 OA
ATOM      2  H   HOH     0      49.391 159.312  29.692  0.00  0.00    +0.253 HD
ENDROOT
TORSDOF 0
