REMARK  Name = =
REMARK  0 active torsions:
REMARK  status: ('A' for Active; 'I' for Inactive)
REMARK                            x       y       z     vdW  Elec       q    Type
REMARK                         _______ _______ _______ _____ _____    ______ ____
ROOT
ATOM      1  C   UNL     1      -3.771  -4.022  31.240  0.00  0.00    +0.145 C 
ATOM      2  O   UNL     1      -3.554  -3.402  30.017  0.00  0.00    -0.351 OA
ATOM      3  C   UNL     1      -2.335  -3.794  29.489  0.00  0.00    +0.174 C 
ATOM      4  C   UNL     1      -1.726  -4.853  30.349  0.00  0.00    +0.174 C 
ATOM      5  O   UNL     1      -0.505  -5.293  29.902  0.00  0.00    -0.326 OA
ATOM      6  C   UNL     1       0.072  -6.158  30.786  0.00  0.00    +0.264 C 
ATOM      7  O   UNL     1       1.239  -5.646  31.292  0.00  0.00    -0.321 OA
ATOM      8  C   UNL     1       1.970  -6.604  31.998  0.00  0.00    +0.209 C 
ATOM      9  C   UNL     1       1.170  -6.976  33.192  0.00  0.00    +0.183 C 
ATOM     10  O   UNL     1       1.701  -7.158  34.270  0.00  0.00    -0.293 OA
ATOM     11  C   UNL     1      -0.283  -7.128  33.076  0.00  0.00    +0.102 C 
ATOM     12  C   UNL     1      -0.794  -6.887  31.695  0.00  0.00    +0.179 C 
ATOM     13  O   UNL     1      -2.128  -6.795  31.582  0.00  0.00    -0.350 OA
ATOM     14  C   UNL     1      -2.621  -6.047  30.543  0.00  0.00    +0.147 C 
ATOM     15  C   UNL     1      -3.997  -5.507  30.927  0.00  0.00    +0.064 C 
ENDROOT
TORSDOF 0
