MODEL 1
REMARK VINA RESULT:    -5.866      0.000      0.000
REMARK INTER + INTRA:         -12.119
REMARK INTER:                  -9.296
REMARK INTRA:                  -2.823
REMARK UNBOUND:                -2.823
REMARK  Name = =
REMARK  11 active torsions:
REMARK  status: ('A' for Active; 'I' for Inactive)
REMARK    1  A    between atoms: C_1  and  C_3
REMARK    2  A    between atoms: C_1  and  O_21
REMARK    3  A    between atoms: C_3  and  O_17
REMARK    4  A    between atoms: O_17  and  N_18
REMARK    5  A    between atoms: O_21  and  P_22
REMARK    6  A    between atoms: P_22  and  O_24
REMARK    7  A    between atoms: P_22  and  O_29
REMARK    8  A    between atoms: O_24  and  P_25
REMARK    9  A    between atoms: P_25  and  O_27
REMARK   10  A    between atoms: P_25  and  O_28
REMARK   11  A    between atoms: O_29  and  C_30
REMARK                            x       y       z     vdW  Elec       q    Type
REMARK                         _______ _______ _______ _____ _____    ______ ____
ROOT
ATOM      1  C   UNL     1      60.798 164.636  36.752  0.00  0.00    +0.244 C 
ATOM      2  N   UNL     1      60.405 165.850  36.924  0.00  0.00    -0.267 NA
ATOM      3  H   UNL     1      60.922 166.593  36.538  0.00  0.00    +0.190 HD
ENDROOT
BRANCH   1   4
ATOM      4  C   UNL     1      60.072 163.493  37.302  0.00  0.00    +0.259 C 
ATOM      5  C   UNL     1      59.614 163.746  38.709  0.00  0.00    +0.199 C 
ATOM      6  O   UNL     1      58.833 162.696  39.176  0.00  0.00    -0.308 OA
ATOM      7  C   UNL     1      59.475 161.483  39.162  0.00  0.00    +0.296 C 
ATOM      8  O   UNL     1      60.484 161.383  40.099  0.00  0.00    -0.310 OA
ATOM      9  C   UNL     1      59.961 160.717  41.208  0.00  0.00    +0.177 C 
ATOM     10  C   UNL     1      58.478 160.722  40.901  0.00  0.00    +0.152 C 
ATOM     11  O   UNL     1      58.505 160.517  39.521  0.00  0.00    -0.312 OA
ATOM     12  C   UNL     1      57.728 159.649  41.629  0.00  0.00    +0.064 C 
ATOM     13  C   UNL     1      58.414 158.307  41.524  0.00  0.00    +0.145 C 
ATOM     14  O   UNL     1      59.704 158.467  42.031  0.00  0.00    -0.351 OA
ATOM     15  C   UNL     1      60.419 159.269  41.140  0.00  0.00    +0.174 C 
ATOM     16  C   UNL     1      60.029 161.116  37.808  0.00  0.00    +0.093 C 
ATOM     17  C   UNL     1      60.943 162.231  37.349  0.00  0.00    +0.063 C 
BRANCH   4  18
ATOM     18  O   UNL     1      58.931 163.139  36.541  0.00  0.00    -0.332 OA
BRANCH  18  19
ATOM     19  N   UNL     1      58.864 163.263  35.185  0.00  0.00    +0.218 N 
ATOM     20  O   UNL     1      58.969 162.144  34.407  0.00  0.00    -0.090 OA
ATOM     21  O   UNL     1      58.710 164.375  34.662  0.00  0.00    -0.090 OA
ENDBRANCH  18  19
ENDBRANCH   4  18
ENDBRANCH   1   4
BRANCH   1  22
ATOM     22  O   UNL     1      61.975 164.493  36.003  0.00  0.00    -0.386 OA
BRANCH  22  23
ATOM     23  P   UNL     1      63.298 165.586  36.214  0.00  0.00    +0.543 P 
ATOM     24  O   UNL     1      62.795 166.995  35.959  0.00  0.00    -0.215 OA
BRANCH  23  25
ATOM     25  O   UNL     1      64.473 165.253  35.054  0.00  0.00    -0.176 OA
BRANCH  25  26
ATOM     26  P   UNL     1      63.928 165.777  33.529  0.00  0.00    +0.482 P 
ATOM     27  O   UNL     1      64.693 165.107  32.440  0.00  0.00    -0.227 OA
BRANCH  26  28
ATOM     28  O   UNL     1      62.275 165.546  33.451  0.00  0.00    -0.302 OA
ATOM     29  H   UNL     1      62.010 164.883  34.109  0.00  0.00    +0.222 HD
ENDBRANCH  26  28
BRANCH  26  30
ATOM     30  O   UNL     1      64.248 167.449  33.451  0.00  0.00    -0.302 OA
ATOM     31  H   UNL     1      65.096 167.636  33.883  0.00  0.00    +0.222 HD
ENDBRANCH  26  30
ENDBRANCH  25  26
ENDBRANCH  23  25
BRANCH  23  32
ATOM     32  O   UNL     1      63.834 165.439  37.775  0.00  0.00    -0.266 OA
BRANCH  32  33
ATOM     33  C   UNL     1      63.991 164.159  38.230  0.00  0.00    +0.127 C 
ATOM     34  C   UNL     1      63.342 163.881  39.549  0.00  0.00    +0.030 C 
ATOM     35  C   UNL     1      63.855 162.553  40.055  0.00  0.00    +0.003 C 
ATOM     36  C   UNL     1      64.299 161.644  38.937  0.00  0.00    +0.000 C 
ATOM     37  C   UNL     1      65.431 162.198  38.130  0.00  0.00    +0.003 C 
ATOM     38  C   UNL     1      65.431 163.707  38.284  0.00  0.00    +0.030 C 
ENDBRANCH  32  33
ENDBRANCH  23  32
ENDBRANCH  22  23
ENDBRANCH   1  22
TORSDOF 11
ENDMDL
