REMARK  Name = =
REMARK  11 active torsions:
REMARK  status: ('A' for Active; 'I' for Inactive)
REMARK    1  A    between atoms: C_1  and  C_3
REMARK    2  A    between atoms: C_1  and  O_21
REMARK    3  A    between atoms: C_3  and  O_17
REMARK    4  A    between atoms: O_17  and  N_18
REMARK    5  A    between atoms: O_21  and  P_22
REMARK    6  A    between atoms: P_22  and  O_24
REMARK    7  A    between atoms: P_22  and  O_29
REMARK    8  A    between atoms: O_24  and  P_25
REMARK    9  A    between atoms: P_25  and  O_27
REMARK   10  A    between atoms: P_25  and  O_28
REMARK   11  A    between atoms: O_29  and  C_30
REMARK                            x       y       z     vdW  Elec       q    Type
REMARK                         _______ _______ _______ _____ _____    ______ ____
ROOT
ATOM      1  C   UNL     1      51.045 157.344  29.861  0.00  0.00    +0.244 C 
ATOM      2  N   UNL     1      49.769 157.180  29.911  0.00  0.00    -0.267 NA
ATOM      3  H   UNL     1      49.206 157.841  30.375  0.00  0.00    +0.190 HD
ENDROOT
BRANCH   1   4
ATOM      4  C   UNL     1      51.930 156.396  29.187  0.00  0.00    +0.259 C 
ATOM      5  C   UNL     1      51.638 156.309  27.717  0.00  0.00    +0.199 C 
ATOM      6  O   UNL     1      52.557 155.488  27.074  0.00  0.00    -0.308 OA
ATOM      7  C   UNL     1      52.591 154.207  27.566  0.00  0.00    +0.296 C 
ATOM      8  O   UNL     1      51.460 153.473  27.268  0.00  0.00    -0.310 OA
ATOM      9  C   UNL     1      51.749 152.694  26.148  0.00  0.00    +0.177 C 
ATOM     10  C   UNL     1      53.060 153.295  25.683  0.00  0.00    +0.152 C 
ATOM     11  O   UNL     1      53.666 153.560  26.912  0.00  0.00    -0.312 OA
ATOM     12  C   UNL     1      53.863 152.357  24.834  0.00  0.00    +0.064 C 
ATOM     13  C   UNL     1      53.954 150.978  25.443  0.00  0.00    +0.145 C 
ATOM     14  O   UNL     1      52.648 150.521  25.619  0.00  0.00    -0.351 OA
ATOM     15  C   UNL     1      52.058 151.285  26.628  0.00  0.00    +0.174 C 
ATOM     16  C   UNL     1      52.836 154.145  29.053  0.00  0.00    +0.093 C 
ATOM     17  C   UNL     1      51.777 154.975  29.745  0.00  0.00    +0.063 C 
BRANCH   4  18
ATOM     18  O   UNL     1      53.302 156.715  29.329  0.00  0.00    -0.332 OA
BRANCH  18  19
ATOM     19  N   UNL     1      53.916 157.716  28.636  0.00  0.00    +0.218 N 
ATOM     20  O   UNL     1      53.929 157.670  27.270  0.00  0.00    -0.090 OA
ATOM     21  O   UNL     1      54.456 158.657  29.234  0.00  0.00    -0.090 OA
ENDBRANCH  18  19
ENDBRANCH   4  18
ENDBRANCH   1   4
BRANCH   1  22
ATOM     22  O   UNL     1      51.522 158.497  30.502  0.00  0.00    -0.386 OA
BRANCH  22  23
ATOM     23  P   UNL     1      50.527 159.904  30.648  0.00  0.00    +0.543 P 
ATOM     24  O   UNL     1      50.273 160.155  32.123  0.00  0.00    -0.215 OA
BRANCH  23  25
ATOM     25  O   UNL     1      49.037 159.596  29.925  0.00  0.00    -0.176 OA
BRANCH  25  26
ATOM     26  P   UNL     1      47.791 159.891  31.047  0.00  0.00    +0.482 P 
ATOM     27  O   UNL     1      46.460 159.840  30.378  0.00  0.00    -0.227 OA
BRANCH  26  28
ATOM     28  O   UNL     1      47.963 158.822  32.319  0.00  0.00    -0.302 OA
ATOM     29  H   UNL     1      48.850 158.914  32.701  0.00  0.00    +0.222 HD
ENDBRANCH  26  28
BRANCH  26  30
ATOM     30  O   UNL     1      48.032 161.474  31.629  0.00  0.00    -0.302 OA
ATOM     31  H   UNL     1      48.895 161.529  32.069  0.00  0.00    +0.222 HD
ENDBRANCH  26  30
ENDBRANCH  25  26
ENDBRANCH  23  25
BRANCH  23  32
ATOM     32  O   UNL     1      51.348 161.178  29.979  0.00  0.00    -0.266 OA
BRANCH  32  33
ATOM     33  C   UNL     1      52.497 161.547  30.622  0.00  0.00    +0.127 C 
ATOM     34  C   UNL     1      52.291 162.428  31.814  0.00  0.00    +0.030 C 
ATOM     35  C   UNL     1      53.632 162.992  32.219  0.00  0.00    +0.003 C 
ATOM     36  C   UNL     1      54.779 162.103  31.807  0.00  0.00    +0.000 C 
ATOM     37  C   UNL     1      54.886 161.914  30.326  0.00  0.00    +0.003 C 
ATOM     38  C   UNL     1      53.525 162.179  29.713  0.00  0.00    +0.030 C 
ENDBRANCH  32  33
ENDBRANCH  23  32
ENDBRANCH  22  23
ENDBRANCH   1  22
TORSDOF 11
