REMARK  Name = =
REMARK  0 active torsions:
REMARK  status: ('A' for Active; 'I' for Inactive)
REMARK                            x       y       z     vdW  Elec       q    Type
REMARK                         _______ _______ _______ _____ _____    ______ ____
ROOT
ATOM      1  C   UNL     1      -3.403  -4.097  31.114  0.00  0.00    -0.026 C 
ATOM      2  C   UNL     1      -2.786  -5.284  30.796  0.00  0.00    -0.026 C 
ATOM      3  C   UNL     1      -2.067  -5.379  29.645  0.00  0.00    -0.005 C 
ATOM      4  C   UNL     1      -1.957  -4.293  28.800  0.00  0.00    -0.000 C 
ATOM      5  C   UNL     1      -2.573  -3.089  29.104  0.00  0.00    -0.000 C 
ATOM      6  C   UNL     1      -3.300  -2.987  30.265  0.00  0.00    -0.005 C 
ATOM      7  C   UNL     1      -3.069  -6.303  31.873  0.00  0.00    +0.026 C 
ATOM      8  C   UNL     1      -4.412  -5.760  32.392  0.00  0.00    +0.009 C 
ATOM      9  C   UNL     1      -4.093  -4.285  32.410  0.00  0.00    +0.026 C 
ENDROOT
TORSDOF 0
