REMARK  Name = =
REMARK  3 active torsions:
REMARK  status: ('A' for Active; 'I' for Inactive)
REMARK    1  A    between atoms: C_9  and  S_10
REMARK    2  A    between atoms: S_10  and  C_11
REMARK    3  A    between atoms: C_11  and  N_12
REMARK                            x       y       z     vdW  Elec       q    Type
REMARK                         _______ _______ _______ _____ _____    ______ ____
ROOT
ATOM      1  C   UNL     1      -3.547  -4.190  30.785  0.00  0.00    -0.017 C 
ATOM      2  C   UNL     1      -2.910  -5.373  31.074  0.00  0.00    -0.025 C 
ATOM      3  C   UNL     1      -1.756  -5.687  30.390  0.00  0.00    -0.005 C 
ATOM      4  C   UNL     1      -1.194  -4.880  29.428  0.00  0.00    -0.000 C 
ATOM      5  C   UNL     1      -1.867  -3.700  29.171  0.00  0.00    -0.000 C 
ATOM      6  C   UNL     1      -3.023  -3.324  29.813  0.00  0.00    -0.004 C 
ATOM      7  C   UNL     1      -3.686  -6.090  32.155  0.00  0.00    +0.027 C 
ATOM      8  C   UNL     1      -4.386  -4.904  32.843  0.00  0.00    +0.019 C 
ATOM      9  C   UNL     1      -4.741  -4.092  31.625  0.00  0.00    +0.059 C 
ENDROOT
BRANCH   9  10
ATOM     10  S   UNL     1      -5.043  -2.346  32.024  0.00  0.00    -0.186 S 
ATOM     11  H   UNL     1      -5.220  -1.707  30.836  0.00  0.00    +0.094 HD
BRANCH  10  12
ATOM     12  C   UNL     1      -6.280  -1.889  32.979  0.00  0.00    +0.112 C 
BRANCH  12  13
ATOM     13  N   UNL     1      -6.501  -0.521  33.279  0.00  0.00    -0.313 NA
ATOM     14  H   UNL     1      -7.316  -0.433  33.886  0.00  0.00    +0.120 HD
ATOM     15  H   UNL     1      -6.665  -0.005  32.414  0.00  0.00    +0.120 HD
ENDBRANCH  12  13
ENDBRANCH  10  12
ENDBRANCH   9  10
TORSDOF 3
