REMARK  Name = =
REMARK  6 active torsions:
REMARK  status: ('A' for Active; 'I' for Inactive)
REMARK    1  A    between atoms: C_4  and  S_13
REMARK    2  A    between atoms: C_9  and  S_10
REMARK    3  A    between atoms: S_10  and  C_11
REMARK    4  A    between atoms: C_11  and  N_12
REMARK    5  A    between atoms: S_13  and  C_14
REMARK    6  A    between atoms: C_14  and  O_16
REMARK                            x       y       z     vdW  Elec       q    Type
REMARK                         _______ _______ _______ _____ _____    ______ ____
ROOT
ATOM      1  C   UNL     1      -3.101  -3.827  31.164  0.00  0.00    -0.017 C 
ATOM      2  C   UNL     1      -3.339  -5.182  31.236  0.00  0.00    -0.025 C 
ATOM      3  C   UNL     1      -2.598  -6.000  30.409  0.00  0.00    +0.002 C 
ATOM      4  C   UNL     1      -1.642  -5.473  29.533  0.00  0.00    +0.032 C 
ATOM      5  C   UNL     1      -1.419  -4.112  29.476  0.00  0.00    +0.006 C 
ATOM      6  C   UNL     1      -2.157  -3.289  30.300  0.00  0.00    -0.003 C 
ATOM      7  C   UNL     1      -4.410  -5.448  32.262  0.00  0.00    +0.027 C 
ATOM      8  C   UNL     1      -4.109  -4.259  33.191  0.00  0.00    +0.019 C 
ATOM      9  C   UNL     1      -4.014  -3.180  32.131  0.00  0.00    +0.059 C 
ENDROOT
BRANCH   9  10
ATOM     10  S   UNL     1      -5.691  -2.992  31.425  0.00  0.00    -0.186 S 
ATOM     11  H   UNL     1      -6.057  -4.198  30.915  0.00  0.00    +0.094 HD
BRANCH  10  12
ATOM     12  C   UNL     1      -6.877  -2.507  32.431  0.00  0.00    +0.112 C 
BRANCH  12  13
ATOM     13  N   UNL     1      -8.180  -2.350  31.932  0.00  0.00    -0.313 NA
ATOM     14  H   UNL     1      -8.797  -2.044  32.684  0.00  0.00    +0.120 HD
ATOM     15  H   UNL     1      -8.512  -3.240  31.561  0.00  0.00    +0.120 HD
ENDBRANCH  12  13
ENDBRANCH  10  12
ENDBRANCH   9  10
BRANCH   4  16
ATOM     16  S   UNL     1      -0.699  -6.540  28.479  0.00  0.00    -0.043 S 
BRANCH  16  17
ATOM     17  C   UNL     1       0.908  -6.906  29.169  0.00  0.00    +0.203 C 
ATOM     18  S   UNL     1       1.962  -7.726  28.228  0.00  0.00    -0.004 S 
BRANCH  17  19
ATOM     19  O   UNL     1       1.308  -6.543  30.426  0.00  0.00    -0.496 OA
ATOM     20  H   UNL     1       0.723  -6.072  30.986  0.00  0.00    +0.293 HD
ENDBRANCH  17  19
ENDBRANCH  16  17
ENDBRANCH   4  16
TORSDOF 6
