REMARK  Name = =
REMARK  6 active torsions:
REMARK  status: ('A' for Active; 'I' for Inactive)
REMARK    1  A    between atoms: C_4  and  S_14
REMARK    2  A    between atoms: C_9  and  S_11
REMARK    3  A    between atoms: S_11  and  C_12
REMARK    4  A    between atoms: C_12  and  N_13
REMARK    5  A    between atoms: S_14  and  C_15
REMARK    6  A    between atoms: C_15  and  O_17
REMARK                            x       y       z     vdW  Elec       q    Type
REMARK                         _______ _______ _______ _____ _____    ______ ____
ROOT
ATOM      1  C   UNL     1      -1.957  -5.417  30.728  0.00  0.00    -0.017 C 
ATOM      2  C   UNL     1      -3.132  -5.819  31.329  0.00  0.00    -0.025 C 
ATOM      3  C   UNL     1      -4.205  -4.965  31.450  0.00  0.00    +0.002 C 
ATOM      4  C   UNL     1      -4.114  -3.680  30.964  0.00  0.00    +0.032 C 
ATOM      5  C   UNL     1      -2.956  -3.247  30.358  0.00  0.00    +0.006 C 
ATOM      6  C   UNL     1      -1.895  -4.125  30.251  0.00  0.00    -0.003 C 
ATOM      7  C   UNL     1      -2.991  -7.253  31.775  0.00  0.00    +0.023 C 
ATOM      8  C   UNL     1      -1.985  -7.737  30.720  0.00  0.00    +0.019 C 
ATOM      9  C   UNL     1      -1.030  -6.571  30.769  0.00  0.00    +0.059 C 
ATOM     10  C   UNL     1      -4.279  -7.993  31.702  0.00  0.00    +0.005 C 
ENDROOT
BRANCH   9  11
ATOM     11  S   UNL     1       0.207  -6.570  29.480  0.00  0.00    -0.186 S 
ATOM     12  H   UNL     1       1.279  -5.885  29.960  0.00  0.00    +0.094 HD
BRANCH  11  13
ATOM     13  C   UNL     1       0.768  -7.991  28.909  0.00  0.00    +0.112 C 
BRANCH  13  14
ATOM     14  N   UNL     1       1.753  -8.067  27.884  0.00  0.00    -0.313 NA
ATOM     15  H   UNL     1       1.957  -9.045  27.681  0.00  0.00    +0.120 HD
ATOM     16  H   UNL     1       2.604  -7.600  28.195  0.00  0.00    +0.120 HD
ENDBRANCH  13  14
ENDBRANCH  11  13
ENDBRANCH   9  11
BRANCH   4  17
ATOM     17  S   UNL     1      -5.514  -2.584  31.130  0.00  0.00    -0.043 S 
BRANCH  17  18
ATOM     18  C   UNL     1      -5.696  -2.193  32.853  0.00  0.00    +0.203 C 
ATOM     19  S   UNL     1      -6.605  -0.904  33.267  0.00  0.00    -0.004 S 
BRANCH  18  20
ATOM     20  O   UNL     1      -5.107  -2.921  33.868  0.00  0.00    -0.496 OA
ATOM     21  H   UNL     1      -4.579  -3.667  33.664  0.00  0.00    +0.293 HD
ENDBRANCH  18  20
ENDBRANCH  17  18
ENDBRANCH   4  17
TORSDOF 6
