REMARK  Name = =
REMARK  8 active torsions:
REMARK  status: ('A' for Active; 'I' for Inactive)
REMARK    1  A    between atoms: C_4  and  S_13
REMARK    2  A    between atoms: C_7  and  C_17
REMARK    3  A    between atoms: C_9  and  S_10
REMARK    4  A    between atoms: C_11  and  N_12
REMARK    5  A    between atoms: S_13  and  C_14
REMARK    6  A    between atoms: C_14  and  O_16
REMARK    7  A    between atoms: C_17  and  S_18
REMARK    8  A    between atoms: S_18  and  N_21
REMARK                            x       y       z     vdW  Elec       q    Type
REMARK                         _______ _______ _______ _____ _____    ______ ____
ROOT
ATOM      1  C   UNL     1      -2.751  -3.890  30.371  0.00  0.00    -0.017 C 
ATOM      2  C   UNL     1      -1.603  -3.217  30.052  0.00  0.00    -0.023 C 
ATOM      3  C   UNL     1      -0.402  -3.842  30.288  0.00  0.00    +0.002 C 
ATOM      4  C   UNL     1      -0.316  -5.136  30.838  0.00  0.00    +0.032 C 
ATOM      5  C   UNL     1      -1.503  -5.761  31.138  0.00  0.00    +0.006 C 
ATOM      6  C   UNL     1      -2.721  -5.171  30.918  0.00  0.00    -0.003 C 
ATOM      7  C   UNL     1      -1.927  -1.859  29.503  0.00  0.00    +0.049 C 
ATOM      8  C   UNL     1      -3.337  -1.645  30.046  0.00  0.00    +0.021 C 
ATOM      9  C   UNL     1      -3.883  -3.025  30.009  0.00  0.00    +0.063 C 
ENDROOT
BRANCH   9  10
ATOM     10  S   UNL     1      -5.353  -3.313  31.016  0.00  0.00    -0.164 S 
ATOM     11  C   UNL     1      -5.397  -3.068  32.613  0.00  0.00    +0.074 C 
ATOM     12  H   UNL     1      -5.682  -4.619  30.830  0.00  0.00    +0.098 HD
BRANCH  11  13
ATOM     13  N   UNL     1      -4.251  -2.606  33.293  0.00  0.00    -0.352 N 
ATOM     14  H   UNL     1      -4.282  -2.458  34.266  0.00  0.00    +0.143 HD
ATOM     15  H   UNL     1      -3.420  -2.431  32.795  0.00  0.00    +0.143 HD
ENDBRANCH  11  13
ENDBRANCH   9  10
BRANCH   4  16
ATOM     16  S   UNL     1       1.276  -5.835  31.086  0.00  0.00    -0.043 S 
BRANCH  16  17
ATOM     17  C   UNL     1       1.459  -6.908  32.447  0.00  0.00    +0.203 C 
ATOM     18  S   UNL     1       0.358  -7.290  33.568  0.00  0.00    -0.004 S 
BRANCH  17  19
ATOM     19  O   UNL     1       2.752  -7.513  32.567  0.00  0.00    -0.496 OA
ATOM     20  H   UNL     1       3.420  -7.319  31.939  0.00  0.00    +0.293 HD
ENDBRANCH  17  19
ENDBRANCH  16  17
ENDBRANCH   4  16
BRANCH   7  21
ATOM     21  C   UNL     1      -1.984  -1.784  28.030  0.00  0.00    +0.177 C 
BRANCH  21  22
ATOM     22  S   UNL     1      -0.795  -2.778  27.195  0.00  0.00    +0.057 S 
ATOM     23  O   UNL     1      -1.168  -4.239  27.332  0.00  0.00    -0.154 OA
ATOM     24  O   UNL     1      -0.894  -2.463  25.721  0.00  0.00    -0.154 OA
BRANCH  22  25
ATOM     25  N   UNL     1       0.813  -2.485  27.674  0.00  0.00    -0.173 N 
ATOM     26  C   UNL     1       1.422  -1.219  27.490  0.00  0.00    +0.316 C 
ATOM     27  O   UNL     1       0.773  -0.283  26.964  0.00  0.00    -0.251 OA
ATOM     28  N   UNL     1       2.765  -1.076  27.924  0.00  0.00    -0.312 N 
ATOM     29  H   UNL     1       1.331  -3.212  28.088  0.00  0.00    +0.178 HD
ATOM     30  H   UNL     1       3.235  -1.839  28.332  0.00  0.00    +0.147 HD
ATOM     31  H   UNL     1       3.228  -0.213  27.818  0.00  0.00    +0.147 HD
ENDBRANCH  22  25
ENDBRANCH  21  22
ENDBRANCH   7  21
TORSDOF 8
