REMARK  Name = =
REMARK  9 active torsions:
REMARK  status: ('A' for Active; 'I' for Inactive)
REMARK    1  A    between atoms: C_4  and  S_13
REMARK    2  A    between atoms: C_7  and  C_17
REMARK    3  A    between atoms: C_9  and  S_10
REMARK    4  A    between atoms: C_11  and  N_12
REMARK    5  A    between atoms: S_13  and  C_14
REMARK    6  A    between atoms: C_14  and  O_16
REMARK    7  A    between atoms: C_17  and  S_18
REMARK    8  A    between atoms: S_18  and  N_21
REMARK    9  A    between atoms: N_24  and  S_25
REMARK                            x       y       z     vdW  Elec       q    Type
REMARK                         _______ _______ _______ _____ _____    ______ ____
ROOT
ATOM      1  C   UNL     1      -2.148  -5.089  31.123  0.00  0.00    -0.017 C 
ATOM      2  C   UNL     1      -2.139  -3.843  30.538  0.00  0.00    -0.023 C 
ATOM      3  C   UNL     1      -3.273  -3.043  30.644  0.00  0.00    +0.002 C 
ATOM      4  C   UNL     1      -4.401  -3.435  31.301  0.00  0.00    +0.032 C 
ATOM      5  C   UNL     1      -4.421  -4.680  31.889  0.00  0.00    +0.006 C 
ATOM      6  C   UNL     1      -3.285  -5.493  31.788  0.00  0.00    -0.003 C 
ATOM      7  C   UNL     1      -0.802  -3.620  29.875  0.00  0.00    +0.049 C 
ATOM      8  C   UNL     1      -0.421  -5.047  29.564  0.00  0.00    +0.021 C 
ATOM      9  C   UNL     1      -0.837  -5.738  30.873  0.00  0.00    +0.063 C 
ENDROOT
BRANCH   9  10
ATOM     10  S   UNL     1      -0.987  -7.525  30.645  0.00  0.00    -0.164 S 
ATOM     11  C   UNL     1      -1.148  -8.227  29.190  0.00  0.00    +0.074 C 
ATOM     12  H   UNL     1      -2.078  -7.902  31.364  0.00  0.00    +0.098 HD
BRANCH  11  13
ATOM     13  N   UNL     1      -1.263  -9.626  29.043  0.00  0.00    -0.352 N 
ATOM     14  H   UNL     1      -1.359 -10.020  28.146  0.00  0.00    +0.143 HD
ATOM     15  H   UNL     1      -1.247 -10.207  29.837  0.00  0.00    +0.143 HD
ENDBRANCH  11  13
ENDBRANCH   9  10
BRANCH   4  16
ATOM     16  S   UNL     1      -5.845  -2.401  31.423  0.00  0.00    -0.043 S 
BRANCH  16  17
ATOM     17  C   UNL     1      -6.077  -1.738  33.033  0.00  0.00    +0.203 C 
ATOM     18  S   UNL     1      -6.885  -0.341  33.229  0.00  0.00    -0.004 S 
BRANCH  17  19
ATOM     19  O   UNL     1      -5.579  -2.398  34.136  0.00  0.00    -0.496 OA
ATOM     20  H   UNL     1      -5.113  -3.204  34.029  0.00  0.00    +0.293 HD
ENDBRANCH  17  19
ENDBRANCH  16  17
ENDBRANCH   4  16
BRANCH   7  21
ATOM     21  C   UNL     1      -0.969  -2.757  28.644  0.00  0.00    +0.177 C 
BRANCH  21  22
ATOM     22  S   UNL     1       0.583  -2.606  27.839  0.00  0.00    +0.057 S 
ATOM     23  O   UNL     1       1.558  -1.981  28.825  0.00  0.00    -0.154 OA
ATOM     24  O   UNL     1       1.121  -3.969  27.499  0.00  0.00    -0.154 OA
BRANCH  22  25
ATOM     25  N   UNL     1       0.505  -1.609  26.426  0.00  0.00    -0.172 N 
ATOM     26  C   UNL     1       1.150  -1.970  25.212  0.00  0.00    +0.328 C 
ATOM     27  O   UNL     1       1.782  -3.035  25.187  0.00  0.00    -0.250 OA
ATOM     28  N   UNL     1       1.100  -1.167  24.041  0.00  0.00    -0.239 N 
ATOM     29  H   UNL     1      -0.002  -0.766  26.464  0.00  0.00    +0.178 HD
ATOM     30  H   UNL     1       0.590  -0.326  24.082  0.00  0.00    +0.165 HD
BRANCH  28  31
ATOM     31  S   UNL     1       1.870  -1.567  22.559  0.00  0.00    -0.029 S 
ATOM     32  O   UNL     1       1.360  -2.891  21.992  0.00  0.00    -0.157 OA
ATOM     33  C   UNL     1       3.418  -1.903  22.734  0.00  0.00    +0.095 C 
ATOM     34  H   UNL     1       1.626  -0.477  21.783  0.00  0.00    +0.132 HD
ENDBRANCH  28  31
ENDBRANCH  22  25
ENDBRANCH  21  22
ENDBRANCH   7  21
TORSDOF 9
