REMARK  Name = =
REMARK  11 active torsions:
REMARK  status: ('A' for Active; 'I' for Inactive)
REMARK    1  A    between atoms: C_4  and  S_16
REMARK    2  A    between atoms: C_7  and  C_20
REMARK    3  A    between atoms: C_9  and  S_10
REMARK    4  A    between atoms: C_11  and  N_12
REMARK    5  A    between atoms: C_11  and  C_13
REMARK    6  A    between atoms: C_13  and  O_15
REMARK    7  A    between atoms: S_16  and  C_17
REMARK    8  A    between atoms: C_17  and  O_19
REMARK    9  A    between atoms: C_20  and  S_21
REMARK   10  A    between atoms: S_21  and  N_24
REMARK   11  A    between atoms: N_27  and  S_28
REMARK                            x       y       z     vdW  Elec       q    Type
REMARK                         _______ _______ _______ _____ _____    ______ ____
ROOT
ATOM      1  C   UNL     1      -4.045  -4.296  31.927  0.00  0.00    -0.017 C 
ATOM      2  C   UNL     1      -3.282  -4.412  30.804  0.00  0.00    -0.023 C 
ATOM      3  C   UNL     1      -2.671  -5.631  30.488  0.00  0.00    +0.002 C 
ATOM      4  C   UNL     1      -2.799  -6.754  31.269  0.00  0.00    +0.032 C 
ATOM      5  C   UNL     1      -3.594  -6.580  32.413  0.00  0.00    +0.006 C 
ATOM      6  C   UNL     1      -4.199  -5.414  32.746  0.00  0.00    -0.003 C 
ATOM      7  C   UNL     1      -3.215  -3.148  30.065  0.00  0.00    +0.049 C 
ATOM      8  C   UNL     1      -3.869  -2.151  30.948  0.00  0.00    +0.021 C 
ATOM      9  C   UNL     1      -4.572  -2.923  32.018  0.00  0.00    +0.063 C 
ENDROOT
BRANCH   9  10
ATOM     10  S   UNL     1      -6.365  -2.937  31.623  0.00  0.00    -0.159 S 
ATOM     11  C   UNL     1      -7.300  -1.641  31.823  0.00  0.00    +0.133 C 
ATOM     12  H   UNL     1      -6.913  -3.921  32.385  0.00  0.00    +0.099 HD
BRANCH  11  13
ATOM     13  N   UNL     1      -8.698  -1.700  31.500  0.00  0.00    -0.348 N 
ATOM     14  H   UNL     1      -9.089  -2.536  31.156  0.00  0.00    +0.143 HD
ATOM     15  H   UNL     1      -9.265  -0.905  31.622  0.00  0.00    +0.143 HD
ENDBRANCH  11  13
BRANCH  11  16
ATOM     16  C   UNL     1      -6.783  -0.389  32.323  0.00  0.00    +0.356 C 
ATOM     17  O   UNL     1      -7.628   0.532  32.619  0.00  0.00    -0.243 OA
BRANCH  16  18
ATOM     18  O   UNL     1      -5.475  -0.052  32.528  0.00  0.00    -0.476 OA
ATOM     19  H   UNL     1      -4.797  -0.669  32.336  0.00  0.00    +0.295 HD
ENDBRANCH  16  18
ENDBRANCH  11  16
ENDBRANCH   9  10
BRANCH   4  20
ATOM     20  S   UNL     1      -2.096  -8.336  30.997  0.00  0.00    -0.043 S 
BRANCH  20  21
ATOM     21  C   UNL     1      -1.242  -8.623  29.520  0.00  0.00    +0.203 C 
ATOM     22  S   UNL     1      -0.652  -7.447  28.571  0.00  0.00    -0.004 S 
BRANCH  21  23
ATOM     23  O   UNL     1      -1.061  -9.983  29.136  0.00  0.00    -0.496 OA
ATOM     24  H   UNL     1      -1.397 -10.671  29.676  0.00  0.00    +0.293 HD
ENDBRANCH  21  23
ENDBRANCH  20  21
ENDBRANCH   4  20
BRANCH   7  25
ATOM     25  C   UNL     1      -1.745  -2.824  29.836  0.00  0.00    +0.177 C 
BRANCH  25  26
ATOM     26  S   UNL     1      -1.559  -1.695  28.478  0.00  0.00    +0.057 S 
ATOM     27  O   UNL     1      -2.517  -0.554  28.550  0.00  0.00    -0.154 OA
ATOM     28  O   UNL     1      -1.856  -2.427  27.179  0.00  0.00    -0.154 OA
BRANCH  26  29
ATOM     29  N   UNL     1       0.055  -1.086  28.412  0.00  0.00    -0.172 N 
ATOM     30  C   UNL     1       1.044  -1.722  27.633  0.00  0.00    +0.328 C 
ATOM     31  O   UNL     1       0.674  -2.756  26.994  0.00  0.00    -0.250 OA
ATOM     32  N   UNL     1       2.374  -1.308  27.516  0.00  0.00    -0.239 N 
ATOM     33  H   UNL     1       0.289  -0.280  28.927  0.00  0.00    +0.178 HD
ATOM     34  H   UNL     1       2.689  -0.511  28.001  0.00  0.00    +0.165 HD
BRANCH  32  35
ATOM     35  S   UNL     1       3.453  -2.197  26.523  0.00  0.00    -0.029 S 
ATOM     36  O   UNL     1       3.918  -1.379  25.336  0.00  0.00    -0.157 OA
ATOM     37  C   UNL     1       4.840  -2.499  27.247  0.00  0.00    +0.095 C 
ATOM     38  H   UNL     1       2.748  -3.315  26.202  0.00  0.00    +0.132 HD
ENDBRANCH  32  35
ENDBRANCH  26  29
ENDBRANCH  25  26
ENDBRANCH   7  25
TORSDOF 11
