REMARK  Name = =
REMARK  2 active torsions:
REMARK  status: ('A' for Active; 'I' for Inactive)
REMARK    1  A    between atoms: C_1  and  O_6
REMARK    2  A    between atoms: O_6  and  N_7
REMARK                            x       y       z     vdW  Elec       q    Type
REMARK                         _______ _______ _______ _____ _____    ______ ____
ROOT
ATOM      1  C   UNL     1      49.172 156.521  21.660  0.00  0.00    +0.258 C 
ATOM      2  O   UNL     1      48.327 156.437  20.538  0.00  0.00    -0.329 OA
ATOM      3  C   UNL     1      48.590 155.249  19.914  0.00  0.00    +0.145 C 
ATOM      4  C   UNL     1      49.233 154.319  20.905  0.00  0.00    +0.037 C 
ATOM      5  C   UNL     1      49.040 155.106  22.208  0.00  0.00    +0.066 C 
ENDROOT
BRANCH   1   6
ATOM      6  O   UNL     1      48.770 157.499  22.557  0.00  0.00    -0.212 OA
BRANCH   6   7
ATOM      7  N   UNL     1      48.848 158.864  22.287  0.00  0.00    +0.104 NA
ATOM      8  O   UNL     1      47.913 159.416  21.636  0.00  0.00    -0.069 OA
ENDBRANCH   6   7
ENDBRANCH   1   6
TORSDOF 2
