REMARK  Name = =
REMARK  11 active torsions:
REMARK  status: ('A' for Active; 'I' for Inactive)
REMARK    1  A    between atoms: C_1  and  N_23
REMARK    2  A    between atoms: C_2  and  S_9
REMARK    3  A    between atoms: S_9  and  P_10
REMARK    4  A    between atoms: P_10  and  O_11
REMARK    5  A    between atoms: P_10  and  O_12
REMARK    6  A    between atoms: P_10  and  O_13
REMARK    7  A    between atoms: O_13  and  O_14
REMARK    8  A    between atoms: O_14  and  C_15
REMARK    9  A    between atoms: C_15  and  C_17
REMARK   10  A    between atoms: N_23  and  C_24
REMARK   11  A    between atoms: C_24  and  C_35
REMARK                            x       y       z     vdW  Elec       q    Type
REMARK                         _______ _______ _______ _____ _____    ______ ____
ROOT
ATOM      1  C   UNL     1     -21.496 -40.211  20.546  0.00  0.00    +0.095 C 
ATOM      2  C   UNL     1     -20.475 -40.704  21.217  0.00  0.00    +0.077 C 
ATOM      3  C   UNL     1     -19.149 -40.042  21.189  0.00  0.00    +0.202 C 
ATOM      4  O   UNL     1     -18.160 -40.510  21.834  0.00  0.00    -0.286 OA
ATOM      5  C   UNL     1     -19.028 -38.836  20.392  0.00  0.00    +0.046 C 
ATOM      6  C   UNL     1     -20.047 -38.345  19.719  0.00  0.00    +0.047 C 
ATOM      7  C   UNL     1     -21.350 -38.981  19.736  0.00  0.00    +0.209 C 
ATOM      8  O   UNL     1     -22.299 -38.482  19.074  0.00  0.00    -0.285 OA
ENDROOT
BRANCH   2   9
ATOM      9  S   UNL     1     -20.549 -42.188  22.165  0.00  0.00    -0.090 S 
ATOM     10  H   UNL     1     -19.643 -43.065  21.655  0.00  0.00    +0.107 HD
BRANCH   9  11
ATOM     11  P   UNL     1     -20.181 -41.958  23.984  0.00  0.00    +0.325 P 
BRANCH  11  12
ATOM     12  O   UNL     1     -21.614 -41.509  24.801  0.00  0.00    -0.326 OA
ATOM     13  H   UNL     1     -21.948 -40.675  24.434  0.00  0.00    +0.220 HD
ENDBRANCH  11  12
BRANCH  11  14
ATOM     14  O   UNL     1     -19.709 -43.425  24.722  0.00  0.00    -0.326 OA
ATOM     15  H   UNL     1     -18.893 -43.747  24.308  0.00  0.00    +0.220 HD
ENDBRANCH  11  14
BRANCH  11  16
ATOM     16  O   UNL     1     -19.033 -40.772  24.213  0.00  0.00    -0.101 OA
BRANCH  16  17
ATOM     17  O   UNL     1     -17.992 -41.157  24.968  0.00  0.00    -0.284 OA
BRANCH  17  18
ATOM     18  C   UNL     1     -16.789 -41.600  24.484  0.00  0.00    +0.375 C 
ATOM     19  O   UNL     1     -16.561 -41.535  23.257  0.00  0.00    -0.242 OA
BRANCH  18  20
ATOM     20  C   UNL     1     -15.809 -42.135  25.433  0.00  0.00    +0.079 C 
ATOM     21  C   UNL     1     -14.526 -42.337  24.964  0.00  0.00    +0.007 C 
ATOM     22  C   UNL     1     -13.563 -42.838  25.810  0.00  0.00    +0.000 C 
ATOM     23  C   UNL     1     -13.911 -43.126  27.114  0.00  0.00    +0.000 C 
ATOM     24  C   UNL     1     -15.185 -42.931  27.603  0.00  0.00    +0.000 C 
ATOM     25  C   UNL     1     -16.136 -42.428  26.738  0.00  0.00    +0.007 C 
ENDBRANCH  18  20
ENDBRANCH  17  18
ENDBRANCH  16  17
ENDBRANCH  11  16
ENDBRANCH   9  11
ENDBRANCH   2   9
BRANCH   1  26
ATOM     26  N   UNL     1     -22.749 -40.825  20.561  0.00  0.00    -0.295 N 
ATOM     27  H   UNL     1     -22.791 -41.665  20.049  0.00  0.00    +0.150 HD
BRANCH  26  28
ATOM     28  C   UNL     1     -23.977 -40.461  21.180  0.00  0.00    +0.265 C 
ATOM     29  O   UNL     1     -24.521 -41.695  21.689  0.00  0.00    -0.454 OA
ATOM     30  C   UNL     1     -24.748 -42.035  22.973  0.00  0.00    +0.174 C 
ATOM     31  C   UNL     1     -24.914 -41.028  23.898  0.00  0.00    +0.173 C 
ATOM     32  C   UNL     1     -25.155 -41.291  25.252  0.00  0.00    +0.040 C 
ATOM     33  C   UNL     1     -25.227 -42.600  25.666  0.00  0.00    +0.003 C 
ATOM     34  C   UNL     1     -25.062 -43.604  24.748  0.00  0.00    +0.003 C 
ATOM     35  C   UNL     1     -24.823 -43.364  23.400  0.00  0.00    +0.040 C 
ATOM     36  O   UNL     1     -24.822 -39.753  23.371  0.00  0.00    -0.466 OA
ATOM     37  C   UNL     1     -23.826 -39.552  22.343  0.00  0.00    +0.271 C 
BRANCH  28  39
ATOM     38  C   UNL     1     -25.676 -40.750  19.281  0.00  0.00    +0.017 C 
ATOM     39  C   UNL     1     -25.029 -39.977  20.222  0.00  0.00    +0.093 C 
ATOM     40  N   UNL     1     -25.557 -38.741  20.106  0.00  0.00    -0.229 N 
ATOM     41  C   UNL     1     -26.516 -38.754  19.109  0.00  0.00    +0.058 C 
ATOM     42  C   UNL     1     -26.603 -40.017  18.576  0.00  0.00    +0.015 C 
ATOM     43  C   UNL     1     -27.480 -40.332  17.555  0.00  0.00    +0.001 C 
ATOM     44  C   UNL     1     -28.317 -39.380  17.021  0.00  0.00    +0.000 C 
ATOM     45  C   UNL     1     -28.230 -38.115  17.554  0.00  0.00    +0.001 C 
ATOM     46  C   UNL     1     -27.348 -37.797  18.579  0.00  0.00    +0.015 C 
ATOM     47  C   UNL     1     -25.227 -37.564  20.803  0.00  0.00    +0.311 C 
ATOM     48  O   UNL     1     -25.849 -36.505  20.589  0.00  0.00    -0.264 OA
ENDBRANCH  28  39
ENDBRANCH  26  28
ENDBRANCH   1  26
TORSDOF 11
