REMARK  Name = =
REMARK  8 active torsions:
REMARK  status: ('A' for Active; 'I' for Inactive)
REMARK    1  A    between atoms: N_1  and  O_29
REMARK    2  A    between atoms: C_2  and  O_3
REMARK    3  A    between atoms: C_13  and  N_16
REMARK    4  A    between atoms: O_25  and  O_27
REMARK    5  A    between atoms: O_25  and  O_28
REMARK    6  A    between atoms: O_29  and  C_30
REMARK    7  A    between atoms: C_30  and  C_32
REMARK    8  A    between atoms: C_32  and  C_35
REMARK                            x       y       z     vdW  Elec       q    Type
REMARK                         _______ _______ _______ _____ _____    ______ ____
ROOT
ATOM      1  N   UNL     1      -5.587   0.540  31.206  0.00  0.00    -0.085 N 
ATOM      2  C   UNL     1      -4.512  -0.002  30.436  0.00  0.00    +0.251 C 
ATOM      3  C   UNL     1      -4.001  -1.335  30.646  0.00  0.00    +0.027 C 
ATOM      4  C   UNL     1      -4.606  -2.079  31.645  0.00  0.00    +0.006 C 
ATOM      5  C   UNL     1      -4.151  -3.361  31.877  0.00  0.00    +0.013 C 
ATOM      6  C   UNL     1      -4.728  -4.155  32.865  0.00  0.00    +0.001 C 
ATOM      7  C   UNL     1      -5.752  -3.676  33.621  0.00  0.00    +0.000 C 
ATOM      8  C   UNL     1      -6.224  -2.396  33.407  0.00  0.00    +0.005 C 
ATOM      9  C   UNL     1      -5.641  -1.615  32.419  0.00  0.00    +0.056 C 
ATOM     10  C   UNL     1      -6.174  -0.267  32.221  0.00  0.00    +0.283 C 
ATOM     11  O   UNL     1      -7.128   0.171  32.928  0.00  0.00    -0.267 OA
ATOM     12  C   UNL     1      -3.110  -3.865  31.112  0.00  0.00    +0.048 C 
ATOM     13  C   UNL     1      -2.538  -3.096  30.133  0.00  0.00    +0.014 C 
ATOM     14  C   UNL     1      -2.977  -1.832  29.892  0.00  0.00    +0.001 C 
ENDROOT
BRANCH  12  15
ATOM     15  N   UNL     1      -2.658  -5.181  31.406  0.00  0.00    -0.304 N 
ATOM     16  C   UNL     1      -3.617  -6.190  30.925  0.00  0.00    +0.112 C 
ATOM     17  C   UNL     1      -3.224  -7.496  31.614  0.00  0.00    +0.115 C 
ATOM     18  N   UNL     1      -1.821  -7.727  31.483  0.00  0.00    -0.269 N 
ATOM     19  C   UNL     1      -0.837  -6.688  31.232  0.00  0.00    +0.115 C 
ATOM     20  C   UNL     1      -1.450  -5.479  30.598  0.00  0.00    +0.112 C 
ATOM     21  C   UNL     1      -1.344  -9.059  31.605  0.00  0.00    +0.303 C 
ATOM     22  O   UNL     1      -2.110 -10.035  31.822  0.00  0.00    -0.265 OA
ENDBRANCH  12  15
BRANCH   2  23
ATOM     23  O   UNL     1      -3.979   0.688  29.537  0.00  0.00    -0.362 OA
ATOM     24  H   UNL     1      -3.272   0.177  29.114  0.00  0.00    +0.213 HD
ENDBRANCH   2  23
BRANCH   1  25
ATOM     25  O   UNL     1      -6.040   1.799  30.971  0.00  0.00    -0.336 OA
BRANCH  25  26
ATOM     26  C   UNL     1      -7.139   1.983  30.149  0.00  0.00    +0.373 C 
ATOM     27  O   UNL     1      -7.065   1.828  28.894  0.00  0.00    -0.242 OA
BRANCH  26  28
ATOM     28  C   UNL     1      -8.418   2.365  30.737  0.00  0.00    +0.146 C 
ATOM     29  C   UNL     1      -8.448   3.058  31.849  0.00  0.00    +0.018 C 
BRANCH  28  31
ATOM     30  N   UNL     1     -10.657   1.669  29.580  0.00  0.00    -0.191 NA
ATOM     31  C   UNL     1      -9.654   1.992  30.100  0.00  0.00    +0.107 C 
ENDBRANCH  28  31
ENDBRANCH  26  28
ENDBRANCH  25  26
ENDBRANCH   1  25
TORSDOF 6
REMARK  Name = =
REMARK  8 active torsions:
REMARK  status: ('A' for Active; 'I' for Inactive)
REMARK    1  A    between atoms: N_1  and  O_29
REMARK    2  A    between atoms: C_2  and  O_3
REMARK    3  A    between atoms: C_13  and  N_16
REMARK    4  A    between atoms: O_25  and  O_27
REMARK    5  A    between atoms: O_25  and  O_28
REMARK    6  A    between atoms: O_29  and  C_30
REMARK    7  A    between atoms: C_30  and  C_32
REMARK    8  A    between atoms: C_32  and  C_35
REMARK                            x       y       z     vdW  Elec       q    Type
REMARK                         _______ _______ _______ _____ _____    ______ ____
ROOT
ATOM      1  P   UNL     1      -2.239  -0.984  28.584  0.00  0.00    +0.032 P 
ATOM      2  S   UNL     1      -2.079  -2.623  27.212  0.00  0.00    -0.139 S 
ATOM      3  H   UNL     1      -1.197  -2.305  26.227  0.00  0.00    +0.107 HD
ENDROOT
TORSDOF 0
REMARK  Name = =
REMARK  8 active torsions:
REMARK  status: ('A' for Active; 'I' for Inactive)
REMARK    1  A    between atoms: N_1  and  O_29
REMARK    2  A    between atoms: C_2  and  O_3
REMARK    3  A    between atoms: C_13  and  N_16
REMARK    4  A    between atoms: O_25  and  O_27
REMARK    5  A    between atoms: O_25  and  O_28
REMARK    6  A    between atoms: O_29  and  C_30
REMARK    7  A    between atoms: C_30  and  C_32
REMARK    8  A    between atoms: C_32  and  C_35
REMARK                            x       y       z     vdW  Elec       q    Type
REMARK                         _______ _______ _______ _____ _____    ______ ____
ROOT
ATOM      1  O   UNL     1      -1.016  -1.527  27.820  0.00  0.00    -0.072 OA
ENDROOT
BRANCH   1   2
ATOM      2  O   UNL     1      -0.615  -0.691  28.968  0.00  0.00    -0.220 OA
ATOM      3  H   UNL     1       0.053  -1.160  29.492  0.00  0.00    +0.256 HD
ENDBRANCH   1   2
BRANCH   1   4
ATOM      4  O   UNL     1      -2.071  -0.789  26.989  0.00  0.00    -0.220 OA
ATOM      5  H   UNL     1      -2.333  -1.341  26.235  0.00  0.00    +0.256 HD
ENDBRANCH   1   4
TORSDOF 2
