REMARK  Name = =
REMARK  0 active torsions:
REMARK  status: ('A' for Active; 'I' for Inactive)
REMARK                            x       y       z     vdW  Elec       q    Type
REMARK                         _______ _______ _______ _____ _____    ______ ____
ROOT
ATOM      1  N   UNL     1      -4.077  -4.042  30.679  0.00  0.00    -0.237 NA
ATOM      2  C   UNL     1      -4.045  -5.388  31.083  0.00  0.00    +0.113 C 
ATOM      3  C   UNL     1      -2.656  -5.918  31.399  0.00  0.00    +0.028 C 
ATOM      4  C   UNL     1      -1.871  -5.694  30.099  0.00  0.00    +0.029 C 
ATOM      5  C   UNL     1      -1.737  -4.232  29.904  0.00  0.00    -0.009 C 
ATOM      6  C   UNL     1      -2.871  -3.400  30.362  0.00  0.00    +0.075 C 
ENDROOT
TORSDOF 0
