REMARK  Name = =
REMARK  0 active torsions:
REMARK  status: ('A' for Active; 'I' for Inactive)
REMARK                            x       y       z     vdW  Elec       q    Type
REMARK                         _______ _______ _______ _____ _____    ______ ____
ROOT
ATOM      1 CL   UNL     1      -5.318  -3.494  32.486  0.00  0.00    -0.082 Cl
ATOM      2  C   UNL     1      -4.331  -4.948  32.455  0.00  0.00    +0.058 C 
ATOM      3  C   UNL     1      -3.617  -5.331  31.333  0.00  0.00    +0.011 C 
ATOM      4  C   UNL     1      -2.863  -6.479  31.371  0.00  0.00    +0.001 C 
ATOM      5  C   UNL     1      -2.796  -7.270  32.510  0.00  0.00    +0.000 C 
ATOM      6  C   UNL     1      -3.504  -6.896  33.633  0.00  0.00    +0.001 C 
ATOM      7  C   UNL     1      -4.268  -5.740  33.604  0.00  0.00    +0.011 C 
ENDROOT
TORSDOF 0
