REMARK  Name = =
REMARK  1 active torsions:
REMARK  status: ('A' for Active; 'I' for Inactive)
REMARK    1  A    between atoms: C_1  and  C_14
REMARK                            x       y       z     vdW  Elec       q    Type
REMARK                         _______ _______ _______ _____ _____    ______ ____
ROOT
ATOM      1  C   UNL     1      -3.049  -4.328  31.181  0.00  0.00    +0.145 C 
ATOM      2  O   UNL     1      -3.186  -5.689  31.034  0.00  0.00    -0.329 OA
ATOM      3  C   UNL     1      -1.959  -6.351  31.067  0.00  0.00    +0.207 C 
ATOM      4  O   UNL     1      -1.754  -6.715  32.374  0.00  0.00    -0.331 OA
ATOM      5  C   UNL     1      -0.685  -7.516  32.640  0.00  0.00    +0.145 C 
ATOM      6  C   UNL     1      -0.148  -8.323  31.528  0.00  0.00    +0.032 C 
ATOM      7  C   UNL     1      -1.118  -8.622  30.433  0.00  0.00    +0.008 C 
ATOM      8  C   UNL     1      -2.175  -7.605  30.207  0.00  0.00    +0.061 C 
ATOM      9  C   UNL     1      -0.812  -5.618  30.493  0.00  0.00    +0.024 C 
ATOM     10  C   UNL     1      -1.056  -4.332  29.828  0.00  0.00    -0.023 C 
ATOM     11  C   UNL     1      -2.496  -3.837  29.863  0.00  0.00    +0.060 C 
ENDROOT
BRANCH   1  14
ATOM     12 CL   UNL     1      -4.411  -5.532  33.652  0.00  0.00    -0.082 Cl
ATOM     13  C   UNL     1      -4.843  -4.025  32.859  0.00  0.00    +0.056 C 
ATOM     14  C   UNL     1      -4.171  -3.592  31.718  0.00  0.00    +0.016 C 
ATOM     15  C   UNL     1      -4.585  -2.408  31.161  0.00  0.00    -0.001 C 
ATOM     16  C   UNL     1      -5.624  -1.685  31.722  0.00  0.00    -0.000 C 
ATOM     17  C   UNL     1      -6.290  -2.113  32.853  0.00  0.00    +0.001 C 
ATOM     18  C   UNL     1      -5.877  -3.306  33.414  0.00  0.00    +0.011 C 
ENDBRANCH   1  14
TORSDOF 1
