REMARK  Name = =
REMARK  3 active torsions:
REMARK  status: ('A' for Active; 'I' for Inactive)
REMARK    1  A    between atoms: C_3  and  C_8
REMARK    2  A    between atoms: C_7  and  C_19
REMARK    3  A    between atoms: C_27  and  O_29
REMARK                            x       y       z     vdW  Elec       q    Type
REMARK                         _______ _______ _______ _____ _____    ______ ____
ROOT
ATOM      1 CL   UNL     1       1.502  -4.733  28.123  0.00  0.00    -0.082 Cl
ATOM      2  C   UNL     1       0.245  -3.587  27.843  0.00  0.00    +0.056 C 
ATOM      3  C   UNL     1       0.588  -2.421  27.131  0.00  0.00    +0.015 C 
ATOM      4  C   UNL     1      -0.450  -1.545  26.950  0.00  0.00    -0.001 C 
ATOM      5  C   UNL     1      -1.740  -1.746  27.410  0.00  0.00    -0.000 C 
ATOM      6  C   UNL     1      -2.022  -2.891  28.098  0.00  0.00    +0.001 C 
ATOM      7  C   UNL     1      -1.024  -3.827  28.312  0.00  0.00    +0.010 C 
ENDROOT
BRANCH   3   8
ATOM      8  C   UNL     1       1.933  -2.121  26.701  0.00  0.00    +0.141 C 
ATOM      9  O   UNL     1       2.166  -1.321  25.647  0.00  0.00    -0.332 OA
ATOM     10  C   UNL     1       3.376  -1.555  25.030  0.00  0.00    +0.187 C 
ATOM     11  O   UNL     1       3.690  -0.399  24.335  0.00  0.00    -0.334 OA
ATOM     12  C   UNL     1       2.526   0.089  23.700  0.00  0.00    +0.145 C 
ATOM     13  C   UNL     1       2.260  -0.836  22.524  0.00  0.00    +0.032 C 
ATOM     14  C   UNL     1       3.094  -2.071  22.596  0.00  0.00    +0.008 C 
ATOM     15  C   UNL     1       3.173  -2.643  23.990  0.00  0.00    +0.056 C 
ATOM     16  C   UNL     1       4.484  -2.012  25.902  0.00  0.00    +0.056 C 
ATOM     17  C   UNL     1       4.287  -2.231  27.337  0.00  0.00    +0.008 C 
ATOM     18  C   UNL     1       2.908  -1.929  27.819  0.00  0.00    +0.034 C 
ENDBRANCH   3   8
BRANCH   7  19
ATOM     19  C   UNL     1      -1.428  -5.070  28.922  0.00  0.00    +0.004 C 
ATOM     20  C   UNL     1      -2.201  -4.994  30.079  0.00  0.00    +0.021 C 
ATOM     21  C   UNL     1      -2.553  -6.166  30.761  0.00  0.00    +0.082 C 
ATOM     22  N   UNL     1      -2.119  -7.319  30.260  0.00  0.00    -0.244 NA
ATOM     23  C   UNL     1      -1.369  -7.471  29.148  0.00  0.00    +0.099 C 
ATOM     24  C   UNL     1      -1.028  -6.284  28.474  0.00  0.00    +0.021 C 
ATOM     25  C   UNL     1      -3.346  -6.099  31.880  0.00  0.00    +0.022 C 
ATOM     26  C   UNL     1      -3.834  -4.893  32.396  0.00  0.00    +0.038 C 
ATOM     27  C   UNL     1      -3.488  -3.749  31.717  0.00  0.00    +0.134 C 
ATOM     28  C   UNL     1      -2.680  -3.786  30.570  0.00  0.00    +0.038 C 
BRANCH  27  29
ATOM     29  O   UNL     1      -3.947  -2.535  32.159  0.00  0.00    -0.506 OA
ATOM     30  H   UNL     1      -4.488  -2.488  32.923  0.00  0.00    +0.292 HD
ENDBRANCH  27  29
ENDBRANCH   7  19
TORSDOF 3
