REMARK  Name = =
REMARK  2 active torsions:
REMARK  status: ('A' for Active; 'I' for Inactive)
REMARK    1  A    between atoms: C_1  and  C_32
REMARK    2  A    between atoms: C_13  and  O_34
REMARK                            x       y       z     vdW  Elec       q    Type
REMARK                         _______ _______ _______ _____ _____    ______ ____
ROOT
ATOM      1  C   UNL     1       4.072  -2.981  25.371  0.00  0.00    +0.002 C 
ATOM      2  C   UNL     1       2.894  -3.758  25.825  0.00  0.00    +0.000 C 
ATOM      3  C   UNL     1       1.955  -3.034  26.754  0.00  0.00    +0.000 C 
ATOM      4  C   UNL     1       0.979  -4.073  27.325  0.00  0.00    +0.005 C 
ATOM      5  C   UNL     1       1.746  -4.980  28.215  0.00  0.00    +0.026 C 
ATOM      6  C   UNL     1       2.706  -5.783  27.323  0.00  0.00    +0.026 C 
ATOM      7  C   UNL     1       1.976  -6.685  26.400  0.00  0.00    -0.026 C 
ATOM      8  C   UNL     1       0.725  -7.262  26.944  0.00  0.00    -0.005 C 
ATOM      9  C   UNL     1       0.464  -7.058  28.375  0.00  0.00    -0.001 C 
ATOM     10  C   UNL     1       0.962  -5.932  28.989  0.00  0.00    -0.022 C 
ATOM     11  C   UNL     1       0.720  -5.723  30.323  0.00  0.00    -0.001 C 
ATOM     12  C   UNL     1      -0.030  -6.650  31.067  0.00  0.00    +0.036 C 
ATOM     13  C   UNL     1      -0.528  -7.777  30.454  0.00  0.00    +0.134 C 
ATOM     14  C   UNL     1      -0.285  -7.984  29.118  0.00  0.00    +0.036 C 
ATOM     15  C   UNL     1       3.612  -4.795  26.707  0.00  0.00    +0.004 C 
ATOM     16  C   UNL     1       4.617  -5.322  25.754  0.00  0.00    +0.000 C 
ATOM     17  C   UNL     1       5.107  -4.060  25.076  0.00  0.00    +0.000 C 
ENDROOT
BRANCH   1  32
ATOM     18  C   UNL     1       2.749  -2.041  20.803  0.00  0.00    +0.136 C 
ATOM     19  N   UNL     1       3.526  -3.036  20.309  0.00  0.00    -0.209 NA
ATOM     20  C   UNL     1       3.488  -3.451  19.038  0.00  0.00    +0.200 C 
ATOM     21  N   UNL     1       2.650  -2.883  18.165  0.00  0.00    -0.224 NA
ATOM     22  C   UNL     1       1.844  -1.887  18.585  0.00  0.00    +0.089 C 
ATOM     23  C   UNL     1       1.871  -1.450  19.885  0.00  0.00    +0.068 C 
ATOM     24  C   UNL     1       1.029  -0.439  20.305  0.00  0.00    +0.103 C 
ATOM     25  N   UNL     1       0.180   0.122  19.425  0.00  0.00    -0.242 NA
ATOM     26  C   UNL     1       0.127  -0.278  18.145  0.00  0.00    +0.100 C 
ATOM     27  C   UNL     1       0.950  -1.284  17.695  0.00  0.00    +0.040 C 
ATOM     28  N   UNL     1       2.862  -1.611  22.145  0.00  0.00    -0.293 N 
ATOM     29  C   UNL     1       3.638  -0.418  22.213  0.00  0.00    +0.092 C 
ATOM     30  C   UNL     1       3.505   0.274  23.561  0.00  0.00    +0.022 C 
ATOM     31  C   UNL     1       3.085  -0.822  24.563  0.00  0.00    +0.003 C 
ATOM     32  C   UNL     1       3.886  -2.050  24.235  0.00  0.00    +0.020 C 
ATOM     33  C   UNL     1       3.357  -2.678  22.964  0.00  0.00    +0.092 C 
ENDBRANCH   1  32
BRANCH  13  34
ATOM     34  O   UNL     1      -1.274  -8.687  31.221  0.00  0.00    -0.506 OA
ATOM     35  H   UNL     1      -1.424  -8.520  32.131  0.00  0.00    +0.292 HD
ENDBRANCH  13  34
TORSDOF 2
