REMARK  Name = =
REMARK  5 active torsions:
REMARK  status: ('A' for Active; 'I' for Inactive)
REMARK    1  A    between atoms: C_1  and  C_17
REMARK    2  A    between atoms: C_9  and  O_29
REMARK    3  A    between atoms: C_13  and  C_18
REMARK    4  A    between atoms: O_29  and  N_30
REMARK    5  A    between atoms: N_33  and  N_34
REMARK                            x       y       z     vdW  Elec       q    Type
REMARK                         _______ _______ _______ _____ _____    ______ ____
ROOT
ATOM      1  C   UNL     1       1.029  -2.280  25.828  0.00  0.00    +0.004 C 
ATOM      2  C   UNL     1       2.312  -2.107  25.504  0.00  0.00    +0.021 C 
ATOM      3  C   UNL     1       2.593  -1.536  24.259  0.00  0.00    +0.082 C 
ATOM      4  N   UNL     1       1.594  -1.176  23.424  0.00  0.00    -0.244 NA
ATOM      5  C   UNL     1       0.293  -1.340  23.723  0.00  0.00    +0.099 C 
ATOM      6  C   UNL     1      -0.004  -1.898  24.938  0.00  0.00    +0.021 C 
ATOM      7  C   UNL     1       3.898  -1.370  23.858  0.00  0.00    +0.022 C 
ATOM      8  C   UNL     1       4.922  -1.763  24.671  0.00  0.00    +0.041 C 
ATOM      9  C   UNL     1       4.680  -2.339  25.919  0.00  0.00    +0.170 C 
ATOM     10  C   UNL     1       3.375  -2.496  26.307  0.00  0.00    +0.041 C 
ENDROOT
BRANCH   1  17
ATOM     11 CL   UNL     1       1.484  -5.161  26.157  0.00  0.00    -0.082 Cl
ATOM     12  C   UNL     1       0.607  -4.128  27.279  0.00  0.00    +0.056 C 
ATOM     13  C   UNL     1      -0.044  -4.762  28.333  0.00  0.00    +0.015 C 
ATOM     14  C   UNL     1      -0.715  -3.941  29.210  0.00  0.00    -0.001 C 
ATOM     15  C   UNL     1      -0.758  -2.555  29.081  0.00  0.00    -0.000 C 
ATOM     16  C   UNL     1      -0.102  -1.965  28.028  0.00  0.00    +0.001 C 
ATOM     17  C   UNL     1       0.570  -2.762  27.132  0.00  0.00    +0.010 C 
BRANCH  13  18
ATOM     18  C   UNL     1       0.133  -6.221  28.521  0.00  0.00    +0.141 C 
ATOM     19  O   UNL     1       0.152  -6.433  29.930  0.00  0.00    -0.332 OA
ATOM     20  C   UNL     1      -0.802  -7.343  30.341  0.00  0.00    +0.187 C 
ATOM     21  O   UNL     1      -2.059  -6.848  30.060  0.00  0.00    -0.334 OA
ATOM     22  C   UNL     1      -2.963  -6.886  31.087  0.00  0.00    +0.145 C 
ATOM     23  C   UNL     1      -3.010  -8.302  31.682  0.00  0.00    +0.032 C 
ATOM     24  C   UNL     1      -1.693  -8.640  32.290  0.00  0.00    +0.008 C 
ATOM     25  C   UNL     1      -0.649  -7.644  31.806  0.00  0.00    +0.056 C 
ATOM     26  C   UNL     1      -0.561  -8.656  29.610  0.00  0.00    +0.056 C 
ATOM     27  C   UNL     1      -1.053  -8.393  28.195  0.00  0.00    +0.008 C 
ATOM     28  C   UNL     1      -1.080  -6.925  27.944  0.00  0.00    +0.034 C 
ENDBRANCH  13  18
ENDBRANCH   1  17
BRANCH   9  29
ATOM     29  O   UNL     1       5.787  -2.718  26.684  0.00  0.00    -0.383 OA
BRANCH  29  30
ATOM     30  N   UNL     1       6.643  -1.694  27.018  0.00  0.00    -0.131 N 
ATOM     31  C   UNL     1       7.655  -1.171  26.210  0.00  0.00    +0.345 C 
ATOM     32  O   UNL     1       7.840  -1.659  25.057  0.00  0.00    -0.249 OA
ATOM     33  N   UNL     1       8.508  -0.096  26.633  0.00  0.00    -0.235 N 
ATOM     34  H   UNL     1       6.532  -1.292  27.910  0.00  0.00    +0.197 HD
ATOM     35  H   UNL     1       8.377   0.297  27.526  0.00  0.00    +0.170 HD
BRANCH  33  36
ATOM     36  N   UNL     1       9.516   0.405  25.812  0.00  0.00    -0.253 NA
ATOM     37  H   UNL     1       9.520  -0.105  24.929  0.00  0.00    +0.141 HD
ATOM     38  H   UNL     1      10.418   0.292  26.274  0.00  0.00    +0.141 HD
ENDBRANCH  33  36
ENDBRANCH  29  30
ENDBRANCH   9  29
TORSDOF 5
