REMARK  Name = =
REMARK  7 active torsions:
REMARK  status: ('A' for Active; 'I' for Inactive)
REMARK    1  A    between atoms: C_1  and  C_17
REMARK    2  A    between atoms: C_9  and  O_32
REMARK    3  A    between atoms: C_10  and  C_29
REMARK    4  A    between atoms: C_13  and  C_18
REMARK    5  A    between atoms: C_29  and  C_30
REMARK    6  A    between atoms: O_32  and  N_33
REMARK    7  A    between atoms: N_36  and  N_37
REMARK                            x       y       z     vdW  Elec       q    Type
REMARK                         _______ _______ _______ _____ _____    ______ ____
ROOT
ATOM      1  C   UNL     1       1.363  -3.504  27.029  0.00  0.00    +0.004 C 
ATOM      2  C   UNL     1       0.418  -3.265  28.012  0.00  0.00    +0.017 C 
ATOM      3  C   UNL     1      -0.311  -2.050  27.902  0.00  0.00    +0.081 C 
ATOM      4  N   UNL     1      -0.040  -1.199  26.880  0.00  0.00    -0.244 NA
ATOM      5  C   UNL     1       0.910  -1.461  25.939  0.00  0.00    +0.099 C 
ATOM      6  C   UNL     1       1.634  -2.614  25.980  0.00  0.00    +0.021 C 
ATOM      7  C   UNL     1      -1.330  -1.763  28.772  0.00  0.00    +0.022 C 
ATOM      8  C   UNL     1      -1.665  -2.630  29.766  0.00  0.00    +0.041 C 
ATOM      9  C   UNL     1      -0.954  -3.787  29.880  0.00  0.00    +0.167 C 
ATOM     10  C   UNL     1       0.113  -4.141  29.019  0.00  0.00    +0.020 C 
ENDROOT
BRANCH   1  17
ATOM     11 CL   UNL     1       4.447  -4.000  26.967  0.00  0.00    -0.082 Cl
ATOM     12  C   UNL     1       3.163  -5.224  26.864  0.00  0.00    +0.056 C 
ATOM     13  C   UNL     1       3.512  -6.553  26.745  0.00  0.00    +0.016 C 
ATOM     14  C   UNL     1       2.503  -7.547  26.672  0.00  0.00    -0.001 C 
ATOM     15  C   UNL     1       1.174  -7.186  26.714  0.00  0.00    -0.000 C 
ATOM     16  C   UNL     1       0.875  -5.839  26.829  0.00  0.00    +0.001 C 
ATOM     17  C   UNL     1       1.865  -4.855  26.910  0.00  0.00    +0.010 C 
BRANCH  13  18
ATOM     18  C   UNL     1       4.893  -6.908  26.451  0.00  0.00    +0.145 C 
ATOM     19  O   UNL     1       5.415  -6.329  25.345  0.00  0.00    -0.329 OA
ATOM     20  C   UNL     1       6.488  -7.144  24.896  0.00  0.00    +0.207 C 
ATOM     21  O   UNL     1       6.057  -8.440  24.853  0.00  0.00    -0.331 OA
ATOM     22  C   UNL     1       5.105  -8.732  23.917  0.00  0.00    +0.145 C 
ATOM     23  C   UNL     1       5.686  -8.525  22.522  0.00  0.00    +0.032 C 
ATOM     24  C   UNL     1       5.936  -7.024  22.446  0.00  0.00    +0.008 C 
ATOM     25  C   UNL     1       6.917  -6.680  23.551  0.00  0.00    +0.061 C 
ATOM     26  C   UNL     1       7.635  -6.972  25.874  0.00  0.00    +0.024 C 
ATOM     27  C   UNL     1       7.239  -6.716  27.270  0.00  0.00    -0.023 C 
ATOM     28  C   UNL     1       5.781  -6.911  27.641  0.00  0.00    +0.060 C 
ENDBRANCH  13  18
ENDBRANCH   1  17
BRANCH  10  29
ATOM     29  C   UNL     1       1.001  -5.205  29.497  0.00  0.00    +0.056 C 
BRANCH  29  30
ATOM     30  C   UNL     1       1.847  -4.410  30.560  0.00  0.00    -0.021 C 
ATOM     31  C   UNL     1       2.255  -5.029  31.626  0.00  0.00    -0.005 C 
ENDBRANCH  29  30
ENDBRANCH  10  29
BRANCH   9  32
ATOM     32  O   UNL     1      -1.232  -4.740  30.878  0.00  0.00    -0.383 OA
BRANCH  32  33
ATOM     33  N   UNL     1      -2.224  -5.647  30.532  0.00  0.00    -0.131 N 
ATOM     34  C   UNL     1      -2.041  -7.030  30.897  0.00  0.00    +0.345 C 
ATOM     35  O   UNL     1      -0.974  -7.272  31.506  0.00  0.00    -0.249 OA
ATOM     36  N   UNL     1      -2.968  -8.059  30.605  0.00  0.00    -0.235 N 
ATOM     37  H   UNL     1      -3.031  -5.354  30.050  0.00  0.00    +0.197 HD
ATOM     38  H   UNL     1      -3.804  -7.865  30.122  0.00  0.00    +0.170 HD
BRANCH  36  39
ATOM     39  N   UNL     1      -2.669  -9.334  31.014  0.00  0.00    -0.253 NA
ATOM     40  H   UNL     1      -1.769  -9.335  31.494  0.00  0.00    +0.141 HD
ATOM     41  H   UNL     1      -2.622  -9.949  30.202  0.00  0.00    +0.141 HD
ENDBRANCH  36  39
ENDBRANCH  32  33
ENDBRANCH   9  32
TORSDOF 7
