REMARK  Name = =
REMARK  8 active torsions:
REMARK  status: ('A' for Active; 'I' for Inactive)
REMARK    1  A    between atoms: C_1  and  C_17
REMARK    2  A    between atoms: C_9  and  O_34
REMARK    3  A    between atoms: C_10  and  C_31
REMARK    4  A    between atoms: C_13  and  C_18
REMARK    5  A    between atoms: C_14  and  N_29
REMARK    6  A    between atoms: C_31  and  C_32
REMARK    7  A    between atoms: O_34  and  N_35
REMARK    8  A    between atoms: N_38  and  N_39
REMARK                            x       y       z     vdW  Elec       q    Type
REMARK                         _______ _______ _______ _____ _____    ______ ____
ROOT
ATOM      1  C   UNL     1       3.667  -3.680  26.898  0.00  0.00    +0.004 C 
ATOM      2  C   UNL     1       4.252  -4.905  26.926  0.00  0.00    +0.017 C 
ATOM      3  C   UNL     1       5.612  -5.032  27.297  0.00  0.00    +0.081 C 
ATOM      4  N   UNL     1       6.329  -3.958  27.622  0.00  0.00    -0.244 NA
ATOM      5  C   UNL     1       5.802  -2.743  27.613  0.00  0.00    +0.099 C 
ATOM      6  C   UNL     1       4.495  -2.569  27.262  0.00  0.00    +0.021 C 
ATOM      7  C   UNL     1       6.215  -6.259  27.404  0.00  0.00    +0.022 C 
ATOM      8  C   UNL     1       5.460  -7.373  27.143  0.00  0.00    +0.041 C 
ATOM      9  C   UNL     1       4.157  -7.279  26.789  0.00  0.00    +0.167 C 
ATOM     10  C   UNL     1       3.501  -6.019  26.666  0.00  0.00    +0.020 C 
ENDROOT
BRANCH   1  17
ATOM     11 CL   UNL     1       1.616  -3.930  29.006  0.00  0.00    -0.082 Cl
ATOM     12  C   UNL     1       1.342  -3.251  27.402  0.00  0.00    +0.057 C 
ATOM     13  C   UNL     1       0.093  -2.695  27.155  0.00  0.00    +0.033 C 
ATOM     14  C   UNL     1      -0.119  -2.173  25.908  0.00  0.00    +0.080 C 
ATOM     15  C   UNL     1       0.906  -2.213  24.955  0.00  0.00    +0.019 C 
ATOM     16  C   UNL     1       2.122  -2.767  25.245  0.00  0.00    +0.002 C 
ATOM     17  C   UNL     1       2.368  -3.299  26.468  0.00  0.00    +0.011 C 
BRANCH  13  18
ATOM     18  C   UNL     1      -0.951  -2.644  28.210  0.00  0.00    +0.142 C 
ATOM     19  O   UNL     1      -1.608  -3.859  28.357  0.00  0.00    -0.332 OA
ATOM     20  C   UNL     1      -2.350  -3.858  29.515  0.00  0.00    +0.187 C 
ATOM     21  O   UNL     1      -3.669  -4.145  29.190  0.00  0.00    -0.334 OA
ATOM     22  C   UNL     1      -4.541  -4.229  30.239  0.00  0.00    +0.145 C 
ATOM     23  C   UNL     1      -4.065  -5.033  31.410  0.00  0.00    +0.032 C 
ATOM     24  C   UNL     1      -2.763  -5.727  31.161  0.00  0.00    +0.008 C 
ATOM     25  C   UNL     1      -1.743  -4.919  30.424  0.00  0.00    +0.056 C 
ATOM     26  C   UNL     1      -2.300  -2.569  30.267  0.00  0.00    +0.056 C 
ATOM     27  C   UNL     1      -2.620  -1.370  29.444  0.00  0.00    +0.008 C 
ATOM     28  C   UNL     1      -1.934  -1.536  28.078  0.00  0.00    +0.034 C 
ENDBRANCH  13  18
BRANCH  14  29
ATOM     29  N   UNL     1      -1.375  -1.612  25.551  0.00  0.00    -0.242 NA
ATOM     30  C   UNL     1      -1.715  -1.581  24.321  0.00  0.00    +0.119 C 
ENDBRANCH  14  29
ENDBRANCH   1  17
BRANCH  10  31
ATOM     31  C   UNL     1       2.105  -6.089  26.190  0.00  0.00    +0.056 C 
BRANCH  31  32
ATOM     32  C   UNL     1       2.169  -6.246  24.713  0.00  0.00    -0.021 C 
ATOM     33  C   UNL     1       1.662  -7.335  24.094  0.00  0.00    -0.005 C 
ENDBRANCH  31  32
ENDBRANCH  10  31
BRANCH   9  34
ATOM     34  O   UNL     1       3.376  -8.427  26.519  0.00  0.00    -0.383 OA
BRANCH  34  35
ATOM     35  N   UNL     1       4.024  -9.632  26.513  0.00  0.00    -0.131 N 
ATOM     36  C   UNL     1       4.558 -10.103  25.286  0.00  0.00    +0.345 C 
ATOM     37  O   UNL     1       4.452  -9.442  24.193  0.00  0.00    -0.249 OA
ATOM     38  N   UNL     1       5.251 -11.343  25.163  0.00  0.00    -0.235 N 
ATOM     39  H   UNL     1       4.117 -10.159  27.339  0.00  0.00    +0.197 HD
ATOM     40  H   UNL     1       5.372 -11.905  25.963  0.00  0.00    +0.170 HD
BRANCH  38  41
ATOM     41  N   UNL     1       5.760 -11.781  23.948  0.00  0.00    -0.253 NA
ATOM     42  H   UNL     1       5.554 -11.092  23.225  0.00  0.00    +0.141 HD
ATOM     43  H   UNL     1       5.330 -12.673  23.701  0.00  0.00    +0.141 HD
ENDBRANCH  38  41
ENDBRANCH  34  35
ENDBRANCH   9  34
TORSDOF 8
