REMARK  Name = =
REMARK  13 active torsions:
REMARK  status: ('A' for Active; 'I' for Inactive)
REMARK    1  A    between atoms: C_1  and  S_19
REMARK    2  A    between atoms: C_1  and  N_27
REMARK    3  A    between atoms: N_27  and  S_28
REMARK    4  A    between atoms: N_27  and  S_41
REMARK    5  A    between atoms: S_28  and  P_29
REMARK    6  A    between atoms: P_29  and  O_32
REMARK    7  A    between atoms: O_32  and  P_33
REMARK    8  A    between atoms: P_33  and  O_35
REMARK    9  A    between atoms: P_33  and  O_36
REMARK   10  A    between atoms: O_36  and  P_37
REMARK   11  A    between atoms: P_37  and  O_39
REMARK   12  A    between atoms: P_37  and  O_40
REMARK   13  A    between atoms: S_41  and  N_44
REMARK                            x       y       z     vdW  Elec       q    Type
REMARK                         _______ _______ _______ _____ _____    ______ ____
ROOT
ATOM      1  C   UNL     1     -14.916   2.671  23.616  0.00  0.00    +0.109 C 
ATOM      2  C   UNL     1     -15.160   2.823  25.070  0.00  0.00    +0.025 C 
ATOM      3  C   UNL     1     -13.858   2.327  25.722  0.00  0.00    +0.002 C 
ATOM      4  C   UNL     1     -14.117   2.204  27.193  0.00  0.00    +0.000 C 
ATOM      5  C   UNL     1     -15.538   2.487  27.596  0.00  0.00    +0.000 C 
ATOM      6  C   UNL     1     -15.632   2.358  29.080  0.00  0.00    +0.001 C 
ATOM      7  C   UNL     1     -14.764   3.321  29.790  0.00  0.00    +0.007 C 
ATOM      8  C   UNL     1     -13.563   3.802  29.066  0.00  0.00    +0.000 C 
ATOM      9  C   UNL     1     -13.079   2.953  27.946  0.00  0.00    +0.000 C 
ATOM     10  C   UNL     1     -14.514   2.989  31.232  0.00  0.00    +0.064 C 
ATOM     11  C   UNL     1     -15.349   1.901  31.748  0.00  0.00    +0.151 C 
ATOM     12  O   UNL     1     -15.879   1.984  32.840  0.00  0.00    -0.296 OA
ATOM     13  C   UNL     1     -15.559   0.687  30.947  0.00  0.00    +0.065 C 
ATOM     14  C   UNL     1     -15.403   0.917  29.460  0.00  0.00    +0.008 C 
ATOM     15  C   UNL     1     -16.052   3.793  27.098  0.00  0.00    +0.000 C 
ATOM     16  C   UNL     1     -15.512   4.091  25.682  0.00  0.00    +0.002 C 
ATOM     17  C   UNL     1     -13.732   1.028  25.011  0.00  0.00    +0.002 C 
ATOM     18  C   UNL     1     -14.041   1.432  23.589  0.00  0.00    +0.027 C 
ENDROOT
BRANCH   1  19
ATOM     19  S   UNL     1     -14.206   4.082  22.956  0.00  0.00    -0.144 S 
ATOM     20  C   UNL     1     -12.379   4.207  23.066  0.00  0.00    +0.078 C 
ATOM     21  C   UNL     1     -11.889   5.095  21.984  0.00  0.00    +0.001 C 
ATOM     22  C   UNL     1     -12.572   6.141  21.547  0.00  0.00    +0.058 C 
ATOM     23  N   UNL     1     -13.831   6.511  22.071  0.00  0.00    -0.300 N 
ATOM     24  C   UNL     1     -14.708   5.549  22.708  0.00  0.00    +0.116 C 
ATOM     25  C   UNL     1     -15.083   6.636  23.617  0.00  0.00    +0.052 C 
ATOM     26  C   UNL     1     -14.854   7.481  22.350  0.00  0.00    +0.094 C 
ENDBRANCH   1  19
BRANCH   1  27
ATOM     27  N   UNL     1     -16.177   2.268  23.026  0.00  0.00    -0.098 NA
BRANCH  27  28
ATOM     28  S   UNL     1     -16.617   0.667  23.338  0.00  0.00    +0.105 S 
ATOM     29  O   UNL     1     -16.989   0.398  24.784  0.00  0.00    -0.141 OA
ATOM     30  O   UNL     1     -17.830   0.299  22.555  0.00  0.00    -0.141 OA
BRANCH  28  31
ATOM     31  N   UNL     1     -15.367  -0.469  22.868  0.00  0.00    -0.192 NA
ATOM     32  H   UNL     1     -14.509  -0.261  23.378  0.00  0.00    +0.145 HD
ATOM     33  H   UNL     1     -15.195  -0.389  21.866  0.00  0.00    +0.145 HD
ENDBRANCH  28  31
ENDBRANCH  27  28
BRANCH  27  34
ATOM     34  S   UNL     1     -16.461   2.752  21.414  0.00  0.00    -0.052 S 
ATOM     35  H   UNL     1     -16.386   4.107  21.320  0.00  0.00    +0.118 HD
BRANCH  34  36
ATOM     36  P   UNL     1     -15.119   1.948  20.299  0.00  0.00    +0.286 P 
ATOM     37  O   UNL     1     -14.803   0.664  21.014  0.00  0.00    -0.165 OA
BRANCH  36  38
ATOM     38  O   UNL     1     -15.801   1.557  18.779  0.00  0.00    -0.224 OA
BRANCH  38  39
ATOM     39  P   UNL     1     -15.035   2.593  17.656  0.00  0.00    +0.489 P 
ATOM     40  O   UNL     1     -15.694   2.522  16.312  0.00  0.00    -0.227 OA
BRANCH  39  41
ATOM     41  O   UNL     1     -15.180   4.167  18.241  0.00  0.00    -0.302 OA
ATOM     42  H   UNL     1     -16.119   4.389  18.342  0.00  0.00    +0.222 HD
ENDBRANCH  39  41
BRANCH  39  43
ATOM     43  O   UNL     1     -13.408   2.195  17.476  0.00  0.00    -0.186 OA
BRANCH  43  44
ATOM     44  P   UNL     1     -13.185   0.549  17.202  0.00  0.00    +0.481 P 
ATOM     45  O   UNL     1     -12.823  -0.125  18.506  0.00  0.00    -0.227 OA
BRANCH  44  46
ATOM     46  O   UNL     1     -11.915   0.252  16.124  0.00  0.00    -0.302 OA
ATOM     47  H   UNL     1     -11.106   0.675  16.453  0.00  0.00    +0.222 HD
ENDBRANCH  44  46
BRANCH  44  48
ATOM     48  O   UNL     1     -14.576  -0.196  16.608  0.00  0.00    -0.302 OA
ATOM     49  H   UNL     1     -15.314  -0.034  17.216  0.00  0.00    +0.222 HD
ENDBRANCH  44  48
ENDBRANCH  43  44
ENDBRANCH  39  43
ENDBRANCH  38  39
ENDBRANCH  36  38
ENDBRANCH  34  36
ENDBRANCH  27  34
ENDBRANCH   1  27
TORSDOF 13
REMARK  Name = =
REMARK  13 active torsions:
REMARK  status: ('A' for Active; 'I' for Inactive)
REMARK    1  A    between atoms: C_1  and  S_19
REMARK    2  A    between atoms: C_1  and  N_27
REMARK    3  A    between atoms: N_27  and  S_28
REMARK    4  A    between atoms: N_27  and  S_41
REMARK    5  A    between atoms: S_28  and  P_29
REMARK    6  A    between atoms: P_29  and  O_32
REMARK    7  A    between atoms: O_32  and  P_33
REMARK    8  A    between atoms: P_33  and  O_35
REMARK    9  A    between atoms: P_33  and  O_36
REMARK   10  A    between atoms: O_36  and  P_37
REMARK   11  A    between atoms: P_37  and  O_39
REMARK   12  A    between atoms: P_37  and  O_40
REMARK   13  A    between atoms: S_41  and  N_44
REMARK                            x       y       z     vdW  Elec       q    Type
REMARK                         _______ _______ _______ _____ _____    ______ ____
ROOT
ATOM      1  O   HOH     1     -13.802   2.915  20.036  0.00  0.00    -0.410 OA
ATOM      2  H   HOH     0     -12.832   2.915  20.036  0.00  0.00    +0.205 HD
ATOM      3  H   HOH     0     -14.125   3.796  19.792  0.00  0.00    +0.205 HD
ENDROOT
TORSDOF 0
