REMARK  Name = =
REMARK  13 active torsions:
REMARK  status: ('A' for Active; 'I' for Inactive)
REMARK    1  A    between atoms: C_1  and  N_3
REMARK    2  A    between atoms: C_1  and  N_15
REMARK    3  A    between atoms: N_3  and  C_6
REMARK    4  A    between atoms: C_4  and  O_9
REMARK    5  A    between atoms: C_6  and  O_8
REMARK    6  A    between atoms: O_9  and  C_10
REMARK    7  A    between atoms: C_10  and  S_12
REMARK    8  A    between atoms: S_12  and  C_13
REMARK    9  A    between atoms: N_15  and  N_16
REMARK   10  A    between atoms: N_16  and  S_17
REMARK   11  A    between atoms: N_16  and  C_22
REMARK   12  A    between atoms: S_17  and  N_20
REMARK   13  A    between atoms: C_23  and  N_24
REMARK                            x       y       z     vdW  Elec       q    Type
REMARK                         _______ _______ _______ _____ _____    ______ ____
ROOT
ATOM      1  C   UNL     1       2.364  -5.329  27.340  0.00  0.00    +0.162 C 
ATOM      2  S   UNL     1       3.939  -5.565  27.789  0.00  0.00    -0.017 S 
ENDROOT
BRANCH   1   3
ATOM      3  N   UNL     1       1.472  -4.840  28.308  0.00  0.00    -0.183 N 
ATOM      4  C   UNL     1       0.264  -4.182  27.987  0.00  0.00    +0.417 C 
ATOM      5  O   UNL     1      -0.168  -3.924  26.840  0.00  0.00    -0.225 OA
BRANCH   3   6
ATOM      6  C   UNL     1       1.766  -4.997  29.746  0.00  0.00    +0.199 C 
ATOM      7  C   UNL     1       1.560  -6.444  30.151  0.00  0.00    +0.056 C 
BRANCH   6   8
ATOM      8  O   UNL     1       3.035  -4.538  30.027  0.00  0.00    -0.367 OA
ATOM      9  H   UNL     1       3.113  -3.612  29.749  0.00  0.00    +0.212 HD
ENDBRANCH   6   8
ENDBRANCH   3   6
BRANCH   4  10
ATOM     10  O   UNL     1      -0.585  -3.749  29.017  0.00  0.00    -0.402 OA
BRANCH  10  11
ATOM     11  C   UNL     1      -1.686  -2.942  28.822  0.00  0.00    +0.189 C 
ATOM     12  C   UNL     1      -2.909  -3.397  28.933  0.00  0.00    +0.049 C 
BRANCH  11  13
ATOM     13  S   UNL     1      -1.428  -1.233  28.407  0.00  0.00    +0.028 S 
BRANCH  13  14
ATOM     14  C   UNL     1      -2.711  -0.230  29.136  0.00  0.00    +0.141 C 
ATOM     15  N   UNL     1      -3.558   0.407  29.605  0.00  0.00    -0.183 NA
ENDBRANCH  13  14
ENDBRANCH  11  13
ENDBRANCH  10  11
ENDBRANCH   4  10
ENDBRANCH   1   3
BRANCH   1  16
ATOM     16  N   UNL     1       2.009  -5.653  26.034  0.00  0.00    -0.224 N 
ATOM     17  H   UNL     1       1.071  -5.507  25.772  0.00  0.00    +0.174 HD
BRANCH  16  18
ATOM     18  N   UNL     1       2.884  -6.176  25.048  0.00  0.00    -0.097 N 
BRANCH  18  19
ATOM     19  S   UNL     1       3.343  -7.828  24.952  0.00  0.00    +0.203 S 
ATOM     20  O   UNL     1       3.173  -8.545  26.239  0.00  0.00    -0.127 OA
ATOM     21  O   UNL     1       4.786  -7.900  24.475  0.00  0.00    -0.127 OA
BRANCH  19  22
ATOM     22  N   UNL     1       2.405  -8.612  23.738  0.00  0.00    +0.116 NA
ATOM     23  O   UNL     1       1.610  -7.969  23.084  0.00  0.00    -0.121 OA
ENDBRANCH  19  22
ENDBRANCH  18  19
BRANCH  18  24
ATOM     24  C   UNL     1       3.376  -5.289  24.058  0.00  0.00    +0.123 C 
ATOM     25  C   UNL     1       4.508  -4.621  24.126  0.00  0.00    +0.084 C 
BRANCH  25  26
ATOM     26  N   UNL     1       5.369  -4.729  25.226  0.00  0.00    -0.275 N 
ATOM     27  C   UNL     1       6.746  -5.115  25.029  0.00  0.00    +0.304 C 
ATOM     28  O   UNL     1       7.131  -5.344  23.872  0.00  0.00    -0.265 OA
ATOM     29  H   UNL     1       5.035  -4.542  26.133  0.00  0.00    +0.155 HD
ENDBRANCH  25  26
ENDBRANCH  18  24
ENDBRANCH  16  18
ENDBRANCH   1  16
TORSDOF 13
