REMARK  Name = =
REMARK  2 active torsions:
REMARK  status: ('A' for Active; 'I' for Inactive)
REMARK    1  A    between atoms: P_1  and  C_11
REMARK    2  A    between atoms: P_1  and  O_17
REMARK                            x       y       z     vdW  Elec       q    Type
REMARK                         _______ _______ _______ _____ _____    ______ ____
ROOT
ATOM      1  P   UNL     1     -13.878 -43.177  26.246  0.00  0.00    +0.337 P 
ATOM      2  O   UNL     1     -14.448 -44.167  27.053  0.00  0.00    -0.137 OA
ATOM      3  O   UNL     1     -15.151 -42.232  26.622  0.00  0.00    -0.289 OA
ATOM      4  C   UNL     1     -16.219 -42.568  25.835  0.00  0.00    +0.157 C 
ATOM      5  C   UNL     1     -15.851 -42.378  24.388  0.00  0.00    +0.173 C 
ATOM      6  O   UNL     1     -16.782 -41.554  23.810  0.00  0.00    -0.351 OA
ATOM      7  C   UNL     1     -17.907 -41.513  24.627  0.00  0.00    +0.145 C 
ATOM      8  C   UNL     1     -17.260 -41.461  26.017  0.00  0.00    +0.065 C 
ATOM      9  C   UNL     1     -14.487 -41.822  24.171  0.00  0.00    +0.184 C 
ATOM     10  O   UNL     1     -13.535 -42.250  25.072  0.00  0.00    -0.287 OA
ENDROOT
BRANCH   1  11
ATOM     11  C   UNL     1     -12.395 -43.096  27.122  0.00  0.00    +0.222 C 
ATOM     12  O   UNL     1     -11.960 -41.866  27.609  0.00  0.00    -0.344 OA
ATOM     13  C   UNL     1     -11.026 -41.960  28.604  0.00  0.00    +0.143 C 
ATOM     14  C   UNL     1     -10.117 -43.159  28.468  0.00  0.00    +0.032 C 
ATOM     15  C   UNL     1     -10.943 -44.441  28.578  0.00  0.00    +0.006 C 
ATOM     16  C   UNL     1     -12.380 -44.029  28.347  0.00  0.00    +0.043 C 
ENDBRANCH   1  11
BRANCH   1  17
ATOM     17  O   UNL     1     -14.066 -44.384  25.039  0.00  0.00    -0.319 OA
ATOM     18  H   UNL     1     -14.316 -45.223  25.457  0.00  0.00    +0.220 HD
ENDBRANCH   1  17
TORSDOF 2
