REMARK  Name = =
REMARK  8 active torsions:
REMARK  status: ('A' for Active; 'I' for Inactive)
REMARK    1  A    between atoms: P_1  and  C_11
REMARK    2  A    between atoms: P_1  and  O_22
REMARK    3  A    between atoms: C_11  and  C_19
REMARK    4  A    between atoms: O_22  and  C_23
REMARK    5  A    between atoms: C_23  and  O_28
REMARK    6  A    between atoms: O_28  and  C_29
REMARK    7  A    between atoms: C_29  and  O_31
REMARK    8  A    between atoms: O_31  and  C_32
REMARK                            x       y       z     vdW  Elec       q    Type
REMARK                         _______ _______ _______ _____ _____    ______ ____
ROOT
ATOM      1  P   UNL     1      -9.966 -43.244  30.213  0.00  0.00    +0.343 P 
ATOM      2  O   UNL     1      -8.946 -43.291  31.146  0.00  0.00    -0.137 OA
ATOM      3  O   UNL     1      -8.685 -42.689  29.192  0.00  0.00    -0.289 OA
ATOM      4  C   UNL     1      -8.816 -41.396  28.864  0.00  0.00    +0.157 C 
ATOM      5  C   UNL     1      -9.999 -41.026  28.014  0.00  0.00    +0.173 C 
ATOM      6  O   UNL     1      -9.630 -41.454  26.767  0.00  0.00    -0.351 OA
ATOM      7  C   UNL     1      -8.296 -41.168  26.584  0.00  0.00    +0.145 C 
ATOM      8  C   UNL     1      -7.662 -41.021  27.951  0.00  0.00    +0.065 C 
ATOM      9  C   UNL     1     -11.202 -41.680  28.589  0.00  0.00    +0.184 C 
ATOM     10  O   UNL     1     -10.838 -42.966  28.976  0.00  0.00    -0.287 OA
ENDROOT
BRANCH   1  11
ATOM     11  C   UNL     1     -10.179 -44.987  30.238  0.00  0.00    +0.204 C 
ATOM     12  O   UNL     1      -9.347 -45.538  29.258  0.00  0.00    -0.345 OA
ATOM     13  C   UNL     1      -8.166 -46.030  29.738  0.00  0.00    +0.143 C 
ATOM     14  C   UNL     1      -8.499 -47.347  30.448  0.00  0.00    +0.032 C 
ATOM     15  C   UNL     1      -9.381 -46.971  31.608  0.00  0.00    +0.006 C 
ATOM     16  C   UNL     1      -9.834 -45.557  31.613  0.00  0.00    +0.041 C 
BRANCH  11  19
ATOM     17  C   UNL     1     -12.745 -45.243  27.995  0.00  0.00    +0.146 C 
ATOM     18  N   UNL     1     -11.751 -45.651  28.581  0.00  0.00    -0.204 NA
ATOM     19  C   UNL     1     -11.564 -45.541  29.937  0.00  0.00    +0.121 C 
ATOM     20  C   UNL     1     -12.574 -44.625  30.590  0.00  0.00    +0.079 C 
ATOM     21  S   UNL     1     -13.813 -44.525  29.231  0.00  0.00    -0.120 S 
ENDBRANCH  11  19
ENDBRANCH   1  11
BRANCH   1  22
ATOM     22  O   UNL     1     -10.817 -42.231  31.091  0.00  0.00    -0.234 OA
BRANCH  22  23
ATOM     23  C   UNL     1     -10.762 -41.963  32.382  0.00  0.00    +0.351 C 
ATOM     24  C   UNL     1      -9.579 -41.242  32.929  0.00  0.00    +0.106 C 
ATOM     25  C   UNL     1      -9.401 -41.800  34.329  0.00  0.00    +0.041 C 
ATOM     26  C   UNL     1     -10.678 -42.547  34.534  0.00  0.00    +0.148 C 
ATOM     27  O   UNL     1     -10.978 -43.037  33.270  0.00  0.00    -0.303 OA
BRANCH  23  28
ATOM     28  O   UNL     1     -11.888 -41.095  32.670  0.00  0.00    -0.375 OA
BRANCH  28  29
ATOM     29  C   UNL     1     -13.183 -41.521  32.428  0.00  0.00    +0.522 C 
ATOM     30  O   UNL     1     -13.399 -42.559  31.733  0.00  0.00    -0.202 OA
BRANCH  29  31
ATOM     31  O   UNL     1     -14.305 -40.861  32.916  0.00  0.00    -0.353 OA
BRANCH  31  32
ATOM     32  C   UNL     1     -15.597 -41.286  32.655  0.00  0.00    +0.427 C 
ATOM     33  O   UNL     1     -15.772 -42.282  31.913  0.00  0.00    -0.237 OA
ENDBRANCH  31  32
ENDBRANCH  29  31
ENDBRANCH  28  29
ENDBRANCH  23  28
ENDBRANCH  22  23
ENDBRANCH   1  22
TORSDOF 8
