REMARK  Name = =
REMARK  11 active torsions:
REMARK  status: ('A' for Active; 'I' for Inactive)
REMARK    1  A    between atoms: P_1  and  C_11
REMARK    2  A    between atoms: P_1  and  O_28
REMARK    3  A    between atoms: C_11  and  C_19
REMARK    4  A    between atoms: C_17  and  C_22
REMARK    5  A    between atoms: C_22  and  S_24
REMARK    6  A    between atoms: S_24  and  N_27
REMARK    7  A    between atoms: O_28  and  C_29
REMARK    8  A    between atoms: C_29  and  O_34
REMARK    9  A    between atoms: O_34  and  C_35
REMARK   10  A    between atoms: C_35  and  O_37
REMARK   11  A    between atoms: O_37  and  C_38
REMARK                            x       y       z     vdW  Elec       q    Type
REMARK                         _______ _______ _______ _____ _____    ______ ____
ROOT
ATOM      1  P   UNL     1     -12.451 -44.060  30.547  0.00  0.00    +0.343 P 
ATOM      2  O   UNL     1     -12.663 -45.418  30.380  0.00  0.00    -0.137 OA
ATOM      3  O   UNL     1     -13.193 -44.228  31.976  0.00  0.00    -0.289 OA
ATOM      4  C   UNL     1     -12.992 -43.426  33.008  0.00  0.00    +0.157 C 
ATOM      5  C   UNL     1     -11.827 -42.480  32.911  0.00  0.00    +0.173 C 
ATOM      6  O   UNL     1     -12.052 -41.626  33.975  0.00  0.00    -0.351 OA
ATOM      7  C   UNL     1     -13.399 -41.389  34.083  0.00  0.00    +0.145 C 
ATOM      8  C   UNL     1     -14.128 -42.487  33.335  0.00  0.00    +0.065 C 
ATOM      9  C   UNL     1     -12.004 -41.806  31.572  0.00  0.00    +0.184 C 
ATOM     10  O   UNL     1     -12.495 -42.542  30.575  0.00  0.00    -0.287 OA
ENDROOT
BRANCH   1  11
ATOM     11  C   UNL     1     -10.713 -44.216  30.361  0.00  0.00    +0.210 C 
ATOM     12  O   UNL     1     -10.250 -45.116  29.407  0.00  0.00    -0.345 OA
ATOM     13  C   UNL     1      -9.080 -45.751  29.703  0.00  0.00    +0.143 C 
ATOM     14  C   UNL     1      -9.376 -46.823  30.733  0.00  0.00    +0.032 C 
ATOM     15  C   UNL     1     -10.174 -46.174  31.834  0.00  0.00    +0.006 C 
ATOM     16  C   UNL     1     -10.183 -44.667  31.733  0.00  0.00    +0.042 C 
BRANCH  11  19
ATOM     17  C   UNL     1      -8.827 -42.021  28.268  0.00  0.00    +0.120 C 
ATOM     18  N   UNL     1      -9.798 -42.684  28.691  0.00  0.00    -0.261 NA
ATOM     19  C   UNL     1      -9.924 -42.950  30.058  0.00  0.00    +0.152 C 
ATOM     20  C   UNL     1      -8.578 -42.959  30.752  0.00  0.00    +0.091 C 
ATOM     21  S   UNL     1      -7.827 -41.620  29.715  0.00  0.00    -0.092 S 
BRANCH  17  22
ATOM     22  C   UNL     1      -8.459 -41.607  26.920  0.00  0.00    +0.145 C 
ATOM     23  C   UNL     1      -9.134 -42.087  25.904  0.00  0.00    +0.023 C 
BRANCH  22  24
ATOM     24  S   UNL     1      -7.155 -40.498  26.660  0.00  0.00    +0.059 S 
ATOM     25  O   UNL     1      -5.899 -41.180  26.202  0.00  0.00    -0.153 OA
ATOM     26  O   UNL     1      -7.501 -39.461  25.623  0.00  0.00    -0.153 OA
BRANCH  24  27
ATOM     27  N   UNL     1      -6.871 -39.648  28.156  0.00  0.00    -0.203 NA
ATOM     28  H   UNL     1      -6.633 -40.318  28.888  0.00  0.00    +0.144 HD
ATOM     29  H   UNL     1      -7.713 -39.139  28.423  0.00  0.00    +0.144 HD
ENDBRANCH  24  27
ENDBRANCH  22  24
ENDBRANCH  17  22
ENDBRANCH  11  19
ENDBRANCH   1  11
BRANCH   1  30
ATOM     30  O   UNL     1     -13.369 -43.980  29.116  0.00  0.00    -0.234 OA
BRANCH  30  31
ATOM     31  C   UNL     1     -12.923 -44.712  28.096  0.00  0.00    +0.351 C 
ATOM     32  C   UNL     1     -12.016 -45.856  28.339  0.00  0.00    +0.106 C 
ATOM     33  C   UNL     1     -11.896 -46.433  26.918  0.00  0.00    +0.041 C 
ATOM     34  C   UNL     1     -13.142 -45.871  26.263  0.00  0.00    +0.148 C 
ATOM     35  O   UNL     1     -13.915 -45.300  27.291  0.00  0.00    -0.303 OA
BRANCH  31  36
ATOM     36  O   UNL     1     -12.223 -43.827  27.211  0.00  0.00    -0.375 OA
BRANCH  36  37
ATOM     37  C   UNL     1     -12.731 -42.652  26.730  0.00  0.00    +0.522 C 
ATOM     38  O   UNL     1     -12.832 -41.671  27.495  0.00  0.00    -0.202 OA
BRANCH  37  39
ATOM     39  O   UNL     1     -13.152 -42.486  25.405  0.00  0.00    -0.353 OA
BRANCH  39  40
ATOM     40  C   UNL     1     -14.477 -42.147  25.115  0.00  0.00    +0.427 C 
ATOM     41  O   UNL     1     -15.432 -42.775  25.658  0.00  0.00    -0.237 OA
ENDBRANCH  39  40
ENDBRANCH  37  39
ENDBRANCH  36  37
ENDBRANCH  31  36
ENDBRANCH  30  31
ENDBRANCH   1  30
TORSDOF 11
