REMARK  Name = =
REMARK  1 active torsions:
REMARK  status: ('A' for Active; 'I' for Inactive)
REMARK    1  A    between atoms: C_6  and  N_7
REMARK                            x       y       z     vdW  Elec       q    Type
REMARK                         _______ _______ _______ _____ _____    ______ ____
ROOT
ATOM      1  N   UNL     1     -14.632 -42.872  27.006  0.00  0.00    -0.198 NA
ATOM      2  C   UNL     1     -13.312 -43.129  26.462  0.00  0.00    +0.122 C 
ATOM      3  C   UNL     1     -13.332 -44.252  25.440  0.00  0.00    +0.161 C 
ATOM      4  O   UNL     1     -14.094 -43.925  24.320  0.00  0.00    -0.349 OA
ATOM      5  C   UNL     1     -15.033 -42.926  24.615  0.00  0.00    +0.176 C 
ATOM      6  C   UNL     1     -15.580 -43.238  25.981  0.00  0.00    +0.162 C 
ENDROOT
BRANCH   6   7
ATOM      7  N   UNL     1     -16.862 -42.658  26.118  0.00  0.00    -0.254 NA
ATOM      8  C   UNL     1     -17.014 -41.791  27.271  0.00  0.00    +0.106 C 
ATOM      9  C   UNL     1     -18.489 -41.895  27.649  0.00  0.00    +0.160 C 
ATOM     10  O   UNL     1     -19.234 -41.765  26.475  0.00  0.00    -0.351 OA
ATOM     11  C   UNL     1     -18.526 -41.100  25.473  0.00  0.00    +0.160 C 
ATOM     12  C   UNL     1     -17.356 -41.946  24.977  0.00  0.00    +0.106 C 
ENDBRANCH   6   7
TORSDOF 1
