REMARK  Name = =
REMARK  4 active torsions:
REMARK  status: ('A' for Active; 'I' for Inactive)
REMARK    1  A    between atoms: N_1  and  C_12
REMARK    2  A    between atoms: N_7  and  C_14
REMARK    3  A    between atoms: C_24  and  N_25
REMARK    4  A    between atoms: N_25  and  N_26
REMARK                            x       y       z     vdW  Elec       q    Type
REMARK                         _______ _______ _______ _____ _____    ______ ____
ROOT
ATOM      1  N   UNL     1     -16.277 -42.376  25.908  0.00  0.00    -0.233 NA
ATOM      2  C   UNL     1     -17.709 -42.597  25.997  0.00  0.00    +0.108 C 
ATOM      3  C   UNL     1     -18.371 -41.774  27.061  0.00  0.00    +0.160 C 
ATOM      4  O   UNL     1     -17.757 -42.092  28.277  0.00  0.00    -0.349 OA
ATOM      5  C   UNL     1     -16.484 -41.513  28.230  0.00  0.00    +0.175 C 
ATOM      6  C   UNL     1     -15.640 -42.045  27.137  0.00  0.00    +0.151 C 
ENDROOT
BRANCH   6   7
ATOM      7  N   UNL     1     -14.682 -43.058  27.489  0.00  0.00    -0.255 NA
ATOM      8  C   UNL     1     -13.341 -42.658  27.413  0.00  0.00    +0.106 C 
ATOM      9  C   UNL     1     -12.528 -42.632  28.664  0.00  0.00    +0.160 C 
ATOM     10  O   UNL     1     -12.877 -43.641  29.503  0.00  0.00    -0.351 OA
ATOM     11  C   UNL     1     -14.215 -43.623  29.814  0.00  0.00    +0.160 C 
ATOM     12  C   UNL     1     -15.059 -43.902  28.574  0.00  0.00    +0.106 C 
ENDBRANCH   6   7
BRANCH   1  14
ATOM     13  O   UNL     1     -14.759 -41.473  24.279  0.00  0.00    -0.314 OA
ATOM     14  C   UNL     1     -16.044 -41.378  24.876  0.00  0.00    +0.199 C 
ATOM     15  C   UNL     1     -16.608 -41.814  23.562  0.00  0.00    +0.111 C 
ATOM     16  C   UNL     1     -15.360 -41.180  23.064  0.00  0.00    +0.260 C 
ATOM     17  O   UNL     1     -15.034 -40.629  22.000  0.00  0.00    -0.191 OA
ENDBRANCH   1  14
TORSDOF 2
REMARK  Name = =
REMARK  4 active torsions:
REMARK  status: ('A' for Active; 'I' for Inactive)
REMARK    1  A    between atoms: N_1  and  C_12
REMARK    2  A    between atoms: N_7  and  C_14
REMARK    3  A    between atoms: C_24  and  N_25
REMARK    4  A    between atoms: N_25  and  N_26
REMARK                            x       y       z     vdW  Elec       q    Type
REMARK                         _______ _______ _______ _____ _____    ______ ____
ROOT
ATOM      1  I   UNL     1     -10.489 -42.785  28.026  0.00  0.00    -0.107 I 
ATOM      2  H   UNL     1      -8.928 -42.785  28.026  0.00  0.00    +0.107 HD
ENDROOT
TORSDOF 0
REMARK  Name = =
REMARK  4 active torsions:
REMARK  status: ('A' for Active; 'I' for Inactive)
REMARK    1  A    between atoms: N_1  and  C_12
REMARK    2  A    between atoms: N_7  and  C_14
REMARK    3  A    between atoms: C_24  and  N_25
REMARK    4  A    between atoms: N_25  and  N_26
REMARK                            x       y       z     vdW  Elec       q    Type
REMARK                         _______ _______ _______ _____ _____    ______ ____
ROOT
ATOM      1  C   UNL     1      -9.303 -43.204  29.673  0.00  0.00    +0.016 C 
ATOM      2  C   UNL     1      -8.265 -42.345  29.966  0.00  0.00    +0.001 C 
ATOM      3  C   UNL     1      -7.449 -42.582  31.043  0.00  0.00    +0.000 C 
ATOM      4  C   UNL     1      -7.670 -43.679  31.831  0.00  0.00    +0.001 C 
ATOM      5  C   UNL     1      -8.715 -44.532  31.528  0.00  0.00    +0.016 C 
ATOM      6  C   UNL     1      -9.559 -44.329  30.452  0.00  0.00    +0.058 C 
ENDROOT
BRANCH   6   7
ATOM      7  N   UNL     1     -10.610 -45.241  30.167  0.00  0.00    -0.282 N 
ATOM      8  H   UNL     1     -11.158 -45.131  29.356  0.00  0.00    +0.166 HD
BRANCH   7   9
ATOM      9  N   UNL     1     -10.859 -46.296  31.048  0.00  0.00    -0.256 NA
ATOM     10  H   UNL     1     -10.200 -46.253  31.825  0.00  0.00    +0.140 HD
ATOM     11  H   UNL     1     -10.748 -47.183  30.557  0.00  0.00    +0.140 HD
ENDBRANCH   7   9
ENDBRANCH   6   7
TORSDOF 2
