REMARK  Name = =
REMARK  0 active torsions:
REMARK  status: ('A' for Active; 'I' for Inactive)
REMARK                            x       y       z     vdW  Elec       q    Type
REMARK                         _______ _______ _______ _____ _____    ______ ____
ROOT
ATOM      1  N   UNL     1     -13.626 -42.384  27.348  0.00  0.00    -0.216 N 
ATOM      2  N   UNL     1     -12.449 -42.171  27.911  0.00  0.00    -0.157 NA
ATOM      3  C   UNL     1     -11.929 -43.358  28.337  0.00  0.00    +0.218 C 
ATOM      4  N   UNL     1     -12.817 -44.294  28.018  0.00  0.00    -0.203 NA
ATOM      5  C   UNL     1     -13.867 -43.702  27.407  0.00  0.00    +0.182 C 
ATOM      6  H   UNL     1     -14.217 -41.701  26.957  0.00  0.00    +0.176 HD
ENDROOT
TORSDOF 0
