REMARK  Name = =
REMARK  4 active torsions:
REMARK  status: ('A' for Active; 'I' for Inactive)
REMARK    1  A    between atoms: C_1  and  N_10
REMARK    2  A    between atoms: C_1  and  S_16
REMARK    3  A    between atoms: C_8  and  O_15
REMARK    4  A    between atoms: S_16  and  C_17
REMARK                            x       y       z     vdW  Elec       q    Type
REMARK                         _______ _______ _______ _____ _____    ______ ____
ROOT
ATOM      1  C   UNL     1     -15.165 -42.391  26.614  0.00  0.00    +0.188 C 
ATOM      2  C   UNL     1     -16.069 -42.183  25.440  0.00  0.00    +0.046 C 
ATOM      3  C   UNL     1     -15.267 -41.579  24.488  0.00  0.00    +0.137 C 
ATOM      4  O   UNL     1     -13.963 -41.402  25.012  0.00  0.00    -0.473 OA
ATOM      5  C   UNL     1     -14.199 -41.244  26.433  0.00  0.00    +0.240 C 
ATOM      6  C   UNL     1     -15.825 -41.264  23.269  0.00  0.00    +0.040 C 
ATOM      7  C   UNL     1     -17.152 -41.539  22.993  0.00  0.00    +0.040 C 
ATOM      8  C   UNL     1     -17.927 -42.142  23.963  0.00  0.00    +0.134 C 
ATOM      9  C   UNL     1     -17.400 -42.476  25.207  0.00  0.00    +0.038 C 
ENDROOT
BRANCH   1  10
ATOM     10  N   UNL     1     -14.420 -43.623  26.310  0.00  0.00    -0.177 N 
ATOM     11  N   UNL     1     -14.272 -44.091  25.097  0.00  0.00    -0.153 NA
ATOM     12  C   UNL     1     -13.537 -45.216  25.224  0.00  0.00    +0.219 C 
ATOM     13  N   UNL     1     -13.233 -45.441  26.500  0.00  0.00    -0.203 NA
ATOM     14  C   UNL     1     -13.798 -44.423  27.189  0.00  0.00    +0.187 C 
ENDBRANCH   1  10
BRANCH   8  15
ATOM     15  O   UNL     1     -19.265 -42.444  23.748  0.00  0.00    -0.506 OA
ATOM     16  H   UNL     1     -19.665 -42.238  22.926  0.00  0.00    +0.292 HD
ENDBRANCH   8  15
BRANCH   1  17
ATOM     17  S   UNL     1     -15.972 -42.467  28.185  0.00  0.00    -0.048 S 
BRANCH  17  18
ATOM     18  C   UNL     1     -14.786 -42.874  29.456  0.00  0.00    +0.209 A 
ATOM     19  N   UNL     1     -15.063 -43.030  30.770  0.00  0.00    -0.234 N 
ATOM     20  N   UNL     1     -13.913 -43.300  31.351  0.00  0.00    -0.046 NA
ATOM     21  N   UNL     1     -12.943 -43.317  30.455  0.00  0.00    -0.022 NA
ATOM     22  N   UNL     1     -13.466 -43.055  29.274  0.00  0.00    -0.102 NA
ATOM     23  H   UNL     1     -15.944 -42.957  31.203  0.00  0.00    +0.193 HD
ENDBRANCH  17  18
ENDBRANCH   1  17
TORSDOF 4
