MODEL 1
REMARK VINA RESULT:    -6.967      0.000      0.000
REMARK INTER + INTRA:          -9.368
REMARK INTER:                  -8.596
REMARK INTRA:                  -0.772
REMARK UNBOUND:                -0.772
REMARK  Name = =
REMARK  5 active torsions:
REMARK  status: ('A' for Active; 'I' for Inactive)
REMARK    1  A    between atoms: C_1  and  N_15
REMARK    2  A    between atoms: C_12  and  O_33
REMARK    3  A    between atoms: O_33  and  P_34
REMARK    4  A    between atoms: P_34  and  N_36
REMARK    5  A    between atoms: P_34  and  S_37
REMARK                            x       y       z     vdW  Elec       q    Type
REMARK                         _______ _______ _______ _____ _____    ______ ____
ROOT
ATOM      1  C   UNL     1      62.621 163.821  38.054  0.00  0.00    +0.051 A 
ATOM      2  C   UNL     1      61.712 162.853  38.428  0.00  0.00    +0.031 A 
ATOM      3  C   UNL     1      62.120 161.661  39.027  0.00  0.00    +0.085 A 
ATOM      4  N   UNL     1      63.437 161.458  39.240  0.00  0.00    -0.245 NA
ATOM      5  C   UNL     1      64.364 162.364  38.895  0.00  0.00    +0.082 A 
ATOM      6  C   UNL     1      63.953 163.550  38.300  0.00  0.00    +0.031 A 
ATOM      7  C   UNL     1      64.940 164.453  37.963  0.00  0.00    +0.003 C 
ATOM      8  C   UNL     1      66.284 164.234  38.185  0.00  0.00    +0.000 C 
ATOM      9  C   UNL     1      66.684 163.053  38.777  0.00  0.00    +0.002 C 
ATOM     10  C   UNL     1      65.702 162.128  39.128  0.00  0.00    +0.019 C 
ATOM     11  C   UNL     1      61.190 160.718  39.388  0.00  0.00    +0.056 C 
ATOM     12  C   UNL     1      59.865 160.954  39.158  0.00  0.00    +0.148 C 
ATOM     13  C   UNL     1      59.465 162.144  38.559  0.00  0.00    +0.037 C 
ATOM     14  C   UNL     1      60.384 163.098  38.193  0.00  0.00    +0.006 C 
ENDROOT
BRANCH   1  15
ATOM     15  N   UNL     1      62.234 164.990  37.469  0.00  0.00    -0.309 N 
ATOM     16  C   UNL     1      61.923 164.984  36.082  0.00  0.00    +0.077 C 
ATOM     17  C   UNL     1      60.921 166.028  35.692  0.00  0.00    +0.026 C 
ATOM     18  C   UNL     1      61.389 167.332  36.133  0.00  0.00    +0.061 C 
ATOM     19  C   UNL     1      60.615 168.574  35.797  0.00  0.00    +0.170 C 
ATOM     20  O   UNL     1      61.644 169.589  35.656  0.00  0.00    -0.479 OA
ATOM     21  C   UNL     1      62.738 168.919  35.053  0.00  0.00    +0.134 C 
ATOM     22  C   UNL     1      62.611 167.582  35.297  0.00  0.00    +0.011 C 
ATOM     23  C   UNL     1      63.424 166.565  34.905  0.00  0.00    -0.021 C 
ATOM     24  C   UNL     1      64.524 166.961  34.162  0.00  0.00    -0.004 C 
ATOM     25  C   UNL     1      64.751 168.310  33.855  0.00  0.00    +0.003 C 
ATOM     26  C   UNL     1      63.846 169.273  34.311  0.00  0.00    +0.037 C 
ATOM     27  C   UNL     1      63.140 165.147  35.209  0.00  0.00    +0.046 C 
ATOM     28  C   UNL     1      59.835 168.432  34.524  0.00  0.00    +0.044 C 
ATOM     29  C   UNL     1      60.292 167.257  33.699  0.00  0.00    +0.004 C 
ATOM     30  C   UNL     1      60.226 165.945  34.438  0.00  0.00    +0.002 C 
ATOM     31  C   UNL     1      61.817 167.402  37.579  0.00  0.00    +0.029 C 
ATOM     32  C   UNL     1      61.713 166.033  38.247  0.00  0.00    +0.091 C 
ENDBRANCH   1  15
BRANCH  12  33
ATOM     33  O   UNL     1      58.922 160.029  39.508  0.00  0.00    -0.424 OA
BRANCH  33  34
ATOM     34  P   UNL     1      58.862 159.432  41.118  0.00  0.00    +0.371 P 
ATOM     35  O   UNL     1      57.454 159.053  41.478  0.00  0.00    -0.247 OA
BRANCH  34  36
ATOM     36  N   UNL     1      59.906 158.038  41.265  0.00  0.00    -0.241 NA
ATOM     37  H   UNL     1      60.008 157.792  42.250  0.00  0.00    +0.129 HD
ATOM     38  H   UNL     1      60.822 158.257  40.873  0.00  0.00    +0.129 HD
ENDBRANCH  34  36
BRANCH  34  39
ATOM     39  S   UNL     1      59.556 160.914  42.479  0.00  0.00    -0.059 S 
ATOM     40  H   UNL     1      59.485 162.139  41.890  0.00  0.00    +0.114 HD
ENDBRANCH  34  39
ENDBRANCH  33  34
ENDBRANCH  12  33
TORSDOF 5
ENDMDL
