MODEL 1
REMARK VINA RESULT:    -6.971      0.000      0.000
REMARK INTER + INTRA:          -7.779
REMARK INTER:                  -8.193
REMARK INTRA:                   0.414
REMARK UNBOUND:                 0.414
REMARK  Name = =
REMARK  3 active torsions:
REMARK  status: ('A' for Active; 'I' for Inactive)
REMARK    1  A    between atoms: C_1  and  C_12
REMARK    2  A    between atoms: C_8  and  C_22
REMARK    3  A    between atoms: C_12  and  C_17
REMARK                            x       y       z     vdW  Elec       q    Type
REMARK                         _______ _______ _______ _____ _____    ______ ____
ROOT
ATOM      1  C   UNL     1      49.425 163.803  41.907  0.00  0.00    +0.072 C 
ATOM      2  C   UNL     1      48.476 164.175  43.033  0.00  0.00    +0.061 C 
ATOM      3  C   UNL     1      47.081 163.645  42.654  0.00  0.00    +0.207 C 
ATOM      4  O   UNL     1      47.190 162.469  41.826  0.00  0.00    -0.476 OA
ATOM      5  C   UNL     1      48.366 161.678  41.962  0.00  0.00    +0.135 C 
ATOM      6  C   UNL     1      49.576 162.361  42.014  0.00  0.00    +0.021 C 
ATOM      7  C   UNL     1      50.728 161.647  42.148  0.00  0.00    +0.010 C 
ATOM      8  C   UNL     1      50.646 160.254  42.226  0.00  0.00    +0.068 C 
ATOM      9  C   UNL     1      49.458 159.577  42.175  0.00  0.00    +0.013 C 
ATOM     10  C   UNL     1      48.300 160.307  42.040  0.00  0.00    +0.037 C 
ATOM     11  I   UNL     1      48.142 164.099  40.157  0.00  0.00    -0.071 I 
ENDROOT
BRANCH   1  12
ATOM     12  C   UNL     1      50.550 164.698  41.651  0.00  0.00    +0.041 C 
ATOM     13  C   UNL     1      50.807 164.776  40.165  0.00  0.00    +0.004 C 
ATOM     14  C   UNL     1      52.190 165.372  40.065  0.00  0.00    +0.000 C 
ATOM     15  C   UNL     1      52.901 164.590  41.151  0.00  0.00    +0.000 C 
ATOM     16  C   UNL     1      51.870 164.442  42.250  0.00  0.00    +0.004 C 
BRANCH  12  17
ATOM     17  C   UNL     1      50.094 166.097  42.032  0.00  0.00    +0.130 C 
ATOM     18  N   UNL     1      50.747 166.857  42.821  0.00  0.00    -0.202 NA
ATOM     19  C   UNL     1      50.118 168.141  43.034  0.00  0.00    +0.107 C 
ATOM     20  C   UNL     1      49.096 168.216  41.911  0.00  0.00    +0.089 C 
ATOM     21  N   UNL     1      48.940 166.798  41.611  0.00  0.00    -0.284 NA
ATOM     22  H   UNL     1      48.123 166.435  42.103  0.00  0.00    +0.125 HD
ENDBRANCH  12  17
ENDBRANCH   1  12
BRANCH   8  23
ATOM     23  C   UNL     1      51.894 159.533  42.368  0.00  0.00    +0.100 C 
ATOM     24  N   UNL     1      52.907 158.968  42.470  0.00  0.00    -0.191 NA
ENDBRANCH   8  23
TORSDOF 3
ENDMDL
