MODEL 1
REMARK VINA RESULT:   -11.009      0.000      0.000
REMARK INTER + INTRA:         -10.134
REMARK INTER:                 -11.652
REMARK INTRA:                   1.518
REMARK UNBOUND:                 1.518
REMARK  Name = =
REMARK  1 active torsions:
REMARK  status: ('A' for Active; 'I' for Inactive)
REMARK    1  A    between atoms: N_1  and  N_31
REMARK                            x       y       z     vdW  Elec       q    Type
REMARK                         _______ _______ _______ _____ _____    ______ ____
ROOT
ATOM      1  N   UNL     1       0.419  -6.326  29.370  0.00  0.00    -0.210 N 
ATOM      2  C   UNL     1       1.424  -7.033  28.564  0.00  0.00    +0.196 C 
ATOM      3  C   UNL     1       0.685  -8.079  27.790  0.00  0.00    +0.244 C 
ATOM      4  O   UNL     1      -0.572  -8.065  27.674  0.00  0.00    -0.273 OA
ATOM      5  N   UNL     1       1.378  -9.148  27.144  0.00  0.00    -0.303 N 
ATOM      6  C   UNL     1       2.741  -9.488  27.499  0.00  0.00    +0.090 C 
ATOM      7  C   UNL     1       3.146 -10.753  26.813  0.00  0.00    +0.031 C 
ATOM      8  C   UNL     1       4.334 -10.541  25.903  0.00  0.00    +0.087 C 
ATOM      9  C   UNL     1       3.943 -10.254  24.505  0.00  0.00    +0.223 C 
ATOM     10  O   UNL     1       3.016 -10.976  24.012  0.00  0.00    -0.275 OA
ATOM     11  N   UNL     1       4.530  -9.244  23.696  0.00  0.00    -0.297 N 
ATOM     12  C   UNL     1       4.779  -7.884  24.119  0.00  0.00    +0.176 C 
ATOM     13  C   UNL     1       6.237  -7.607  24.192  0.00  0.00    +0.243 C 
ATOM     14  O   UNL     1       7.059  -8.587  24.172  0.00  0.00    -0.273 OA
ATOM     15  N   UNL     1       6.746  -6.301  24.283  0.00  0.00    -0.295 N 
ATOM     16  C   UNL     1       6.263  -5.164  23.529  0.00  0.00    +0.176 C 
ATOM     17  C   UNL     1       6.721  -3.902  24.129  0.00  0.00    +0.243 C 
ATOM     18  O   UNL     1       7.986  -3.781  24.277  0.00  0.00    -0.273 OA
ATOM     19  N   UNL     1       5.890  -2.836  24.547  0.00  0.00    -0.295 N 
ATOM     20  C   UNL     1       4.634  -3.002  25.248  0.00  0.00    +0.176 C 
ATOM     21  C   UNL     1       3.971  -1.697  25.396  0.00  0.00    +0.243 C 
ATOM     22  O   UNL     1       4.371  -0.688  24.723  0.00  0.00    -0.273 OA
ATOM     23  N   UNL     1       2.878  -1.453  26.263  0.00  0.00    -0.295 N 
ATOM     24  C   UNL     1       2.308  -2.493  27.107  0.00  0.00    +0.176 C 
ATOM     25  C   UNL     1       1.929  -1.894  28.405  0.00  0.00    +0.243 C 
ATOM     26  O   UNL     1       2.112  -0.677  28.647  0.00  0.00    -0.273 OA
ATOM     27  N   UNL     1       1.337  -2.723  29.423  0.00  0.00    -0.295 N 
ATOM     28  C   UNL     1       1.654  -4.104  29.572  0.00  0.00    +0.177 C 
ATOM     29  C   UNL     1       0.422  -4.920  29.413  0.00  0.00    +0.259 C 
ATOM     30  O   UNL     1      -0.723  -4.358  29.306  0.00  0.00    -0.272 OA
ATOM     31  H   UNL     1       0.919  -9.665  26.443  0.00  0.00    +0.149 HD
ATOM     32  H   UNL     1       4.786  -9.488  22.777  0.00  0.00    +0.150 HD
ATOM     33  H   UNL     1       7.490  -6.146  24.910  0.00  0.00    +0.150 HD
ATOM     34  H   UNL     1       6.185  -1.918  24.347  0.00  0.00    +0.150 HD
ATOM     35  H   UNL     1       2.490  -0.549  26.297  0.00  0.00    +0.150 HD
ATOM     36  H   UNL     1       0.686  -2.318  30.041  0.00  0.00    +0.150 HD
ENDROOT
BRANCH   1  37
ATOM     37  N   UNL     1      -0.465  -7.120  30.043  0.00  0.00    -0.201 NA
ATOM     38  C   UNL     1      -0.187  -7.188  31.431  0.00  0.00    +0.097 C 
ATOM     39  C   UNL     1      -1.141  -7.967  32.268  0.00  0.00    +0.045 C 
ATOM     40  C   UNL     1      -2.285  -7.048  32.578  0.00  0.00    -0.025 C 
ATOM     41  C   UNL     1      -2.949  -6.253  31.670  0.00  0.00    -0.025 C 
ATOM     42  C   UNL     1      -3.995  -5.448  32.122  0.00  0.00    -0.005 C 
ATOM     43  C   UNL     1      -4.313  -5.488  33.455  0.00  0.00    -0.000 C 
ATOM     44  C   UNL     1      -3.655  -6.282  34.379  0.00  0.00    -0.000 C 
ATOM     45  C   UNL     1      -2.616  -7.077  33.915  0.00  0.00    -0.005 C 
ATOM     46  C   UNL     1      -2.717  -6.097  30.204  0.00  0.00    +0.045 C 
ATOM     47  C   UNL     1      -1.809  -7.191  29.691  0.00  0.00    +0.097 C 
ENDBRANCH   1  37
TORSDOF 1
ENDMDL
