MODEL 1
REMARK VINA RESULT:    -8.103      0.000      0.000
REMARK INTER + INTRA:          -9.794
REMARK INTER:                 -11.418
REMARK INTRA:                   1.624
REMARK UNBOUND:                 1.624
REMARK  Name = =
REMARK  8 active torsions:
REMARK  status: ('A' for Active; 'I' for Inactive)
REMARK    1  A    between atoms: C_1  and  C_35
REMARK    2  A    between atoms: C_2  and  C_11
REMARK    3  A    between atoms: C_8  and  C_30
REMARK    4  A    between atoms: C_11  and  C_25
REMARK    5  A    between atoms: C_12  and  C_17
REMARK    6  A    between atoms: C_20  and  O_24
REMARK    7  A    between atoms: C_30  and  C_32
REMARK    8  A    between atoms: C_35  and  O_37
REMARK                            x       y       z     vdW  Elec       q    Type
REMARK                         _______ _______ _______ _____ _____    ______ ____
ROOT
ATOM      1  C   UNL     1     -10.652   1.838  29.896  0.00  0.00    +0.072 C 
ATOM      2  C   UNL     1     -10.493   0.470  29.755  0.00  0.00    -0.011 C 
ATOM      3  C   UNL     1      -9.401  -0.150  30.408  0.00  0.00    -0.004 C 
ATOM      4  C   UNL     1      -8.487   0.592  31.165  0.00  0.00    -0.000 C 
ATOM      5  C   UNL     1      -8.648   1.949  31.286  0.00  0.00    +0.000 C 
ATOM      6  C   UNL     1      -9.690   2.557  30.680  0.00  0.00    +0.006 C 
ATOM      7  C   UNL     1      -7.448  -0.031  31.846  0.00  0.00    +0.003 C 
ATOM      8  C   UNL     1      -7.250  -1.384  31.831  0.00  0.00    +0.044 C 
ATOM      9  C   UNL     1      -8.176  -2.114  31.077  0.00  0.00    +0.003 C 
ATOM     10  C   UNL     1      -9.214  -1.505  30.394  0.00  0.00    -0.000 C 
ENDROOT
BRANCH   2  11
ATOM     11  C   UNL     1     -11.358  -0.284  28.849  0.00  0.00    +0.082 C 
ATOM     12  C   UNL     1     -11.596  -1.635  29.598  0.00  0.00    +0.088 C 
ATOM     13  C   UNL     1     -12.353  -2.295  28.427  0.00  0.00    +0.155 C 
ATOM     14  O   UNL     1     -12.108  -3.233  27.758  0.00  0.00    -0.296 OA
ATOM     15  C   UNL     1     -13.507  -1.391  28.386  0.00  0.00    +0.065 C 
ATOM     16  C   UNL     1     -12.789  -0.036  28.667  0.00  0.00    +0.017 C 
BRANCH  12  17
ATOM     17  C   UNL     1     -12.536  -1.682  30.685  0.00  0.00    -0.014 C 
ATOM     18  C   UNL     1     -13.521  -0.832  31.062  0.00  0.00    +0.006 C 
ATOM     19  C   UNL     1     -14.320  -1.065  32.156  0.00  0.00    +0.068 C 
ATOM     20  C   UNL     1     -14.165  -2.183  32.942  0.00  0.00    +0.140 C 
ATOM     21  C   UNL     1     -13.178  -3.080  32.601  0.00  0.00    +0.037 C 
ATOM     22  C   UNL     1     -12.399  -2.824  31.509  0.00  0.00    -0.001 C 
ATOM     23 BR   UNL     1     -15.709   0.168  32.659  0.00  0.00    -0.046 Br
BRANCH  20  24
ATOM     24  O   UNL     1     -14.977  -2.419  34.053  0.00  0.00    -0.505 OA
ATOM     25  H   UNL     1     -14.659  -2.231  34.914  0.00  0.00    +0.292 HD
ENDBRANCH  20  24
ENDBRANCH  12  17
BRANCH  11  26
ATOM     26  C   UNL     1     -10.772  -0.782  27.561  0.00  0.00    +0.240 C 
ATOM     27  O   UNL     1      -9.461  -0.513  27.337  0.00  0.00    -0.328 OA
ATOM     28  C   UNL     1      -9.293  -0.870  25.996  0.00  0.00    +0.177 C 
ATOM     29  C   UNL     1     -10.554  -0.242  25.394  0.00  0.00    +0.177 C 
ATOM     30  O   UNL     1     -11.310   0.104  26.508  0.00  0.00    -0.328 OA
ENDBRANCH  11  26
ENDBRANCH   2  11
BRANCH   8  31
ATOM     31  C   UNL     1      -6.180  -2.058  32.527  0.00  0.00    +0.248 C 
ATOM     32  O   UNL     1      -6.433  -2.598  33.655  0.00  0.00    -0.282 OA
BRANCH  31  33
ATOM     33  C   UNL     1      -4.825  -2.182  32.062  0.00  0.00    +0.282 C 
ATOM     34  O   UNL     1      -4.381  -1.710  30.980  0.00  0.00    -0.267 OA
ATOM     35  N   UNL     1      -3.831  -2.890  32.845  0.00  0.00    -0.323 N 
ATOM     36  H   UNL     1      -4.080  -3.295  33.707  0.00  0.00    +0.145 HD
ATOM     37  H   UNL     1      -2.907  -2.966  32.515  0.00  0.00    +0.145 HD
ENDBRANCH  31  33
ENDBRANCH   8  31
BRANCH   1  38
ATOM     38  C   UNL     1     -11.769   2.658  29.517  0.00  0.00    +0.338 C 
ATOM     39  O   UNL     1     -12.660   2.848  30.379  0.00  0.00    -0.245 OA
BRANCH  38  40
ATOM     40  O   UNL     1     -11.966   3.233  28.331  0.00  0.00    -0.477 OA
ATOM     41  H   UNL     1     -12.083   2.702  27.567  0.00  0.00    +0.295 HD
ENDBRANCH  38  40
ENDBRANCH   1  38
TORSDOF 8
ENDMDL
