REMARK  Name = =
REMARK  5 active torsions:
REMARK  status: ('A' for Active; 'I' for Inactive)
REMARK    1  A    between atoms: C_1  and  C_14
REMARK    2  A    between atoms: C_2  and  O_13
REMARK    3  A    between atoms: C_14  and  N_15
REMARK    4  A    between atoms: N_15  and  O_16
REMARK    5  A    between atoms: O_16  and  C_17
REMARK                            x       y       z     vdW  Elec       q    Type
REMARK                         _______ _______ _______ _____ _____    ______ ____
ROOT
ATOM      1  C   UNL     1     -10.750 -42.682  29.924  0.00  0.00    +0.073 C 
ATOM      2  C   UNL     1      -9.486 -43.005  29.772  0.00  0.00    +0.173 C 
ATOM      3  C   UNL     1      -8.538 -42.972  30.881  0.00  0.00    +0.229 C 
ATOM      4  O   UNL     1      -7.317 -43.286  30.721  0.00  0.00    -0.283 OA
ATOM      5  C   UNL     1      -9.010 -42.563  32.219  0.00  0.00    +0.045 C 
ATOM      6  C   UNL     1     -10.333 -42.221  32.399  0.00  0.00    +0.042 C 
ATOM      7  C   UNL     1     -10.809 -41.836  33.632  0.00  0.00    +0.003 C 
ATOM      8  C   UNL     1      -9.927 -41.798  34.693  0.00  0.00    +0.000 C 
ATOM      9  C   UNL     1      -8.591 -42.142  34.522  0.00  0.00    +0.000 C 
ATOM     10  C   UNL     1      -8.133 -42.525  33.282  0.00  0.00    +0.003 C 
ATOM     11  C   UNL     1     -11.229 -42.277  31.237  0.00  0.00    +0.196 C 
ATOM     12  O   UNL     1     -12.429 -41.957  31.449  0.00  0.00    -0.287 OA
ENDROOT
BRANCH   2  13
ATOM     13  O   UNL     1      -9.021 -43.394  28.508  0.00  0.00    -0.503 OA
ATOM     14  H   UNL     1      -9.611 -43.423  27.780  0.00  0.00    +0.292 HD
ENDBRANCH   2  13
BRANCH   1  15
ATOM     15  C   UNL     1     -11.663 -42.735  28.761  0.00  0.00    +0.142 C 
BRANCH  15  16
ATOM     16  N   UNL     1     -12.695 -43.720  29.003  0.00  0.00    -0.140 NA
ATOM     17  H   UNL     1     -13.439 -43.283  29.547  0.00  0.00    +0.168 HD
BRANCH  16  18
ATOM     18  O   UNL     1     -13.231 -44.220  27.865  0.00  0.00    -0.404 OA
BRANCH  18  19
ATOM     19  C   UNL     1     -14.119 -43.585  27.042  0.00  0.00    +0.168 C 
ATOM     20  C   UNL     1     -15.145 -42.866  27.616  0.00  0.00    +0.060 C 
ATOM     21  C   UNL     1     -16.071 -42.205  26.838  0.00  0.00    +0.102 C 
ATOM     22  N   UNL     1     -15.967 -42.267  25.485  0.00  0.00    -0.242 NA
ATOM     23  C   UNL     1     -14.984 -42.955  24.885  0.00  0.00    +0.102 C 
ATOM     24  C   UNL     1     -14.046 -43.624  25.650  0.00  0.00    +0.060 C 
ENDBRANCH  18  19
ENDBRANCH  16  18
ENDBRANCH  15  16
ENDBRANCH   1  15
TORSDOF 5
