REMARK  Name = =
REMARK  8 active torsions:
REMARK  status: ('A' for Active; 'I' for Inactive)
REMARK    1  A    between atoms: P_1  and  O_3
REMARK    2  A    between atoms: P_1  and  O_4
REMARK    3  A    between atoms: P_1  and  O_13
REMARK    4  A    between atoms: O_4  and  C_5
REMARK    5  A    between atoms: C_6  and  C_7
REMARK    6  A    between atoms: O_13  and  P_14
REMARK    7  A    between atoms: P_14  and  O_16
REMARK    8  A    between atoms: P_14  and  O_17
REMARK                            x       y       z     vdW  Elec       q    Type
REMARK                         _______ _______ _______ _____ _____    ______ ____
ROOT
ATOM      1  P   UNL     1     -12.491 -43.448  30.060  0.00  0.00    +0.539 P 
ATOM      2  O   UNL     1     -13.960 -43.620  29.709  0.00  0.00    -0.215 OA
ENDROOT
BRANCH   1   3
ATOM      3  O   UNL     1     -12.298 -42.304  31.290  0.00  0.00    -0.293 OA
ATOM      4  H   UNL     1     -12.756 -42.608  32.089  0.00  0.00    +0.223 HD
ENDBRANCH   1   3
BRANCH   1   5
ATOM      5  O   UNL     1     -11.674 -42.876  28.682  0.00  0.00    -0.399 OA
BRANCH   5   6
ATOM      6  C   UNL     1     -12.314 -42.959  27.462  0.00  0.00    +0.183 C 
ATOM      7  C   UNL     1     -13.605 -42.761  27.334  0.00  0.00    +0.041 C 
BRANCH   7   8
ATOM      8  C   UNL     1     -14.331 -42.835  26.080  0.00  0.00    +0.003 C 
ATOM      9  C   UNL     1     -14.027 -43.695  25.055  0.00  0.00    +0.000 C 
ATOM     10  C   UNL     1     -14.760 -43.719  23.872  0.00  0.00    +0.000 C 
ATOM     11  C   UNL     1     -15.829 -42.869  23.696  0.00  0.00    +0.000 C 
ATOM     12  C   UNL     1     -16.160 -41.994  24.707  0.00  0.00    +0.000 C 
ATOM     13  C   UNL     1     -15.416 -41.992  25.865  0.00  0.00    +0.000 C 
ENDBRANCH   7   8
ENDBRANCH   5   6
ENDBRANCH   1   5
BRANCH   1  14
ATOM     14  O   UNL     1     -11.925 -44.926  30.601  0.00  0.00    -0.176 OA
BRANCH  14  15
ATOM     15  P   UNL     1     -10.312 -45.199  30.254  0.00  0.00    +0.482 P 
ATOM     16  O   UNL     1      -9.457 -43.968  30.428  0.00  0.00    -0.227 OA
BRANCH  15  17
ATOM     17  O   UNL     1      -9.758 -46.403  31.311  0.00  0.00    -0.302 OA
ATOM     18  H   UNL     1      -9.820 -46.084  32.225  0.00  0.00    +0.222 HD
ENDBRANCH  15  17
BRANCH  15  19
ATOM     19  O   UNL     1     -10.182 -45.808  28.670  0.00  0.00    -0.302 OA
ATOM     20  H   UNL     1     -10.493 -45.139  28.040  0.00  0.00    +0.222 HD
ENDBRANCH  15  19
ENDBRANCH  14  15
ENDBRANCH   1  14
TORSDOF 8
