REMARK  Name = =
REMARK  0 active torsions:
REMARK  status: ('A' for Active; 'I' for Inactive)
REMARK                            x       y       z     vdW  Elec       q    Type
REMARK                         _______ _______ _______ _____ _____    ______ ____
ROOT
ATOM      1  C   UNL     1      -4.416  -4.044  30.651  0.00  0.00    +0.207 C 
ATOM      2  N   UNL     1      -3.187  -4.498  30.406  0.00  0.00    -0.108 NA
ATOM      3  N   UNL     1      -2.349  -3.478  30.393  0.00  0.00    -0.025 NA
ATOM      4  N   UNL     1      -3.037  -2.374  30.629  0.00  0.00    -0.055 NA
ATOM      5  N   UNL     1      -4.305  -2.713  30.787  0.00  0.00    -0.197 N 
ATOM      6  H   UNL     1      -5.046  -2.092  30.974  0.00  0.00    +0.178 HD
ENDROOT
TORSDOF 0
