REMARK  Name = =
REMARK  1 active torsions:
REMARK  status: ('A' for Active; 'I' for Inactive)
REMARK    1  A    between atoms: N_6  and  N_9
REMARK                            x       y       z     vdW  Elec       q    Type
REMARK                         _______ _______ _______ _____ _____    ______ ____
ROOT
ATOM      1  C   UNL     1      -3.169  -3.773  30.531  0.00  0.00    +0.259 A 
ATOM      2  N   UNL     1      -3.125  -2.580  31.186  0.00  0.00    -0.090 NA
ATOM      3  N   UNL     1      -4.336  -2.111  31.259  0.00  0.00    -0.022 NA
ATOM      4  N   UNL     1      -5.186  -2.940  30.679  0.00  0.00    -0.045 NA
ATOM      5  N   UNL     1      -4.459  -3.966  30.231  0.00  0.00    -0.226 N 
ATOM      6  N   UNL     1      -2.016  -4.541  30.295  0.00  0.00    -0.144 N 
ATOM      7  C   UNL     1      -1.038  -4.060  29.400  0.00  0.00    +0.327 C 
ATOM      8  O   UNL     1      -1.157  -2.943  28.801  0.00  0.00    -0.263 OA
ATOM      9  H   UNL     1      -4.818  -4.748  29.752  0.00  0.00    +0.194 HD
ENDROOT
BRANCH   6  10
ATOM     10  N   UNL     1      -1.846  -5.756  30.933  0.00  0.00    -0.217 N 
ATOM     11  C   UNL     1      -2.619  -6.274  31.976  0.00  0.00    +0.317 C 
ATOM     12  O   UNL     1      -3.576  -5.602  32.405  0.00  0.00    -0.264 OA
ATOM     13  H   UNL     1      -1.100  -6.317  30.619  0.00  0.00    +0.174 HD
ENDBRANCH   6  10
TORSDOF 1
