REMARK  Name = =
REMARK  8 active torsions:
REMARK  status: ('A' for Active; 'I' for Inactive)
REMARK    1  A    between atoms: O_2  and  O_12
REMARK    2  A    between atoms: O_11  and  O_17
REMARK    3  A    between atoms: O_12  and  P_13
REMARK    4  A    between atoms: P_13  and  O_15
REMARK    5  A    between atoms: P_13  and  O_16
REMARK    6  A    between atoms: O_17  and  N_18
REMARK    7  A    between atoms: N_18  and  N_19
REMARK    8  A    between atoms: C_20  and  O_22
REMARK                            x       y       z     vdW  Elec       q    Type
REMARK                         _______ _______ _______ _____ _____    ______ ____
ROOT
ATOM      1  P   UNL     1      -4.586  -4.814  31.182  0.00  0.00    +0.000 P 
ENDROOT
TORSDOF 0
REMARK  Name = =
REMARK  8 active torsions:
REMARK  status: ('A' for Active; 'I' for Inactive)
REMARK    1  A    between atoms: O_2  and  O_12
REMARK    2  A    between atoms: O_11  and  O_17
REMARK    3  A    between atoms: O_12  and  P_13
REMARK    4  A    between atoms: P_13  and  O_15
REMARK    5  A    between atoms: P_13  and  O_16
REMARK    6  A    between atoms: O_17  and  N_18
REMARK    7  A    between atoms: N_18  and  N_19
REMARK    8  A    between atoms: C_20  and  O_22
REMARK                            x       y       z     vdW  Elec       q    Type
REMARK                         _______ _______ _______ _____ _____    ______ ____
ROOT
ATOM      1  P   UNL     1      -4.153  -3.003  33.265  0.00  0.00    +0.499 P 
ATOM      2  O   UNL     1      -3.780  -2.243  31.992  0.00  0.00    -0.225 OA
ENDROOT
BRANCH   1   3
ATOM      3  O   UNL     1      -5.634  -2.450  33.862  0.00  0.00    -0.301 OA
ATOM      4  H   UNL     1      -5.860  -2.939  34.669  0.00  0.00    +0.222 HD
ENDBRANCH   1   3
BRANCH   1   5
ATOM      5  O   UNL     1      -2.909  -2.857  34.397  0.00  0.00    -0.301 OA
ATOM      6  H   UNL     1      -3.148  -3.340  35.204  0.00  0.00    +0.222 HD
ENDBRANCH   1   5
BRANCH   1   7
ATOM      7  O   UNL     1      -4.281  -4.632  32.832  0.00  0.00    -0.129 OA
BRANCH   7   8
ATOM      8  O   UNL     1      -4.676  -5.488  32.470  0.00  0.00    -0.240 OA
ATOM      9  H   UNL     1      -4.032  -6.207  32.566  0.00  0.00    +0.254 HD
ENDBRANCH   7   8
ENDBRANCH   1   7
TORSDOF 4
REMARK  Name = =
REMARK  8 active torsions:
REMARK  status: ('A' for Active; 'I' for Inactive)
REMARK    1  A    between atoms: O_2  and  O_12
REMARK    2  A    between atoms: O_11  and  O_17
REMARK    3  A    between atoms: O_12  and  P_13
REMARK    4  A    between atoms: P_13  and  O_15
REMARK    5  A    between atoms: P_13  and  O_16
REMARK    6  A    between atoms: O_17  and  N_18
REMARK    7  A    between atoms: N_18  and  N_19
REMARK    8  A    between atoms: C_20  and  O_22
REMARK                            x       y       z     vdW  Elec       q    Type
REMARK                         _______ _______ _______ _____ _____    ______ ____
ROOT
ATOM      1  N   UNL     1      -3.642  -6.247  31.009  0.00  0.00    -0.164 NA
ATOM      2  C   UNL     1      -4.067  -7.499  31.072  0.00  0.00    +0.071 C 
ATOM      3  C   UNL     1      -3.263  -8.585  30.776  0.00  0.00    +0.102 C 
ATOM      4  C   UNL     1      -1.975  -8.355  30.405  0.00  0.00    +0.101 C 
ATOM      5  N   UNL     1      -1.546  -7.080  30.343  0.00  0.00    -0.150 NA
ATOM      6  C   UNL     1      -2.370  -6.042  30.642  0.00  0.00    +0.348 C 
ATOM      7  O   UNL     1      -1.842  -4.900  30.545  0.00  0.00    -0.248 OA
ATOM      8  N   UNL     1      -1.052  -9.396  30.078  0.00  0.00    -0.348 N 
ATOM      9  H   UNL     1      -1.338 -10.337  30.115  0.00  0.00    +0.143 HD
ATOM     10  H   UNL     1      -0.130  -9.172  29.816  0.00  0.00    +0.143 HD
ENDROOT
TORSDOF 0
REMARK  Name = =
REMARK  8 active torsions:
REMARK  status: ('A' for Active; 'I' for Inactive)
REMARK    1  A    between atoms: O_2  and  O_12
REMARK    2  A    between atoms: O_11  and  O_17
REMARK    3  A    between atoms: O_12  and  P_13
REMARK    4  A    between atoms: P_13  and  O_15
REMARK    5  A    between atoms: P_13  and  O_16
REMARK    6  A    between atoms: O_17  and  N_18
REMARK    7  A    between atoms: N_18  and  N_19
REMARK    8  A    between atoms: C_20  and  O_22
REMARK                            x       y       z     vdW  Elec       q    Type
REMARK                         _______ _______ _______ _____ _____    ______ ____
ROOT
ATOM      1  N   UNL     1      -7.227  -2.180  31.096  0.00  0.00    -0.191 N 
ATOM      2  C   UNL     1      -8.358  -1.883  31.925  0.00  0.00    +0.413 C 
ATOM      3  O   UNL     1      -8.637  -2.654  32.884  0.00  0.00    -0.225 OA
ATOM      4  H   UNL     1      -6.984  -1.598  30.340  0.00  0.00    +0.175 HD
ENDROOT
BRANCH   1   5
ATOM      5  N   UNL     1      -6.492  -3.306  31.391  0.00  0.00    -0.083 NA
ATOM      6  H   UNL     1      -6.079  -3.178  32.315  0.00  0.00    +0.181 HD
BRANCH   5   7
ATOM      7  O   UNL     1      -5.518  -3.591  30.548  0.00  0.00    -0.126 OA
BRANCH   7   8
ATOM      8  O   UNL     1      -4.309  -3.966  29.699  0.00  0.00    -0.230 OA
ATOM      9  H   UNL     1      -4.503  -3.791  28.765  0.00  0.00    +0.255 HD
ENDBRANCH   7   8
ENDBRANCH   5   7
ENDBRANCH   1   5
BRANCH   2  10
ATOM     10  O   UNL     1      -9.154  -0.775  31.703  0.00  0.00    -0.465 OA
ATOM     11  H   UNL     1      -8.960  -0.193  30.995  0.00  0.00    +0.297 HD
ENDBRANCH   2  10
TORSDOF 4
