REMARK  Name = =
REMARK  3 active torsions:
REMARK  status: ('A' for Active; 'I' for Inactive)
REMARK    1  A    between atoms: N_1  and  N_20
REMARK    2  A    between atoms: C_2  and  C_4
REMARK    3  A    between atoms: C_12  and  O_14
REMARK                            x       y       z     vdW  Elec       q    Type
REMARK                         _______ _______ _______ _____ _____    ______ ____
ROOT
ATOM      1  N   UNL     1      -1.250  -5.236  30.790  0.00  0.00    -0.220 N 
ATOM      2  C   UNL     1      -0.849  -5.659  29.520  0.00  0.00    +0.262 C 
ATOM      3  O   UNL     1      -1.801  -5.978  28.722  0.00  0.00    -0.269 OA
ATOM      4  H   UNL     1      -0.563  -4.995  31.453  0.00  0.00    +0.174 HD
ENDROOT
BRANCH   2   5
ATOM      5  C   UNL     1       0.485  -5.801  28.969  0.00  0.00    +0.058 C 
ATOM      6  C   UNL     1       1.332  -4.768  28.653  0.00  0.00    +0.025 C 
ATOM      7  C   UNL     1       2.624  -5.024  28.221  0.00  0.00    +0.082 C 
ATOM      8  N   UNL     1       3.056  -6.297  28.105  0.00  0.00    -0.244 NA
ATOM      9  C   UNL     1       2.266  -7.342  28.399  0.00  0.00    +0.099 C 
ATOM     10  C   UNL     1       1.003  -7.096  28.824  0.00  0.00    +0.025 C 
ATOM     11  C   UNL     1       3.496  -3.995  27.869  0.00  0.00    +0.022 C 
ATOM     12  C   UNL     1       3.024  -2.709  27.965  0.00  0.00    +0.038 C 
ATOM     13  C   UNL     1       1.743  -2.430  28.390  0.00  0.00    +0.134 C 
ATOM     14  C   UNL     1       0.875  -3.473  28.741  0.00  0.00    +0.038 C 
BRANCH  13  15
ATOM     15  O   UNL     1       1.318  -1.123  28.469  0.00  0.00    -0.506 OA
ATOM     16  H   UNL     1       1.899  -0.426  28.234  0.00  0.00    +0.292 HD
ENDBRANCH  13  15
ENDBRANCH   2   5
BRANCH   1  22
ATOM     17  C   UNL     1      -3.352  -3.942  30.964  0.00  0.00    +0.259 A 
ATOM     18  N   UNL     1      -2.894  -2.703  30.803  0.00  0.00    -0.090 NA
ATOM     19  N   UNL     1      -3.958  -1.902  30.660  0.00  0.00    -0.022 NA
ATOM     20  N   UNL     1      -5.064  -2.614  30.730  0.00  0.00    -0.045 NA
ATOM     21  N   UNL     1      -4.692  -3.866  30.917  0.00  0.00    -0.226 N 
ATOM     22  N   UNL     1      -2.624  -5.144  31.153  0.00  0.00    -0.144 N 
ATOM     23  C   UNL     1      -3.215  -6.297  31.698  0.00  0.00    +0.327 C 
ATOM     24  O   UNL     1      -2.551  -7.341  31.840  0.00  0.00    -0.263 OA
ATOM     25  H   UNL     1      -5.305  -4.631  31.008  0.00  0.00    +0.194 HD
ENDBRANCH   1  22
TORSDOF 3
