REMARK  Name = =
REMARK  4 active torsions:
REMARK  status: ('A' for Active; 'I' for Inactive)
REMARK    1  A    between atoms: C_1  and  C_26
REMARK    2  A    between atoms: C_5  and  C_11
REMARK    3  A    between atoms: C_9  and  O_36
REMARK    4  A    between atoms: N_25  and  N_33
REMARK                            x       y       z     vdW  Elec       q    Type
REMARK                         _______ _______ _______ _____ _____    ______ ____
ROOT
ATOM      1  C   UNL     1       0.368  -6.019  28.960  0.00  0.00    +0.058 C 
ATOM      2  C   UNL     1      -0.651  -6.570  29.677  0.00  0.00    +0.025 C 
ATOM      3  C   UNL     1      -0.796  -7.954  29.697  0.00  0.00    +0.082 C 
ATOM      4  N   UNL     1       0.078  -8.703  29.004  0.00  0.00    -0.245 NA
ATOM      5  C   UNL     1       1.102  -8.172  28.282  0.00  0.00    +0.081 C 
ATOM      6  C   UNL     1       1.247  -6.818  28.259  0.00  0.00    +0.024 C 
ATOM      7  C   UNL     1      -1.821  -8.535  30.417  0.00  0.00    +0.022 C 
ATOM      8  C   UNL     1      -2.696  -7.744  31.113  0.00  0.00    +0.038 C 
ATOM      9  C   UNL     1      -2.578  -6.380  31.114  0.00  0.00    +0.134 C 
ATOM     10  C   UNL     1      -1.567  -5.796  30.403  0.00  0.00    +0.038 C 
ENDROOT
BRANCH   5  11
ATOM     11  C   UNL     1       1.952  -9.038  27.460  0.00  0.00    +0.018 C 
ATOM     12  C   UNL     1       1.457  -9.768  26.409  0.00  0.00    +0.003 C 
ATOM     13  C   UNL     1       2.360 -10.574  25.686  0.00  0.00    +0.018 C 
ATOM     14  C   UNL     1       3.694 -10.626  26.016  0.00  0.00    +0.084 C 
ATOM     15  N   UNL     1       4.553 -11.397  25.326  0.00  0.00    -0.224 NA
ATOM     16  C   UNL     1       5.875 -11.427  25.678  0.00  0.00    +0.199 C 
ATOM     17  N   UNL     1       6.353 -10.712  26.695  0.00  0.00    -0.222 NA
ATOM     18  C   UNL     1       5.525  -9.920  27.421  0.00  0.00    +0.102 C 
ATOM     19  C   UNL     1       4.194  -9.889  27.066  0.00  0.00    +0.037 C 
ATOM     20  C   UNL     1       3.309  -9.109  27.768  0.00  0.00    +0.005 C 
ATOM     21  C   UNL     1       1.907 -11.305  24.597  0.00  0.00    +0.001 C 
ATOM     22  C   UNL     1       0.581 -11.229  24.238  0.00  0.00    +0.000 C 
ATOM     23  C   UNL     1      -0.312 -10.438  24.937  0.00  0.00    +0.000 C 
ATOM     24  C   UNL     1       0.136  -9.708  26.023  0.00  0.00    +0.000 C 
ENDBRANCH   5  11
BRANCH   1  26
ATOM     25  N   UNL     1      -0.003  -3.754  27.906  0.00  0.00    -0.220 N 
ATOM     26  C   UNL     1       0.540  -4.564  28.928  0.00  0.00    +0.262 C 
ATOM     27  O   UNL     1       1.199  -4.007  29.847  0.00  0.00    -0.269 OA
ATOM     28  H   UNL     1      -0.526  -4.154  27.174  0.00  0.00    +0.174 HD
BRANCH  25  34
ATOM     29  C   UNL     1       1.304  -1.793  27.240  0.00  0.00    +0.259 A 
ATOM     30  N   UNL     1       2.597  -2.055  27.456  0.00  0.00    -0.090 NA
ATOM     31  N   UNL     1       3.355  -1.369  26.618  0.00  0.00    -0.022 NA
ATOM     32  N   UNL     1       2.537  -0.645  25.842  0.00  0.00    -0.045 NA
ATOM     33  N   UNL     1       1.284  -0.910  26.228  0.00  0.00    -0.226 N 
ATOM     34  N   UNL     1       0.220  -2.354  27.954  0.00  0.00    -0.144 N 
ATOM     35  C   UNL     1      -0.677  -1.587  28.723  0.00  0.00    +0.327 C 
ATOM     36  O   UNL     1      -1.613  -2.120  29.333  0.00  0.00    -0.263 OA
ATOM     37  H   UNL     1       0.472  -0.518  25.832  0.00  0.00    +0.194 HD
ENDBRANCH  25  34
ENDBRANCH   1  26
BRANCH   9  38
ATOM     38  O   UNL     1      -3.469  -5.616  31.822  0.00  0.00    -0.506 OA
ATOM     39  H   UNL     1      -4.158  -6.027  32.306  0.00  0.00    +0.292 HD
ENDBRANCH   9  38
TORSDOF 4
