REMARK  Name = =
REMARK  5 active torsions:
REMARK  status: ('A' for Active; 'I' for Inactive)
REMARK    1  A    between atoms: C_1  and  C_40
REMARK    2  A    between atoms: C_5  and  C_11
REMARK    3  A    between atoms: C_8  and  C_25
REMARK    4  A    between atoms: C_9  and  O_50
REMARK    5  A    between atoms: N_39  and  N_47
REMARK                            x       y       z     vdW  Elec       q    Type
REMARK                         _______ _______ _______ _____ _____    ______ ____
ROOT
ATOM      1  C   UNL     1       1.467  -8.335  27.518  0.00  0.00    +0.058 C 
ATOM      2  C   UNL     1       1.773  -7.208  26.824  0.00  0.00    +0.025 C 
ATOM      3  C   UNL     1       2.756  -7.266  25.862  0.00  0.00    +0.082 C 
ATOM      4  N   UNL     1       3.382  -8.408  25.626  0.00  0.00    -0.245 NA
ATOM      5  C   UNL     1       3.161  -9.559  26.235  0.00  0.00    +0.081 C 
ATOM      6  C   UNL     1       2.176  -9.523  27.209  0.00  0.00    +0.024 C 
ATOM      7  C   UNL     1       3.031  -6.117  25.141  0.00  0.00    +0.022 C 
ATOM      8  C   UNL     1       2.355  -4.936  25.353  0.00  0.00    +0.035 C 
ATOM      9  C   UNL     1       1.366  -4.909  26.330  0.00  0.00    +0.134 C 
ATOM     10  C   UNL     1       1.060  -6.040  27.076  0.00  0.00    +0.038 C 
ENDROOT
BRANCH   5  11
ATOM     11  C   UNL     1       3.832 -10.831  25.971  0.00  0.00    +0.018 C 
ATOM     12  C   UNL     1       5.093 -10.914  25.382  0.00  0.00    +0.003 C 
ATOM     13  C   UNL     1       5.689 -12.160  25.135  0.00  0.00    +0.018 C 
ATOM     14  C   UNL     1       5.045 -13.342  25.465  0.00  0.00    +0.084 C 
ATOM     15  N   UNL     1       5.629 -14.526  25.220  0.00  0.00    -0.224 NA
ATOM     16  C   UNL     1       4.971 -15.657  25.554  0.00  0.00    +0.199 C 
ATOM     17  N   UNL     1       3.744 -15.595  26.128  0.00  0.00    -0.222 NA
ATOM     18  C   UNL     1       3.124 -14.433  26.392  0.00  0.00    +0.102 C 
ATOM     19  C   UNL     1       3.811 -13.272  26.043  0.00  0.00    +0.037 C 
ATOM     20  C   UNL     1       3.246 -12.039  26.276  0.00  0.00    +0.005 C 
ATOM     21  C   UNL     1       6.946 -12.211  24.544  0.00  0.00    +0.001 C 
ATOM     22  C   UNL     1       7.620 -11.064  24.196  0.00  0.00    +0.000 C 
ATOM     23  C   UNL     1       7.060  -9.833  24.428  0.00  0.00    +0.000 C 
ATOM     24  C   UNL     1       5.789  -9.781  25.025  0.00  0.00    +0.000 C 
ENDBRANCH   5  11
BRANCH   8  25
ATOM     25  C   UNL     1       2.698  -3.794  24.521  0.00  0.00    +0.003 C 
ATOM     26  C   UNL     1       3.659  -2.920  24.904  0.00  0.00    +0.002 C 
ATOM     27  C   UNL     1       3.991  -1.827  24.097  0.00  0.00    +0.018 C 
ATOM     28  C   UNL     1       3.319  -1.647  22.890  0.00  0.00    +0.084 C 
ATOM     29  N   UNL     1       3.637  -0.598  22.110  0.00  0.00    -0.224 NA
ATOM     30  C   UNL     1       3.012  -0.399  20.943  0.00  0.00    +0.199 C 
ATOM     31  N   UNL     1       2.059  -1.273  20.568  0.00  0.00    -0.222 NA
ATOM     32  C   UNL     1       1.709  -2.327  21.309  0.00  0.00    +0.102 C 
ATOM     33  C   UNL     1       2.345  -2.545  22.514  0.00  0.00    +0.037 C 
ATOM     34  C   UNL     1       2.028  -3.615  23.317  0.00  0.00    +0.003 C 
ATOM     35  C   UNL     1       4.964  -0.927  24.466  0.00  0.00    +0.001 C 
ATOM     36  C   UNL     1       5.632  -1.086  25.641  0.00  0.00    +0.000 C 
ATOM     37  C   UNL     1       5.337  -2.154  26.472  0.00  0.00    +0.000 C 
ATOM     38  C   UNL     1       4.359  -3.040  26.081  0.00  0.00    +0.000 C 
ENDBRANCH   8  25
BRANCH   1  40
ATOM     39  N   UNL     1       0.502  -7.552  29.746  0.00  0.00    -0.220 N 
ATOM     40  C   UNL     1       0.533  -8.399  28.627  0.00  0.00    +0.262 C 
ATOM     41  O   UNL     1      -0.336  -9.328  28.568  0.00  0.00    -0.269 OA
ATOM     42  H   UNL     1       1.171  -6.835  29.827  0.00  0.00    +0.174 HD
BRANCH  39  48
ATOM     43  C   UNL     1      -1.535  -6.809  30.913  0.00  0.00    +0.259 A 
ATOM     44  N   UNL     1      -2.385  -6.333  29.978  0.00  0.00    -0.090 NA
ATOM     45  N   UNL     1      -3.205  -5.515  30.621  0.00  0.00    -0.022 NA
ATOM     46  N   UNL     1      -2.898  -5.465  31.911  0.00  0.00    -0.045 NA
ATOM     47  N   UNL     1      -1.874  -6.255  32.105  0.00  0.00    -0.226 N 
ATOM     48  N   UNL     1      -0.478  -7.710  30.766  0.00  0.00    -0.144 N 
ATOM     49  C   UNL     1      -0.341  -8.817  31.626  0.00  0.00    +0.327 C 
ATOM     50  O   UNL     1      -1.178  -9.007  32.535  0.00  0.00    -0.263 OA
ATOM     51  H   UNL     1      -1.426  -6.419  32.966  0.00  0.00    +0.194 HD
ENDBRANCH  39  48
ENDBRANCH   1  40
BRANCH   9  52
ATOM     52  O   UNL     1       0.685  -3.718  26.544  0.00  0.00    -0.506 OA
ATOM     53  H   UNL     1       0.897  -2.959  26.037  0.00  0.00    +0.292 HD
ENDBRANCH   9  52
TORSDOF 5
