REMARK  Name = =
REMARK  10 active torsions:
REMARK  status: ('A' for Active; 'I' for Inactive)
REMARK    1  A    between atoms: C_1  and  S_26
REMARK    2  A    between atoms: C_2  and  P_17
REMARK    3  A    between atoms: C_7  and  C_22
REMARK    4  A    between atoms: C_8  and  C_24
REMARK    5  A    between atoms: C_9  and  C_11
REMARK    6  A    between atoms: N_13  and  N_14
REMARK    7  A    between atoms: P_17  and  S_19
REMARK    8  A    between atoms: P_17  and  O_21
REMARK    9  A    between atoms: O_18  and  O_20
REMARK   10  A    between atoms: S_26  and  C_32
REMARK                            x       y       z     vdW  Elec       q    Type
REMARK                         _______ _______ _______ _____ _____    ______ ____
ROOT
ATOM      1  C   UNL     1      -0.956  -4.628  28.965  0.00  0.00    +0.078 C 
ATOM      2  C   UNL     1      -0.736  -3.240  29.531  0.00  0.00    +0.093 C 
ATOM      3  C   UNL     1       0.594  -2.934  28.820  0.00  0.00    +0.150 C 
ATOM      4  O   UNL     1       0.148  -3.205  27.509  0.00  0.00    -0.357 OA
ATOM      5  C   UNL     1      -0.398  -4.515  27.592  0.00  0.00    +0.108 C 
ATOM      6  C   UNL     1       0.149  -5.433  28.469  0.00  0.00    +0.050 C 
ATOM      7  C   UNL     1       0.861  -6.417  29.038  0.00  0.00    +0.064 C 
ATOM      8  C   UNL     1       1.711  -7.022  28.142  0.00  0.00    +0.051 C 
ATOM      9  C   UNL     1       1.541  -6.370  26.864  0.00  0.00    +0.041 C 
ATOM     10  C   UNL     1       0.616  -5.421  27.033  0.00  0.00    +0.057 C 
ENDROOT
BRANCH   9  11
ATOM     11  C   UNL     1       2.210  -6.629  25.582  0.00  0.00    +0.258 C 
ATOM     12  O   UNL     1       2.185  -5.720  24.685  0.00  0.00    -0.269 OA
ATOM     13  N   UNL     1       2.894  -7.804  25.223  0.00  0.00    -0.230 N 
ATOM     14  H   UNL     1       2.950  -8.543  25.871  0.00  0.00    +0.173 HD
BRANCH  13  15
ATOM     15  N   UNL     1       3.497  -7.950  23.970  0.00  0.00    -0.226 N 
ATOM     16  C   UNL     1       2.986  -8.858  23.033  0.00  0.00    +0.316 C 
ATOM     17  O   UNL     1       1.970  -9.578  23.279  0.00  0.00    -0.264 OA
ATOM     18  H   UNL     1       4.288  -7.410  23.744  0.00  0.00    +0.173 HD
ENDBRANCH  13  15
ENDBRANCH   9  11
BRANCH   7  19
ATOM     19  C   UNL     1       0.873  -6.933  30.441  0.00  0.00    +0.021 C 
ATOM     20  S   UNL     1       1.936  -6.487  31.560  0.00  0.00    -0.055 S 
ENDBRANCH   7  19
BRANCH   8  21
ATOM     21  C   UNL     1       2.620  -8.116  28.432  0.00  0.00    +0.096 C 
ATOM     22  N   UNL     1       3.328  -8.996  28.672  0.00  0.00    -0.191 NA
ENDBRANCH   8  21
BRANCH   2  23
ATOM     23  P   UNL     1      -1.883  -2.094  28.762  0.00  0.00    +0.095 P 
BRANCH  23  24
ATOM     24  S   UNL     1      -0.527  -0.904  27.675  0.00  0.00    -0.122 S 
ATOM     25  H   UNL     1       0.237  -0.184  28.539  0.00  0.00    +0.109 HD
ENDBRANCH  23  24
BRANCH  23  26
ATOM     26  O   UNL     1      -2.690  -2.867  27.477  0.00  0.00    -0.361 OA
ATOM     27  H   UNL     1      -3.365  -3.466  27.833  0.00  0.00    +0.216 HD
ENDBRANCH  23  26
ENDBRANCH   2  23
BRANCH   1  28
ATOM     28  S   UNL     1      -2.580  -5.316  29.298  0.00  0.00    -0.109 S 
BRANCH  28  34
ATOM     29  C   UNL     1      -2.935  -6.946  32.904  0.00  0.00    +0.038 C 
ATOM     30  C   UNL     1      -2.637  -6.752  31.576  0.00  0.00    +0.151 C 
ATOM     31  O   UNL     1      -2.056  -7.885  31.101  0.00  0.00    -0.450 OA
ATOM     32  C   UNL     1      -2.059  -8.923  32.031  0.00  0.00    +0.180 C 
ATOM     33  C   UNL     1      -2.528  -8.306  33.314  0.00  0.00    +0.044 C 
ATOM     34  C   UNL     1      -2.968  -5.498  31.006  0.00  0.00    +0.060 C 
ATOM     35  C   UNL     1      -3.564  -4.530  31.770  0.00  0.00    +0.009 C 
ATOM     36  C   UNL     1      -3.852  -4.748  33.097  0.00  0.00    +0.001 C 
ATOM     37  C   UNL     1      -3.542  -5.959  33.682  0.00  0.00    +0.003 C 
ENDBRANCH  28  34
ENDBRANCH   1  28
TORSDOF 9
REMARK  Name = =
REMARK  10 active torsions:
REMARK  status: ('A' for Active; 'I' for Inactive)
REMARK    1  A    between atoms: C_1  and  S_26
REMARK    2  A    between atoms: C_2  and  P_17
REMARK    3  A    between atoms: C_7  and  C_22
REMARK    4  A    between atoms: C_8  and  C_24
REMARK    5  A    between atoms: C_9  and  C_11
REMARK    6  A    between atoms: N_13  and  N_14
REMARK    7  A    between atoms: P_17  and  S_19
REMARK    8  A    between atoms: P_17  and  O_21
REMARK    9  A    between atoms: O_18  and  O_20
REMARK   10  A    between atoms: S_26  and  C_32
REMARK                            x       y       z     vdW  Elec       q    Type
REMARK                         _______ _______ _______ _____ _____    ______ ____
ROOT
ATOM      1  O   UNL     1      -1.623  -0.908  29.651  0.00  0.00    -0.253 OA
ATOM      2  H   UNL     1      -1.237  -1.628  30.173  0.00  0.00    +0.253 HD
ENDROOT
BRANCH   1   3
ATOM      3  O   UNL     1      -3.098  -1.187  29.417  0.00  0.00    -0.253 OA
ATOM      4  H   UNL     1      -3.484  -0.467  28.895  0.00  0.00    +0.253 HD
ENDBRANCH   1   3
TORSDOF 1
