REMARK  Name = =
REMARK  1 active torsions:
REMARK  status: ('A' for Active; 'I' for Inactive)
REMARK    1  A    between atoms: C_2  and  C_7
REMARK                            x       y       z     vdW  Elec       q    Type
REMARK                         _______ _______ _______ _____ _____    ______ ____
ROOT
ATOM      1  C   UNL     1      52.978 155.370  27.318  0.00  0.00    +0.006 C 
ATOM      2  C   UNL     1      51.817 156.256  27.720  0.00  0.00    +0.036 C 
ATOM      3  C   UNL     1      50.770 155.441  28.373  0.00  0.00    +0.006 C 
ATOM      4  C   UNL     1      51.221 154.089  28.864  0.00  0.00    +0.000 C 
ATOM      5  C   UNL     1      51.889 153.269  27.788  0.00  0.00    +0.000 C 
ATOM      6  C   UNL     1      52.363 154.168  26.635  0.00  0.00    +0.000 C 
ENDROOT
BRANCH   2   7
ATOM      7  C   UNL     1      52.388 157.323  28.577  0.00  0.00    +0.041 C 
ATOM      8  C   UNL     1      51.799 158.347  29.161  0.00  0.00    +0.069 C 
ATOM      9  C   UNL     1      52.836 159.090  29.892  0.00  0.00    +0.000 C 
ATOM     10  C   UNL     1      54.074 158.329  29.624  0.00  0.00    +0.094 C 
ATOM     11  N   UNL     1      53.774 157.348  28.883  0.00  0.00    -0.252 NA
ENDBRANCH   2   7
TORSDOF 1
