REMARK  Name = =
REMARK  2 active torsions:
REMARK  status: ('A' for Active; 'I' for Inactive)
REMARK    1  A    between atoms: C_2  and  C_13
REMARK    2  A    between atoms: C_6  and  N_7
REMARK                            x       y       z     vdW  Elec       q    Type
REMARK                         _______ _______ _______ _____ _____    ______ ____
ROOT
ATOM      1  C   UNL     1      53.803 157.400  28.821  0.00  0.00    +0.022 C 
ATOM      2  C   UNL     1      52.794 157.328  27.717  0.00  0.00    +0.039 C 
ATOM      3  C   UNL     1      51.435 156.982  28.313  0.00  0.00    +0.006 C 
ATOM      4  C   UNL     1      51.073 157.846  29.475  0.00  0.00    +0.002 C 
ATOM      5  C   UNL     1      52.091 158.989  29.585  0.00  0.00    +0.016 C 
ATOM      6  C   UNL     1      53.412 158.333  29.923  0.00  0.00    +0.060 C 
ENDROOT
BRANCH   6   7
ATOM      7  N   UNL     1      54.458 159.279  30.233  0.00  0.00    -0.247 NA
ATOM      8  C   UNL     1      53.995 160.644  30.144  0.00  0.00    +0.148 C 
ATOM      9  N   UNL     1      55.172 161.507  30.331  0.00  0.00    -0.270 NA
ATOM     10  C   UNL     1      55.948 161.429  29.100  0.00  0.00    +0.144 C 
ATOM     11  N   UNL     1      55.761 160.161  28.433  0.00  0.00    -0.270 NA
ATOM     12  C   UNL     1      55.648 159.103  29.426  0.00  0.00    +0.148 C 
ATOM     13  H   UNL     1      55.729 161.176  31.119  0.00  0.00    +0.126 HD
ATOM     14  H   UNL     1      56.560 159.975  27.827  0.00  0.00    +0.126 HD
ENDBRANCH   6   7
BRANCH   2  15
ATOM     15  C   UNL     1      53.150 156.194  26.806  0.00  0.00    +0.048 C 
ATOM     16  C   UNL     1      53.585 156.363  25.550  0.00  0.00    +0.013 C 
ATOM     17  C   UNL     1      53.838 155.034  24.947  0.00  0.00    +0.019 C 
ATOM     18  C   UNL     1      53.475 154.115  26.062  0.00  0.00    +0.085 C 
ATOM     19  N   UNL     1      53.094 154.823  27.086  0.00  0.00    -0.215 NA
ENDBRANCH   2  15
TORSDOF 2
