REMARK  Name = =
REMARK  8 active torsions:
REMARK  status: ('A' for Active; 'I' for Inactive)
REMARK    1  A    between atoms: N_1  and  C_12
REMARK    2  A    between atoms: C_6  and  C_18
REMARK    3  A    between atoms: C_8  and  C_13
REMARK    4  A    between atoms: C_18  and  O_19
REMARK    5  A    between atoms: O_19  and  C_20
REMARK    6  A    between atoms: C_21  and  C_26
REMARK    7  A    between atoms: C_24  and  O_28
REMARK    8  A    between atoms: O_28  and  O_29
REMARK                            x       y       z     vdW  Elec       q    Type
REMARK                         _______ _______ _______ _____ _____    ______ ____
ROOT
ATOM      1  N   UNL     1      52.688 156.741  26.841  0.00  0.00    -0.246 NA
ATOM      2  C   UNL     1      53.628 157.513  26.143  0.00  0.00    +0.148 C 
ATOM      3  N   UNL     1      54.325 156.864  25.063  0.00  0.00    -0.270 NA
ATOM      4  C   UNL     1      53.550 155.948  24.320  0.00  0.00    +0.144 C 
ATOM      5  N   UNL     1      52.408 155.420  24.978  0.00  0.00    -0.269 NA
ATOM      6  C   UNL     1      52.461 155.397  26.420  0.00  0.00    +0.162 C 
ATOM      7  H   UNL     1      55.120 156.360  25.456  0.00  0.00    +0.126 HD
ATOM      8  H   UNL     1      52.278 154.461  24.655  0.00  0.00    +0.126 HD
ENDROOT
BRANCH   1  14
ATOM      9  C   UNL     1      51.271 157.925  28.361  0.00  0.00    +0.022 C 
ATOM     10  C   UNL     1      51.300 158.878  29.493  0.00  0.00    +0.038 C 
ATOM     11  C   UNL     1      52.270 158.385  30.577  0.00  0.00    +0.006 C 
ATOM     12  C   UNL     1      53.638 158.478  29.949  0.00  0.00    +0.002 C 
ATOM     13  C   UNL     1      53.740 157.557  28.794  0.00  0.00    +0.016 C 
ATOM     14  C   UNL     1      52.461 157.041  28.222  0.00  0.00    +0.060 C 
BRANCH  10  15
ATOM     15  C   UNL     1      50.012 159.192  30.116  0.00  0.00    +0.041 C 
ATOM     16  C   UNL     1      49.840 159.513  31.387  0.00  0.00    +0.069 C 
ATOM     17  C   UNL     1      48.394 159.752  31.600  0.00  0.00    +0.000 C 
ATOM     18  C   UNL     1      47.804 159.512  30.261  0.00  0.00    +0.094 C 
ATOM     19  N   UNL     1      48.748 159.205  29.475  0.00  0.00    -0.252 NA
ENDBRANCH  10  15
ENDBRANCH   1  14
BRANCH   6  20
ATOM     20  C   UNL     1      53.609 154.467  26.847  0.00  0.00    +0.238 C 
BRANCH  20  21
ATOM     21  O   UNL     1      53.331 153.221  26.637  0.00  0.00    -0.472 OA
BRANCH  21  22
ATOM     22  C   UNL     1      53.040 151.990  26.444  0.00  0.00    +0.145 C 
ATOM     23  C   UNL     1      53.771 151.164  25.599  0.00  0.00    +0.076 C 
ATOM     24  C   UNL     1      53.400 149.827  25.424  0.00  0.00    +0.010 C 
ATOM     25  C   UNL     1      52.329 149.291  26.062  0.00  0.00    +0.041 C 
ATOM     26  C   UNL     1      51.576 150.088  26.916  0.00  0.00    +0.186 C 
ATOM     27  C   UNL     1      51.944 151.405  27.086  0.00  0.00    +0.078 C 
BRANCH  23  28
ATOM     28  C   UNL     1      54.912 151.665  24.913  0.00  0.00    +0.237 C 
ATOM     29  O   UNL     1      55.353 152.818  25.034  0.00  0.00    -0.283 OA
ENDBRANCH  23  28
BRANCH  26  30
ATOM     30  O   UNL     1      50.498 149.503  27.542  0.00  0.00    -0.333 OA
BRANCH  30  31
ATOM     31  O   UNL     1      50.297 149.598  28.830  0.00  0.00    -0.170 OA
ATOM     32  C   UNL     1      51.396 149.410  29.640  0.00  0.00    +0.232 C 
ENDBRANCH  30  31
ENDBRANCH  26  30
ENDBRANCH  21  22
ENDBRANCH  20  21
ENDBRANCH   6  20
TORSDOF 8
