MODEL 1
REMARK VINA RESULT:    -9.472      0.000      0.000
REMARK INTER + INTRA:         -14.307
REMARK INTER:                 -13.625
REMARK INTRA:                  -0.682
REMARK UNBOUND:                -0.682
REMARK  Name = =
REMARK  8 active torsions:
REMARK  status: ('A' for Active; 'I' for Inactive)
REMARK    1  A    between atoms: C_3  and  C_18
REMARK    2  A    between atoms: C_3  and  N_34
REMARK    3  A    between atoms: C_6  and  S_13
REMARK    4  A    between atoms: C_18  and  S_19
REMARK    5  A    between atoms: S_19  and  C_20
REMARK    6  A    between atoms: N_34  and  C_35
REMARK    7  A    between atoms: C_35  and  C_36
REMARK    8  A    between atoms: C_36  and  O_38
REMARK                            x       y       z     vdW  Elec       q    Type
REMARK                         _______ _______ _______ _____ _____    ______ ____
ROOT
ATOM      1  N   UNL     1       0.712  -3.185  27.891  0.00  0.00    -0.261 N 
ATOM      2  C   UNL     1       0.610  -3.388  29.300  0.00  0.00    +0.116 C 
ATOM      3  C   UNL     1       1.252  -4.689  29.735  0.00  0.00    +0.105 C 
ATOM      4  C   UNL     1       1.886  -5.409  28.618  0.00  0.00    -0.007 C 
ATOM      5  C   UNL     1       2.285  -4.816  27.439  0.00  0.00    +0.002 C 
ATOM      6  C   UNL     1       2.026  -3.360  27.300  0.00  0.00    +0.129 C 
ATOM      7  C   UNL     1       2.883  -5.554  26.441  0.00  0.00    -0.002 C 
ATOM      8  C   UNL     1       3.110  -6.924  26.578  0.00  0.00    -0.000 C 
ATOM      9  C   UNL     1       2.716  -7.523  27.750  0.00  0.00    -0.000 C 
ATOM     10  C   UNL     1       2.119  -6.789  28.748  0.00  0.00    -0.003 C 
ATOM     11  C   UNL     1      -0.383  -2.839  27.102  0.00  0.00    +0.304 C 
ATOM     12  O   UNL     1      -1.553  -2.672  27.601  0.00  0.00    -0.265 OA
ENDROOT
BRANCH   6  13
ATOM     13  S   UNL     1       1.971  -2.841  25.594  0.00  0.00    -0.192 S 
ATOM     14  C   UNL     1       1.260  -1.210  25.363  0.00  0.00    +0.057 C 
ATOM     15  C   UNL     1       2.550  -0.428  25.196  0.00  0.00    +0.079 C 
ATOM     16  N   UNL     1       3.386  -1.192  24.342  0.00  0.00    -0.289 NA
ATOM     17  C   UNL     1       3.582  -2.505  24.860  0.00  0.00    +0.109 C 
ATOM     18  H   UNL     1       1.288  -3.883  25.050  0.00  0.00    +0.087 HD
ATOM     19  H   UNL     1       2.950  -1.258  23.422  0.00  0.00    +0.124 HD
ENDBRANCH   6  13
BRANCH   3  20
ATOM     20  C   UNL     1       0.151  -5.487  30.357  0.00  0.00    +0.070 C 
BRANCH  20  21
ATOM     21  S   UNL     1      -1.334  -5.494  29.750  0.00  0.00    -0.180 S 
ATOM     22  H   UNL     1      -1.490  -6.604  28.979  0.00  0.00    +0.097 HD
BRANCH  21  23
ATOM     23  C   UNL     1      -2.560  -5.504  31.020  0.00  0.00    +0.016 A 
ATOM     24  C   UNL     1      -2.703  -6.611  31.834  0.00  0.00    +0.022 A 
ATOM     25  C   UNL     1      -3.666  -6.608  32.824  0.00  0.00    +0.082 A 
ATOM     26  N   UNL     1      -4.468  -5.549  33.017  0.00  0.00    -0.245 NA
ATOM     27  C   UNL     1      -4.368  -4.436  32.243  0.00  0.00    +0.082 A 
ATOM     28  C   UNL     1      -3.398  -4.434  31.241  0.00  0.00    +0.022 A 
ATOM     29  C   UNL     1      -3.316  -3.302  30.478  0.00  0.00    +0.002 C 
ATOM     30  C   UNL     1      -4.155  -2.231  30.700  0.00  0.00    +0.000 C 
ATOM     31  C   UNL     1      -5.110  -2.246  31.692  0.00  0.00    +0.002 C 
ATOM     32  C   UNL     1      -5.211  -3.371  32.473  0.00  0.00    +0.019 C 
ATOM     33  C   UNL     1      -3.791  -7.739  33.637  0.00  0.00    +0.019 C 
ATOM     34  C   UNL     1      -2.995  -8.853  33.487  0.00  0.00    +0.002 C 
ATOM     35  C   UNL     1      -2.033  -8.840  32.487  0.00  0.00    +0.000 C 
ATOM     36  C   UNL     1      -1.900  -7.730  31.679  0.00  0.00    +0.002 C 
ENDBRANCH  21  23
ENDBRANCH  20  21
ENDBRANCH   3  20
BRANCH   3  37
ATOM     37  N   UNL     1       2.288  -4.353  30.693  0.00  0.00    -0.212 NA
BRANCH  37  38
ATOM     38  C   UNL     1       1.923  -4.628  32.040  0.00  0.00    +0.118 C 
BRANCH  38  39
ATOM     39  C   UNL     1       2.690  -5.827  32.570  0.00  0.00    +0.128 C 
ATOM     40  C   UNL     1       1.863  -6.658  33.527  0.00  0.00    +0.033 C 
BRANCH  39  41
ATOM     41  O   UNL     1       3.826  -5.388  33.247  0.00  0.00    -0.383 OA
ATOM     42  H   UNL     1       4.278  -4.713  32.717  0.00  0.00    +0.210 HD
ENDBRANCH  39  41
ENDBRANCH  38  39
ENDBRANCH  37  38
ENDBRANCH   3  37
TORSDOF 8
ENDMDL
