REMARK  Name = =
REMARK  8 active torsions:
REMARK  status: ('A' for Active; 'I' for Inactive)
REMARK    1  A    between atoms: C_1  and  N_7
REMARK    2  A    between atoms: C_2  and  O_35
REMARK    3  A    between atoms: C_4  and  C_23
REMARK    4  A    between atoms: C_12  and  N_13
REMARK    5  A    between atoms: C_14  and  O_16
REMARK    6  A    between atoms: O_16  and  C_17
REMARK    7  A    between atoms: N_25  and  S_26
REMARK    8  A    between atoms: S_26  and  C_29
REMARK                            x       y       z     vdW  Elec       q    Type
REMARK                         _______ _______ _______ _____ _____    ______ ____
ROOT
ATOM      1  C   UNL     1     -10.079 -42.935  30.332  0.00  0.00    +0.083 C 
ATOM      2  C   UNL     1     -10.403 -44.112  29.709  0.00  0.00    +0.147 C 
ATOM      3  C   UNL     1     -11.586 -44.195  28.961  0.00  0.00    +0.042 C 
ATOM      4  C   UNL     1     -12.426 -43.112  28.841  0.00  0.00    +0.058 C 
ATOM      5  C   UNL     1     -12.061 -41.954  29.481  0.00  0.00    +0.006 C 
ATOM      6  C   UNL     1     -10.901 -41.836  30.229  0.00  0.00    +0.018 C 
ENDROOT
BRANCH   1   7
ATOM      7  N   UNL     1      -8.903 -42.833  31.101  0.00  0.00    -0.288 N 
ATOM      8  C   UNL     1      -7.729 -42.628  30.333  0.00  0.00    +0.111 C 
ATOM      9  C   UNL     1      -6.796 -43.809  30.301  0.00  0.00    +0.110 C 
ATOM     10  N   UNL     1      -6.510 -44.277  31.651  0.00  0.00    -0.213 NA
ATOM     11  C   UNL     1      -7.760 -44.709  32.205  0.00  0.00    +0.129 C 
ATOM     12  C   UNL     1      -8.808 -43.622  32.254  0.00  0.00    +0.169 C 
BRANCH  12  13
ATOM     13  N   UNL     1      -8.516 -42.836  33.464  0.00  0.00    -0.254 N 
ATOM     14  C   UNL     1      -9.538 -42.167  34.194  0.00  0.00    +0.407 C 
ATOM     15  O   UNL     1     -10.715 -42.270  33.767  0.00  0.00    -0.226 OA
ATOM     16  H   UNL     1      -7.585 -42.771  33.778  0.00  0.00    +0.154 HD
BRANCH  14  17
ATOM     17  O   UNL     1      -9.323 -41.419  35.329  0.00  0.00    -0.410 OA
BRANCH  17  18
ATOM     18  C   UNL     1     -10.351 -40.901  36.106  0.00  0.00    +0.150 C 
ATOM     19  C   UNL     1     -11.605 -40.601  35.616  0.00  0.00    +0.038 C 
ATOM     20  C   UNL     1     -12.604 -40.084  36.426  0.00  0.00    +0.003 C 
ATOM     21  C   UNL     1     -12.380 -39.846  37.771  0.00  0.00    +0.000 C 
ATOM     22  C   UNL     1     -11.129 -40.145  38.258  0.00  0.00    +0.003 C 
ATOM     23  C   UNL     1     -10.135 -40.660  37.452  0.00  0.00    +0.038 C 
ENDBRANCH  17  18
ENDBRANCH  14  17
ENDBRANCH  12  13
ENDBRANCH   1   7
BRANCH   4  24
ATOM     24  C   UNL     1     -13.645 -43.257  28.048  0.00  0.00    +0.264 C 
ATOM     25  O   UNL     1     -13.932 -44.360  27.491  0.00  0.00    -0.269 OA
ATOM     26  N   UNL     1     -14.577 -42.205  27.841  0.00  0.00    -0.181 N 
ATOM     27  H   UNL     1     -14.397 -41.329  28.253  0.00  0.00    +0.177 HD
BRANCH  26  28
ATOM     28  S   UNL     1     -16.016 -42.395  26.895  0.00  0.00    +0.076 S 
ATOM     29  O   UNL     1     -17.008 -41.383  27.446  0.00  0.00    -0.150 OA
ATOM     30  O   UNL     1     -16.640 -43.745  27.094  0.00  0.00    -0.150 OA
BRANCH  28  31
ATOM     31  C   UNL     1     -15.708 -42.107  25.206  0.00  0.00    +0.125 C 
ATOM     32  C   UNL     1     -15.214 -43.109  24.406  0.00  0.00    +0.020 C 
ATOM     33  C   UNL     1     -14.966 -42.899  23.062  0.00  0.00    +0.001 C 
ATOM     34  C   UNL     1     -15.211 -41.670  22.484  0.00  0.00    +0.000 C 
ATOM     35  C   UNL     1     -15.715 -40.642  23.291  0.00  0.00    +0.001 C 
ATOM     36  C   UNL     1     -15.956 -40.876  24.641  0.00  0.00    +0.020 C 
ENDBRANCH  28  31
ENDBRANCH  26  28
ENDBRANCH   4  24
BRANCH   2  37
ATOM     37  O   UNL     1      -9.578 -45.209  29.813  0.00  0.00    -0.504 OA
ATOM     38  H   UNL     1      -8.787 -45.155  30.313  0.00  0.00    +0.292 HD
ENDBRANCH   2  37
TORSDOF 8
