REMARK  Name = =
REMARK  6 active torsions:
REMARK  status: ('A' for Active; 'I' for Inactive)
REMARK    1  A    between atoms: C_1  and  N_9
REMARK    2  A    between atoms: C_1  and  N_17
REMARK    3  A    between atoms: C_4  and  C_23
REMARK    4  A    between atoms: C_5  and  S_22
REMARK    5  A    between atoms: C_13  and  C_15
REMARK    6  A    between atoms: C_23  and  O_25
REMARK                            x       y       z     vdW  Elec       q    Type
REMARK                         _______ _______ _______ _____ _____    ______ ____
ROOT
ATOM      1  C   UNL     1     -11.840 -43.828  30.914  0.00  0.00    +0.203 C 
ATOM      2  C   UNL     1     -12.358 -44.403  29.707  0.00  0.00    +0.125 C 
ATOM      3  N   UNL     1     -12.318 -43.128  28.941  0.00  0.00    -0.249 N 
ATOM      4  C   UNL     1     -12.930 -43.489  27.720  0.00  0.00    +0.132 C 
ATOM      5  C   UNL     1     -12.750 -44.784  27.494  0.00  0.00    +0.021 C 
ATOM      6  C   UNL     1     -11.944 -45.306  28.688  0.00  0.00    +0.058 C 
ATOM      7  C   UNL     1     -11.680 -42.596  30.102  0.00  0.00    +0.262 C 
ATOM      8  O   UNL     1     -11.194 -41.434  30.208  0.00  0.00    -0.271 OA
ENDROOT
BRANCH   1   9
ATOM      9  N   UNL     1     -12.852 -43.776  31.920  0.00  0.00    -0.192 N 
ATOM     10  C   UNL     1     -13.681 -45.005  31.959  0.00  0.00    +0.308 C 
ATOM     11  O   UNL     1     -14.665 -44.996  32.762  0.00  0.00    -0.252 OA
ATOM     12  N   UNL     1     -13.470 -46.155  31.210  0.00  0.00    -0.313 N 
ATOM     13  C   UNL     1     -13.162 -42.879  32.935  0.00  0.00    +0.257 C 
ATOM     14  O   UNL     1     -14.290 -43.079  33.604  0.00  0.00    -0.269 OA
ATOM     15  H   UNL     1     -12.717 -46.199  30.577  0.00  0.00    +0.146 HD
ATOM     16  H   UNL     1     -14.073 -46.926  31.312  0.00  0.00    +0.146 HD
BRANCH  13  17
ATOM     17  C   UNL     1     -12.388 -41.742  33.356  0.00  0.00    +0.058 C 
ATOM     18  C   UNL     1     -12.655 -41.221  34.566  0.00  0.00    +0.005 C 
ENDBRANCH  13  17
ENDBRANCH   1   9
BRANCH   1  19
ATOM     19  N   UNL     1     -10.583 -44.162  31.482  0.00  0.00    -0.252 NA
ATOM     20  C   UNL     1      -9.586 -43.110  31.343  0.00  0.00    +0.074 C 
ATOM     21  C   UNL     1      -8.446 -43.801  32.117  0.00  0.00    +0.019 C 
ATOM     22  C   UNL     1      -8.618 -45.272  31.742  0.00  0.00    +0.019 C 
ATOM     23  C   UNL     1      -9.894 -45.274  30.901  0.00  0.00    +0.074 C 
ENDBRANCH   1  19
BRANCH   5  24
ATOM     24  S   UNL     1     -13.317 -45.735  26.110  0.00  0.00    -0.144 S 
ATOM     25  H   UNL     1     -13.998 -44.927  25.253  0.00  0.00    +0.107 HD
ENDBRANCH   5  24
BRANCH   4  26
ATOM     26  C   UNL     1     -13.640 -42.567  26.846  0.00  0.00    +0.352 C 
ATOM     27  O   UNL     1     -13.288 -42.448  25.623  0.00  0.00    -0.244 OA
BRANCH  26  28
ATOM     28  O   UNL     1     -14.689 -41.798  27.265  0.00  0.00    -0.476 OA
ATOM     29  H   UNL     1     -14.983 -41.851  28.153  0.00  0.00    +0.295 HD
ENDBRANCH  26  28
ENDBRANCH   4  26
TORSDOF 6
