REMARK  Name = =
REMARK  1 active torsions:
REMARK  status: ('A' for Active; 'I' for Inactive)
REMARK    1  A    between atoms: C_1  and  S_6
REMARK                            x       y       z     vdW  Elec       q    Type
REMARK                         _______ _______ _______ _____ _____    ______ ____
ROOT
ATOM      1  C   UNL     1      52.235 154.915  26.992  0.00  0.00    +0.093 C 
ATOM      2  S   UNL     1      52.691 156.450  27.884  0.00  0.00    -0.113 S 
ATOM      3  C   UNL     1      51.607 156.148  29.341  0.00  0.00    +0.129 C 
ATOM      4  N   UNL     1      50.830 155.018  28.848  0.00  0.00    -0.287 NA
ATOM      5  C   UNL     1      51.745 154.129  28.190  0.00  0.00    +0.090 C 
ATOM      6  H   UNL     1      50.122 155.342  28.189  0.00  0.00    +0.124 HD
ENDROOT
BRANCH   1   7
ATOM      7  S   UNL     1      53.582 154.190  26.215  0.00  0.00    -0.218 S 
ATOM      8  C   UNL     1      53.316 152.698  25.333  0.00  0.00    +0.038 C 
ATOM      9  C   UNL     1      53.699 153.127  23.917  0.00  0.00    +0.011 C 
ATOM     10  C   UNL     1      54.929 154.031  24.089  0.00  0.00    +0.011 C 
ATOM     11  C   UNL     1      54.395 155.157  24.947  0.00  0.00    +0.038 C 
ATOM     12  H   UNL     1      54.306 154.022  27.354  0.00  0.00    +0.085 HD
ENDBRANCH   1   7
TORSDOF 1
