REMARK  Name = =
REMARK  2 active torsions:
REMARK  status: ('A' for Active; 'I' for Inactive)
REMARK    1  A    between atoms: C_1  and  C_6
REMARK    2  A    between atoms: C_1  and  S_12
REMARK                            x       y       z     vdW  Elec       q    Type
REMARK                         _______ _______ _______ _____ _____    ______ ____
ROOT
ATOM      1  C   UNL     1      52.441 154.579  27.118  0.00  0.00    +0.096 C 
ATOM      2  S   UNL     1      53.021 156.186  27.843  0.00  0.00    -0.110 S 
ATOM      3  C   UNL     1      51.425 156.645  28.632  0.00  0.00    +0.129 C 
ATOM      4  N   UNL     1      50.711 155.388  28.523  0.00  0.00    -0.287 NA
ATOM      5  C   UNL     1      50.947 154.905  27.164  0.00  0.00    +0.092 C 
ATOM      6  H   UNL     1      49.713 155.533  28.679  0.00  0.00    +0.124 HD
ENDROOT
BRANCH   1   7
ATOM      7  C   UNL     1      52.810 153.543  28.073  0.00  0.00    -0.005 C 
ATOM      8  C   UNL     1      54.044 153.473  28.554  0.00  0.00    -0.003 C 
ATOM      9  C   UNL     1      54.487 152.487  29.495  0.00  0.00    -0.000 C 
ATOM     10  C   UNL     1      53.665 151.576  29.942  0.00  0.00    -0.000 C 
ATOM     11  C   UNL     1      52.265 151.532  29.496  0.00  0.00    -0.000 C 
ATOM     12  C   UNL     1      51.823 152.550  28.520  0.00  0.00    -0.003 C 
ENDBRANCH   1   7
BRANCH   1  13
ATOM     13  S   UNL     1      52.993 154.373  25.544  0.00  0.00    -0.216 S 
ATOM     14  C   UNL     1      53.636 152.914  24.801  0.00  0.00    +0.038 C 
ATOM     15  C   UNL     1      54.058 153.532  23.462  0.00  0.00    +0.011 C 
ATOM     16  C   UNL     1      54.865 154.738  23.766  0.00  0.00    +0.011 C 
ATOM     17  C   UNL     1      54.299 155.487  24.925  0.00  0.00    +0.038 C 
ATOM     18  H   UNL     1      51.678 154.541  25.239  0.00  0.00    +0.085 HD
ENDBRANCH   1  13
TORSDOF 2
