REMARK  Name = =
REMARK  7 active torsions:
REMARK  status: ('A' for Active; 'I' for Inactive)
REMARK    1  A    between atoms: S_1  and  C_7
REMARK    2  A    between atoms: C_2  and  S_18
REMARK    3  A    between atoms: C_7  and  C_12
REMARK    4  A    between atoms: S_18  and  C_19
REMARK    5  A    between atoms: S_18  and  P_23
REMARK    6  A    between atoms: P_23  and  O_25
REMARK    7  A    between atoms: P_23  and  O_26
REMARK                            x       y       z     vdW  Elec       q    Type
REMARK                         _______ _______ _______ _____ _____    ______ ____
ROOT
ATOM      1  S   UNL     1      53.094 153.262  27.232  0.00  0.00    -0.159 S 
ATOM      2  C   UNL     1      53.033 154.372  28.582  0.00  0.00    +0.082 C 
ATOM      3  C   UNL     1      52.368 153.466  29.647  0.00  0.00    +0.021 C 
ATOM      4  C   UNL     1      51.330 152.663  29.013  0.00  0.00    +0.013 C 
ATOM      5  C   UNL     1      51.425 152.577  27.555  0.00  0.00    +0.050 C 
ENDROOT
BRANCH   1   6
ATOM      6  C   UNL     1      53.839 153.243  25.793  0.00  0.00    +0.105 C 
ATOM      7  S   UNL     1      55.476 152.438  25.927  0.00  0.00    -0.109 S 
ATOM      8  C   UNL     1      55.123 151.073  24.742  0.00  0.00    +0.129 C 
ATOM      9  N   UNL     1      53.673 151.007  24.993  0.00  0.00    -0.287 NA
ATOM     10  C   UNL     1      53.206 152.376  24.763  0.00  0.00    +0.093 C 
ATOM     11  H   UNL     1      53.485 150.717  25.953  0.00  0.00    +0.124 HD
BRANCH   6  12
ATOM     12  C   UNL     1      54.101 154.560  25.122  0.00  0.00    -0.004 C 
ATOM     13  C   UNL     1      55.298 154.788  24.665  0.00  0.00    -0.003 C 
ATOM     14  C   UNL     1      55.673 156.031  23.994  0.00  0.00    -0.000 C 
ATOM     15  C   UNL     1      54.769 156.953  23.843  0.00  0.00    -0.000 C 
ATOM     16  C   UNL     1      53.401 156.819  24.307  0.00  0.00    -0.000 C 
ATOM     17  C   UNL     1      53.057 155.575  24.996  0.00  0.00    -0.003 C 
ENDBRANCH   6  12
ENDBRANCH   1   6
BRANCH   2  18
ATOM     18  S   UNL     1      52.226 155.709  28.476  0.00  0.00    -0.104 S 
ATOM     19  H   UNL     1      51.885 155.518  27.173  0.00  0.00    +0.099 HD
BRANCH  18  20
ATOM     20  C   UNL     1      51.114 155.724  29.938  0.00  0.00    +0.081 C 
ATOM     21  C   UNL     1      49.840 155.892  29.774  0.00  0.00    +0.284 C 
ATOM     22  F   UNL     1      49.353 156.056  28.496  0.00  0.00    -0.172 F 
ATOM     23  F   UNL     1      49.012 155.905  30.831  0.00  0.00    -0.172 F 
ENDBRANCH  18  20
BRANCH  18  24
ATOM     24  P   UNL     1      52.668 157.272  28.169  0.00  0.00    +0.372 P 
ATOM     25  O   UNL     1      51.712 158.078  27.271  0.00  0.00    -0.248 OA
BRANCH  24  26
ATOM     26  O   UNL     1      52.806 158.263  29.570  0.00  0.00    -0.317 OA
ATOM     27  H   UNL     1      51.981 158.220  30.079  0.00  0.00    +0.221 HD
ENDBRANCH  24  26
BRANCH  24  28
ATOM     28  O   UNL     1      54.190 157.457  27.389  0.00  0.00    -0.317 OA
ATOM     29  H   UNL     1      54.869 156.977  27.888  0.00  0.00    +0.221 HD
ENDBRANCH  24  28
ENDBRANCH  18  24
ENDBRANCH   2  18
TORSDOF 7
REMARK  Name = =
REMARK  7 active torsions:
REMARK  status: ('A' for Active; 'I' for Inactive)
REMARK    1  A    between atoms: S_1  and  C_7
REMARK    2  A    between atoms: C_2  and  S_18
REMARK    3  A    between atoms: C_7  and  C_12
REMARK    4  A    between atoms: S_18  and  C_19
REMARK    5  A    between atoms: S_18  and  P_23
REMARK    6  A    between atoms: P_23  and  O_25
REMARK    7  A    between atoms: P_23  and  O_26
REMARK                            x       y       z     vdW  Elec       q    Type
REMARK                         _______ _______ _______ _____ _____    ______ ____
ROOT
ATOM      1  H   UNK     1      54.008 151.765  28.115  0.00  0.00    +0.000 HD
ENDROOT
TORSDOF 0
