REMARK  Name = =
REMARK  1 active torsions:
REMARK  status: ('A' for Active; 'I' for Inactive)
REMARK    1  A    between atoms: C_8  and  O_11
REMARK                            x       y       z     vdW  Elec       q    Type
REMARK                         _______ _______ _______ _____ _____    ______ ____
ROOT
ATOM      1  O   UNL     1      50.974 155.709  29.172  0.00  0.00    -0.476 OA
ATOM      2  C   UNL     1      51.618 156.758  29.868  0.00  0.00    +0.206 C 
ATOM      3  C   UNL     1      51.926 157.842  28.857  0.00  0.00    +0.052 C 
ATOM      4  C   UNL     1      52.875 157.266  27.848  0.00  0.00    +0.033 C 
ATOM      5  C   UNL     1      52.557 155.888  27.423  0.00  0.00    +0.012 C 
ATOM      6  C   UNL     1      51.624 155.154  28.092  0.00  0.00    +0.138 C 
ATOM      7  C   UNL     1      51.356 153.855  27.655  0.00  0.00    +0.073 C 
ATOM      8  C   UNL     1      52.010 153.305  26.573  0.00  0.00    +0.137 C 
ATOM      9  C   UNL     1      52.951 154.084  25.920  0.00  0.00    +0.036 C 
ATOM     10  C   UNL     1      53.245 155.369  26.317  0.00  0.00    +0.002 C 
ENDROOT
BRANCH   8  11
ATOM     11  O   UNL     1      51.718 152.013  26.169  0.00  0.00    -0.505 OA
ATOM     12  H   UNL     1      51.076 151.511  26.632  0.00  0.00    +0.292 HD
ENDBRANCH   8  11
TORSDOF 1
