REMARK  Name = =
REMARK  5 active torsions:
REMARK  status: ('A' for Active; 'I' for Inactive)
REMARK    1  A    between atoms: C_2  and  N_12
REMARK    2  A    between atoms: C_8  and  O_11
REMARK    3  A    between atoms: N_12  and  C_13
REMARK    4  A    between atoms: C_16  and  C_19
REMARK    5  A    between atoms: C_19  and  O_21
REMARK                            x       y       z     vdW  Elec       q    Type
REMARK                         _______ _______ _______ _____ _____    ______ ____
ROOT
ATOM      1  O   UNL     1      52.318 154.620  28.156  0.00  0.00    -0.461 OA
ATOM      2  C   UNL     1      52.125 155.999  28.465  0.00  0.00    +0.242 C 
ATOM      3  C   UNL     1      52.144 156.821  27.199  0.00  0.00    +0.070 C 
ATOM      4  C   UNL     1      53.444 156.567  26.496  0.00  0.00    +0.035 C 
ATOM      5  C   UNL     1      53.491 155.125  26.127  0.00  0.00    +0.012 C 
ATOM      6  C   UNL     1      52.923 154.205  26.978  0.00  0.00    +0.139 C 
ATOM      7  C   UNL     1      52.976 152.877  26.622  0.00  0.00    +0.073 C 
ATOM      8  C   UNL     1      53.580 152.455  25.444  0.00  0.00    +0.137 C 
ATOM      9  C   UNL     1      54.135 153.391  24.620  0.00  0.00    +0.036 C 
ATOM     10  C   UNL     1      54.092 154.711  24.957  0.00  0.00    +0.002 C 
ENDROOT
BRANCH   8  11
ATOM     11  O   UNL     1      53.630 151.113  25.091  0.00  0.00    -0.505 OA
ATOM     12  H   UNL     1      53.251 150.466  25.653  0.00  0.00    +0.292 HD
ENDBRANCH   8  11
BRANCH   2  13
ATOM     13  N   UNL     1      50.822 156.119  29.073  0.00  0.00    -0.301 N 
ATOM     14  H   UNL     1      50.189 155.368  29.005  0.00  0.00    +0.150 HD
BRANCH  13  15
ATOM     15  C   UNL     1      50.426 157.311  29.777  0.00  0.00    +0.047 C 
ATOM     16  C   UNL     1      49.130 157.479  30.213  0.00  0.00    +0.015 C 
ATOM     17  C   UNL     1      48.755 158.624  30.887  0.00  0.00    +0.008 C 
ATOM     18  C   UNL     1      49.644 159.646  31.155  0.00  0.00    +0.076 C 
ATOM     19  C   UNL     1      50.939 159.467  30.715  0.00  0.00    +0.008 C 
ATOM     20  C   UNL     1      51.326 158.321  30.036  0.00  0.00    +0.015 C 
BRANCH  18  21
ATOM     21  C   UNL     1      49.233 160.851  31.870  0.00  0.00    +0.338 C 
ATOM     22  O   UNL     1      49.346 161.971  31.313  0.00  0.00    -0.245 OA
BRANCH  21  23
ATOM     23  O   UNL     1      48.716 160.819  33.153  0.00  0.00    -0.477 OA
ATOM     24  H   UNL     1      48.618 160.000  33.598  0.00  0.00    +0.295 HD
ENDBRANCH  21  23
ENDBRANCH  18  21
ENDBRANCH  13  15
ENDBRANCH   2  13
TORSDOF 5
