REMARK  Name = =
REMARK  6 active torsions:
REMARK  status: ('A' for Active; 'I' for Inactive)
REMARK    1  A    between atoms: N_1  and  C_3
REMARK    2  A    between atoms: N_1  and  C_13
REMARK    3  A    between atoms: N_1  and  S_22
REMARK    4  A    between atoms: C_9  and  O_12
REMARK    5  A    between atoms: C_16  and  C_19
REMARK    6  A    between atoms: C_19  and  O_21
REMARK                            x       y       z     vdW  Elec       q    Type
REMARK                         _______ _______ _______ _____ _____    ______ ____
ROOT
ATOM      1  N   UNL     1      50.681 157.331  29.289  0.00  0.00    -0.161 N 
ENDROOT
BRANCH   1   3
ATOM      2  O   UNL     1      51.460 155.453  28.078  0.00  0.00    -0.459 OA
ATOM      3  C   UNL     1      51.052 156.802  27.994  0.00  0.00    +0.263 C 
ATOM      4  C   UNL     1      52.035 157.691  27.324  0.00  0.00    +0.072 C 
ATOM      5  C   UNL     1      53.446 157.147  27.349  0.00  0.00    +0.035 C 
ATOM      6  C   UNL     1      53.380 155.788  26.735  0.00  0.00    +0.012 C 
ATOM      7  C   UNL     1      52.347 154.961  27.140  0.00  0.00    +0.140 C 
ATOM      8  C   UNL     1      52.202 153.666  26.617  0.00  0.00    +0.073 C 
ATOM      9  C   UNL     1      53.119 153.234  25.685  0.00  0.00    +0.137 C 
ATOM     10  C   UNL     1      54.139 154.074  25.298  0.00  0.00    +0.036 C 
ATOM     11  C   UNL     1      54.280 155.345  25.812  0.00  0.00    +0.002 C 
BRANCH   9  12
ATOM     12  O   UNL     1      53.006 151.942  25.138  0.00  0.00    -0.505 OA
ATOM     13  H   UNL     1      52.308 151.378  25.408  0.00  0.00    +0.292 HD
ENDBRANCH   9  12
ENDBRANCH   1   3
BRANCH   1  14
ATOM     14  C   UNL     1      51.258 158.557  29.705  0.00  0.00    +0.072 C 
ATOM     15  C   UNL     1      52.644 158.562  29.894  0.00  0.00    +0.016 C 
ATOM     16  C   UNL     1      53.313 159.698  30.291  0.00  0.00    +0.008 C 
ATOM     17  C   UNL     1      52.586 160.848  30.503  0.00  0.00    +0.076 C 
ATOM     18  C   UNL     1      51.215 160.837  30.317  0.00  0.00    +0.008 C 
ATOM     19  C   UNL     1      50.545 159.702  29.919  0.00  0.00    +0.016 C 
BRANCH  17  20
ATOM     20  C   UNL     1      53.217 162.087  30.923  0.00  0.00    +0.338 C 
ATOM     21  O   UNL     1      52.695 163.206  30.768  0.00  0.00    -0.245 OA
BRANCH  20  22
ATOM     22  O   UNL     1      54.469 162.009  31.530  0.00  0.00    -0.477 OA
ATOM     23  H   UNL     1      54.878 161.175  31.655  0.00  0.00    +0.295 HD
ENDBRANCH  20  22
ENDBRANCH  17  20
ENDBRANCH   1  14
BRANCH   1  24
ATOM     24  S   UNL     1      49.602 156.554  30.378  0.00  0.00    +0.039 S 
ATOM     25  O   UNL     1      49.084 157.546  31.368  0.00  0.00    -0.158 OA
ATOM     26  O   UNL     1      50.329 155.437  31.079  0.00  0.00    -0.158 OA
ATOM     27  H   UNL     1      48.546 156.037  29.695  0.00  0.00    +0.233 HD
ENDBRANCH   1  24
TORSDOF 6
