REMARK  Name = =
REMARK  12 active torsions:
REMARK  status: ('A' for Active; 'I' for Inactive)
REMARK    1  A    between atoms: N_1  and  C_3
REMARK    2  A    between atoms: N_1  and  C_13
REMARK    3  A    between atoms: N_1  and  S_22
REMARK    4  A    between atoms: C_9  and  O_12
REMARK    5  A    between atoms: C_16  and  C_19
REMARK    6  A    between atoms: C_19  and  O_21
REMARK    7  A    between atoms: S_22  and  O_25
REMARK    8  A    between atoms: O_25  and  C_26
REMARK    9  A    between atoms: C_26  and  C_28
REMARK   10  A    between atoms: C_30  and  O_36
REMARK   11  A    between atoms: C_31  and  O_35
REMARK   12  A    between atoms: C_32  and  O_34
REMARK                            x       y       z     vdW  Elec       q    Type
REMARK                         _______ _______ _______ _____ _____    ______ ____
ROOT
ATOM      1  N   UNL     1      51.681 157.107  29.568  0.00  0.00    -0.145 N 
ENDROOT
BRANCH   1   3
ATOM      2  O   UNL     1      52.746 155.856  27.831  0.00  0.00    -0.459 OA
ATOM      3  C   UNL     1      52.277 155.855  29.149  0.00  0.00    +0.264 C 
ATOM      4  C   UNL     1      51.274 154.762  29.415  0.00  0.00    +0.072 C 
ATOM      5  C   UNL     1      51.673 153.456  28.774  0.00  0.00    +0.035 C 
ATOM      6  C   UNL     1      52.144 153.600  27.397  0.00  0.00    +0.012 C 
ATOM      7  C   UNL     1      52.665 154.799  26.976  0.00  0.00    +0.140 C 
ATOM      8  C   UNL     1      53.120 154.942  25.650  0.00  0.00    +0.073 C 
ATOM      9  C   UNL     1      53.042 153.887  24.782  0.00  0.00    +0.137 C 
ATOM     10  C   UNL     1      52.518 152.697  25.227  0.00  0.00    +0.036 C 
ATOM     11  C   UNL     1      52.067 152.540  26.523  0.00  0.00    +0.002 C 
BRANCH   9  12
ATOM     12  O   UNL     1      53.477 153.993  23.484  0.00  0.00    -0.505 OA
ATOM     13  H   UNL     1      53.414 153.257  22.907  0.00  0.00    +0.292 HD
ENDBRANCH   9  12
ENDBRANCH   1   3
BRANCH   1  14
ATOM     14  C   UNL     1      52.447 158.282  29.747  0.00  0.00    +0.073 C 
ATOM     15  C   UNL     1      53.796 158.305  29.524  0.00  0.00    +0.016 C 
ATOM     16  C   UNL     1      54.510 159.468  29.704  0.00  0.00    +0.008 C 
ATOM     17  C   UNL     1      53.895 160.628  30.109  0.00  0.00    +0.076 C 
ATOM     18  C   UNL     1      52.542 160.603  30.332  0.00  0.00    +0.008 C 
ATOM     19  C   UNL     1      51.803 159.430  30.153  0.00  0.00    +0.016 C 
BRANCH  17  20
ATOM     20  C   UNL     1      54.635 161.875  30.307  0.00  0.00    +0.338 C 
ATOM     21  O   UNL     1      54.374 162.625  31.280  0.00  0.00    -0.245 OA
BRANCH  20  22
ATOM     22  O   UNL     1      55.619 162.192  29.394  0.00  0.00    -0.477 OA
ATOM     23  H   UNL     1      55.795 161.616  28.676  0.00  0.00    +0.295 HD
ENDBRANCH  20  22
ENDBRANCH  17  20
ENDBRANCH   1  14
BRANCH   1  24
ATOM     24  S   UNL     1      49.976 157.122  29.858  0.00  0.00    +0.112 S 
ATOM     25  O   UNL     1      49.389 155.964  29.104  0.00  0.00    -0.042 OA
ATOM     26  O   UNL     1      49.649 156.912  31.302  0.00  0.00    -0.042 OA
BRANCH  24  27
ATOM     27  O   UNL     1      49.253 158.528  29.239  0.00  0.00    -0.304 OA
BRANCH  27  28
ATOM     28  C   UNL     1      48.282 159.244  29.872  0.00  0.00    +0.366 C 
ATOM     29  O   UNL     1      47.118 159.234  29.421  0.00  0.00    -0.243 OA
BRANCH  28  30
ATOM     30  C   UNL     1      48.538 160.034  31.070  0.00  0.00    +0.084 C 
ATOM     31  C   UNL     1      48.403 161.422  31.008  0.00  0.00    +0.046 C 
ATOM     32  C   UNL     1      48.638 162.193  32.123  0.00  0.00    +0.171 C 
ATOM     33  C   UNL     1      49.008 161.579  33.298  0.00  0.00    +0.202 C 
ATOM     34  C   UNL     1      49.153 160.205  33.400  0.00  0.00    +0.171 C 
ATOM     35  C   UNL     1      48.910 159.466  32.266  0.00  0.00    +0.046 C 
BRANCH  34  36
ATOM     36  O   UNL     1      49.530 159.618  34.611  0.00  0.00    -0.503 OA
ATOM     37  H   UNL     1      49.687 160.155  35.363  0.00  0.00    +0.292 HD
ENDBRANCH  34  36
BRANCH  33  38
ATOM     38  O   UNL     1      49.245 162.375  34.429  0.00  0.00    -0.501 OA
ATOM     39  H   UNL     1      49.151 163.306  34.375  0.00  0.00    +0.292 HD
ENDBRANCH  33  38
BRANCH  32  40
ATOM     40  O   UNL     1      48.511 163.565  32.085  0.00  0.00    -0.503 OA
ATOM     41  H   UNL     1      48.260 163.990  31.289  0.00  0.00    +0.292 HD
ENDBRANCH  32  40
ENDBRANCH  28  30
ENDBRANCH  27  28
ENDBRANCH  24  27
ENDBRANCH   1  24
TORSDOF 12
