REMARK  Name = =
REMARK  4 active torsions:
REMARK  status: ('A' for Active; 'I' for Inactive)
REMARK    1  A    between atoms: N_1  and  C_9
REMARK    2  A    between atoms: C_2  and  C_18
REMARK    3  A    between atoms: C_8  and  O_15
REMARK    4  A    between atoms: O_15  and  C_16
REMARK                            x       y       z     vdW  Elec       q    Type
REMARK                         _______ _______ _______ _____ _____    ______ ____
ROOT
ATOM      1  N   UNL     1     -17.751 -41.746  24.514  0.00  0.00    -0.211 N 
ATOM      2  C   UNL     1     -18.831 -42.252  23.896  0.00  0.00    +0.150 C 
ATOM      3  N   UNL     1     -18.916 -42.084  22.566  0.00  0.00    -0.230 NA
ATOM      4  C   UNL     1     -17.977 -41.440  21.849  0.00  0.00    +0.105 C 
ATOM      5  C   UNL     1     -16.861 -40.913  22.463  0.00  0.00    +0.079 C 
ATOM      6  C   UNL     1     -16.776 -41.088  23.828  0.00  0.00    +0.259 C 
ATOM      7  O   UNL     1     -15.767 -40.614  24.400  0.00  0.00    -0.269 OA
ENDROOT
BRANCH   1   9
ATOM      8  C   UNL     1     -18.569 -41.360  26.783  0.00  0.00    +0.320 C 
ATOM      9  C   UNL     1     -17.619 -41.897  25.920  0.00  0.00    +0.171 C 
ATOM     10  C   UNL     1     -16.555 -42.570  26.468  0.00  0.00    +0.219 C 
ATOM     11  O   UNL     1     -15.686 -43.063  25.716  0.00  0.00    -0.285 OA
ATOM     12  C   UNL     1     -16.423 -42.716  27.844  0.00  0.00    +0.084 C 
ATOM     13  C   UNL     1     -17.413 -42.150  28.619  0.00  0.00    +0.186 C 
ATOM     14  O   UNL     1     -18.425 -41.509  28.073  0.00  0.00    -0.419 OA
BRANCH   8  15
ATOM     15  O   UNL     1     -19.663 -40.670  26.251  0.00  0.00    -0.412 OA
BRANCH  15  16
ATOM     16  C   UNL     1     -20.743 -40.316  27.045  0.00  0.00    +0.226 C 
ATOM     17  S   UNL     1     -22.292 -40.485  26.562  0.00  0.00    -0.007 S 
ENDBRANCH  15  16
ENDBRANCH   8  15
ENDBRANCH   1   9
BRANCH   2  18
ATOM     18  C   UNL     1     -19.872 -42.961  24.653  0.00  0.00    +0.185 C 
ATOM     19  N   UNL     1     -19.671 -43.949  25.429  0.00  0.00    -0.196 NA
ATOM     20  C   UNL     1     -20.888 -44.429  26.029  0.00  0.00    +0.108 C 
ATOM     21  C   UNL     1     -21.985 -43.817  25.152  0.00  0.00    +0.089 C 
ATOM     22  N   UNL     1     -21.267 -42.654  24.639  0.00  0.00    -0.278 NA
ATOM     23  H   UNL     1     -21.568 -42.453  23.686  0.00  0.00    +0.125 HD
ENDBRANCH   2  18
TORSDOF 4
