MODEL 1
REMARK VINA RESULT:    -9.544      0.000      0.000
REMARK INTER + INTRA:         -14.967
REMARK INTER:                 -13.450
REMARK INTRA:                  -1.517
REMARK UNBOUND:                -1.517
REMARK  Name = =
REMARK  7 active torsions:
REMARK  status: ('A' for Active; 'I' for Inactive)
REMARK    1  A    between atoms: C_1  and  C_11
REMARK    2  A    between atoms: C_5  and  C_41
REMARK    3  A    between atoms: C_8  and  C_29
REMARK    4  A    between atoms: C_18  and  N_22
REMARK    5  A    between atoms: N_22  and  C_23
REMARK    6  A    between atoms: N_31  and  C_32
REMARK    7  A    between atoms: N_31  and  C_39
REMARK                            x       y       z     vdW  Elec       q    Type
REMARK                         _______ _______ _______ _____ _____    ______ ____
ROOT
ATOM      1  C   UNL     1     -11.401  -1.848  30.464  0.00  0.00    +0.076 A 
ATOM      2  C   UNL     1     -11.942  -2.201  29.219  0.00  0.00    +0.032 A 
ATOM      3  C   UNL     1     -13.285  -2.148  29.098  0.00  0.00    +0.084 A 
ATOM      4  N   UNL     1     -14.057  -1.764  30.137  0.00  0.00    -0.228 NA
ATOM      5  C   UNL     1     -13.549  -1.421  31.317  0.00  0.00    +0.172 A 
ATOM      6  N   UNL     1     -12.207  -1.467  31.476  0.00  0.00    -0.232 NA
ATOM      7  C   UNL     1     -13.826  -2.414  27.838  0.00  0.00    +0.024 C 
ATOM      8  C   UNL     1     -13.077  -2.724  26.737  0.00  0.00    +0.055 C 
ATOM      9  C   UNL     1     -11.665  -2.774  26.951  0.00  0.00    +0.005 C 
ATOM     10  C   UNL     1     -11.088  -2.517  28.193  0.00  0.00    +0.003 C 
ENDROOT
BRANCH   1  11
ATOM     11  C   UNL     1      -9.951  -1.888  30.602  0.00  0.00    +0.163 C 
ATOM     12  C   UNL     1      -9.586  -2.795  31.761  0.00  0.00    +0.186 C 
ATOM     13  O   UNL     1     -10.281  -3.697  32.190  0.00  0.00    -0.290 OA
ATOM     14  C   UNL     1      -8.272  -2.360  32.219  0.00  0.00    +0.040 C 
ATOM     15  C   UNL     1      -8.131  -0.994  31.808  0.00  0.00    +0.038 C 
ATOM     16  C   UNL     1      -6.950  -0.444  32.145  0.00  0.00    +0.004 C 
ATOM     17  C   UNL     1      -5.922  -1.026  32.789  0.00  0.00    +0.015 C 
ATOM     18  C   UNL     1      -6.091  -2.375  33.173  0.00  0.00    +0.048 C 
ATOM     19  C   UNL     1      -7.233  -3.013  32.897  0.00  0.00    +0.018 C 
ATOM     20  C   UNL     1      -9.380  -0.633  31.106  0.00  0.00    +0.186 C 
ATOM     21  O   UNL     1      -9.772   0.577  31.023  0.00  0.00    -0.290 OA
BRANCH  18  22
ATOM     22  N   UNL     1      -4.930  -2.994  33.804  0.00  0.00    -0.313 N 
ATOM     23  H   UNL     1      -4.567  -2.679  34.664  0.00  0.00    +0.152 HD
BRANCH  22  24
ATOM     24  C   UNL     1      -4.349  -4.099  33.082  0.00  0.00    +0.048 C 
ATOM     25  C   UNL     1      -4.418  -5.319  33.699  0.00  0.00    +0.015 C 
ATOM     26  C   UNL     1      -3.935  -6.471  33.058  0.00  0.00    +0.001 C 
ATOM     27  C   UNL     1      -3.391  -6.306  31.764  0.00  0.00    +0.000 C 
ATOM     28  C   UNL     1      -3.326  -5.085  31.155  0.00  0.00    +0.001 C 
ATOM     29  C   UNL     1      -3.816  -3.947  31.834  0.00  0.00    +0.015 C 
ENDBRANCH  22  24
ENDBRANCH  18  22
ENDBRANCH   1  11
BRANCH   8  30
ATOM     30  C   UNL     1     -13.557  -2.929  25.385  0.00  0.00    +0.250 C 
ATOM     31  O   UNL     1     -14.221  -1.879  24.900  0.00  0.00    -0.270 OA
ATOM     32  N   UNL     1     -13.461  -3.980  24.521  0.00  0.00    -0.260 N 
BRANCH  32  33
ATOM     33  C   UNL     1     -12.846  -5.273  24.759  0.00  0.00    +0.094 C 
ATOM     34  C   UNL     1     -11.544  -5.284  23.868  0.00  0.00    +0.037 C 
ATOM     35  C   UNL     1     -11.947  -6.268  22.798  0.00  0.00    +0.074 C 
ATOM     36  N   UNL     1     -12.544  -7.308  23.679  0.00  0.00    -0.271 NA
ATOM     37  C   UNL     1     -13.632  -6.418  24.191  0.00  0.00    +0.092 C 
ATOM     38  C   UNL     1     -11.531  -7.470  24.684  0.00  0.00    +0.072 C 
ATOM     39  C   UNL     1     -10.651  -6.236  24.698  0.00  0.00    +0.020 C 
ENDBRANCH  32  33
BRANCH  32  40
ATOM     40  C   UNL     1     -14.130  -3.844  23.278  0.00  0.00    +0.205 C 
ATOM     41  N   UNL     1     -14.725  -3.730  22.170  0.00  0.00    -0.107 NA
ENDBRANCH  32  40
ENDBRANCH   8  30
BRANCH   5  42
ATOM     42  C   UNL     1     -14.452  -0.885  32.394  0.00  0.00    +0.247 C 
ATOM     43  O   UNL     1     -13.926  -0.991  33.585  0.00  0.00    -0.212 OA
ENDBRANCH   5  42
TORSDOF 7
ENDMDL
