REMARK  Name = =
REMARK  0 active torsions:
REMARK  status: ('A' for Active; 'I' for Inactive)
REMARK                            x       y       z     vdW  Elec       q    Type
REMARK                         _______ _______ _______ _____ _____    ______ ____
ROOT
ATOM      1  C   UNL     1     -12.552  -6.010  20.315  0.00  0.00    +0.022 C 
ATOM      2  C   UNL     1     -13.157  -7.374  20.569  0.00  0.00    +0.004 C 
ATOM      3  C   UNL     1     -14.570  -7.300  21.053  0.00  0.00    +0.001 C 
ATOM      4  C   UNL     1     -14.980  -6.190  21.898  0.00  0.00    +0.004 C 
ATOM      5  C   UNL     1     -14.107  -4.997  22.005  0.00  0.00    +0.018 C 
ATOM      6  C   UNL     1     -14.296  -4.150  23.187  0.00  0.00    +0.009 C 
ATOM      7  C   UNL     1     -13.140  -3.295  23.566  0.00  0.00    +0.026 C 
ATOM      8  C   UNL     1     -11.875  -4.058  23.455  0.00  0.00    -0.031 C 
ATOM      9  C   UNL     1     -10.944  -4.058  24.383  0.00  0.00    -0.031 C 
ATOM     10  C   UNL     1      -9.711  -4.820  24.241  0.00  0.00    +0.026 C 
ATOM     11  C   UNL     1      -9.609  -5.676  23.045  0.00  0.00    +0.009 C 
ATOM     12  C   UNL     1     -10.308  -5.102  21.795  0.00  0.00    +0.026 C 
ATOM     13  C   UNL     1     -11.698  -4.835  22.222  0.00  0.00    -0.034 C 
ATOM     14  C   UNL     1     -12.715  -5.243  21.561  0.00  0.00    -0.049 C 
ATOM     15  C   UNL     1     -15.320  -6.788  23.271  0.00  0.00    +0.000 C 
ATOM     16  C   UNL     1     -15.735  -8.207  22.932  0.00  0.00    +0.000 C 
ATOM     17  C   UNL     1     -14.961  -8.602  21.697  0.00  0.00    +0.000 C 
ENDROOT
TORSDOF 0
