MODEL 1
REMARK VINA RESULT:    -9.705      0.000      0.000
REMARK INTER + INTRA:         -13.137
REMARK INTER:                 -13.109
REMARK INTRA:                  -0.027
REMARK UNBOUND:                -0.027
REMARK  Name = =
REMARK  6 active torsions:
REMARK  status: ('A' for Active; 'I' for Inactive)
REMARK    1  A    between atoms: C_1  and  C_9
REMARK    2  A    between atoms: C_6  and  N_18
REMARK    3  A    between atoms: N_8  and  N_10
REMARK    4  A    between atoms: C_14  and  C_16
REMARK    5  A    between atoms: N_18  and  S_19
REMARK    6  A    between atoms: S_19  and  C_22
REMARK                            x       y       z     vdW  Elec       q    Type
REMARK                         _______ _______ _______ _____ _____    ______ ____
ROOT
ATOM      1  C   UNL     1      51.114 157.104  29.147  0.00  0.00    +0.074 C 
ATOM      2  C   UNL     1      50.542 155.886  29.838  0.00  0.00    +0.038 C 
ATOM      3  C   UNL     1      51.488 154.807  29.332  0.00  0.00    +0.117 C 
ATOM      4  O   UNL     1      52.717 155.479  29.556  0.00  0.00    -0.357 OA
ATOM      5  C   UNL     1      52.482 156.616  28.743  0.00  0.00    +0.137 C 
ATOM      6  C   UNL     1      52.313 155.914  27.408  0.00  0.00    +0.105 C 
ATOM      7  C   UNL     1      51.344 154.798  27.819  0.00  0.00    +0.049 C 
ENDROOT
BRANCH   1   9
ATOM      8  N   UNL     1      50.377 159.233  29.836  0.00  0.00    -0.171 NA
ATOM      9  C   UNL     1      51.168 158.251  30.081  0.00  0.00    +0.094 C 
BRANCH   8  10
ATOM     10  N   UNL     1      50.444 160.334  30.751  0.00  0.00    -0.107 N 
ATOM     11  C   UNL     1      51.675 160.983  30.965  0.00  0.00    +0.326 C 
ATOM     12  O   UNL     1      51.881 161.946  31.723  0.00  0.00    -0.251 OA
ATOM     13  N   UNL     1      52.874 160.542  30.263  0.00  0.00    -0.311 N 
ATOM     14  C   UNL     1      49.250 160.684  31.372  0.00  0.00    +0.275 C 
ATOM     15  O   UNL     1      48.183 160.030  31.111  0.00  0.00    -0.268 OA
ATOM     16  H   UNL     1      52.826 159.786  29.636  0.00  0.00    +0.147 HD
ATOM     17  H   UNL     1      53.731 161.001  30.418  0.00  0.00    +0.147 HD
BRANCH  14  18
ATOM     18  C   UNL     1      49.139 161.768  32.321  0.00  0.00    +0.060 C 
ATOM     19  C   UNL     1      48.877 161.489  33.583  0.00  0.00    +0.005 C 
ENDBRANCH  14  18
ENDBRANCH   8  10
ENDBRANCH   1   9
BRANCH   6  20
ATOM     20  N   UNL     1      53.528 155.274  26.999  0.00  0.00    -0.178 NA
ATOM     21  H   UNL     1      53.668 154.454  27.589  0.00  0.00    +0.149 HD
BRANCH  20  22
ATOM     22  S   UNL     1      53.563 154.767  25.373  0.00  0.00    +0.060 S 
ATOM     23  O   UNL     1      54.741 155.331  24.630  0.00  0.00    -0.153 OA
ATOM     24  O   UNL     1      52.301 155.289  24.712  0.00  0.00    -0.153 OA
BRANCH  22  25
ATOM     25  C   UNL     1      53.529 153.028  25.314  0.00  0.00    +0.122 C 
ATOM     26  C   UNL     1      54.278 152.337  24.390  0.00  0.00    +0.020 C 
ATOM     27  C   UNL     1      54.262 150.941  24.331  0.00  0.00    +0.001 C 
ATOM     28  C   UNL     1      53.482 150.213  25.214  0.00  0.00    +0.000 C 
ATOM     29  C   UNL     1      52.735 150.902  26.137  0.00  0.00    +0.001 C 
ATOM     30  C   UNL     1      52.760 152.285  26.185  0.00  0.00    +0.020 C 
ENDBRANCH  22  25
ENDBRANCH  20  22
ENDBRANCH   6  20
TORSDOF 6
ENDMDL
