MODEL 1
REMARK VINA RESULT:    -6.088      0.000      0.000
REMARK INTER + INTRA:         -13.102
REMARK INTER:                 -10.003
REMARK INTRA:                  -3.099
REMARK UNBOUND:                -3.099
REMARK  Name = =
REMARK  13 active torsions:
REMARK  status: ('A' for Active; 'I' for Inactive)
REMARK    1  A    between atoms: N_1  and  O_29
REMARK    2  A    between atoms: C_3  and  S_16
REMARK    3  A    between atoms: C_6  and  C_9
REMARK    4  A    between atoms: S_16  and  P_17
REMARK    5  A    between atoms: P_17  and  O_19
REMARK    6  A    between atoms: P_17  and  O_20
REMARK    7  A    between atoms: O_20  and  P_21
REMARK    8  A    between atoms: P_21  and  O_23
REMARK    9  A    between atoms: P_21  and  O_24
REMARK   10  A    between atoms: O_24  and  P_25
REMARK   11  A    between atoms: P_25  and  O_27
REMARK   12  A    between atoms: P_25  and  O_28
REMARK   13  A    between atoms: O_29  and  N_30
REMARK                            x       y       z     vdW  Elec       q    Type
REMARK                         _______ _______ _______ _____ _____    ______ ____
ROOT
ATOM      1  N   UNL     1      59.892 162.175  37.145  0.00  0.00    -0.088 NA
ATOM      2  C   UNL     1      61.204 162.741  36.970  0.00  0.00    +0.146 C 
ATOM      3  C   UNL     1      61.261 164.160  37.566  0.00  0.00    +0.141 C 
ATOM      4  N   UNL     1      60.252 164.228  38.552  0.00  0.00    -0.262 N 
ATOM      5  C   UNL     1      60.038 163.088  39.393  0.00  0.00    +0.114 C 
ATOM      6  C   UNL     1      59.612 161.942  38.526  0.00  0.00    +0.122 C 
ATOM      7  C   UNL     1      59.459 165.356  38.725  0.00  0.00    +0.304 C 
ATOM      8  O   UNL     1      59.554 166.410  38.032  0.00  0.00    -0.265 OA
ENDROOT
BRANCH   6   9
ATOM      9  C   UNL     1      60.301 160.632  38.912  0.00  0.00    +0.038 C 
ATOM     10  C   UNL     1      60.965 160.871  40.250  0.00  0.00    +0.006 C 
ATOM     11  C   UNL     1      60.820 159.695  41.179  0.00  0.00    +0.001 C 
ATOM     12  C   UNL     1      59.406 159.305  41.447  0.00  0.00    +0.004 C 
ATOM     13  C   UNL     1      58.445 159.705  40.361  0.00  0.00    +0.022 C 
ATOM     14  C   UNL     1      59.198 159.637  39.073  0.00  0.00    -0.043 C 
ATOM     15  C   UNL     1      58.900 158.750  38.134  0.00  0.00    -0.009 C 
ENDBRANCH   6   9
BRANCH   3  16
ATOM     16  S   UNL     1      62.933 164.377  38.139  0.00  0.00    -0.085 S 
ATOM     17  H   UNL     1      63.749 163.426  37.611  0.00  0.00    +0.105 HD
BRANCH  16  18
ATOM     18  P   UNL     1      63.436 166.113  37.523  0.00  0.00    +0.387 P 
ATOM     19  O   UNL     1      64.849 166.246  38.028  0.00  0.00    -0.247 OA
BRANCH  18  20
ATOM     20  O   UNL     1      62.466 167.280  38.223  0.00  0.00    -0.317 OA
ATOM     21  H   UNL     1      62.894 168.146  38.142  0.00  0.00    +0.221 HD
ENDBRANCH  18  20
BRANCH  18  22
ATOM     22  O   UNL     1      63.333 166.094  35.848  0.00  0.00    -0.200 OA
BRANCH  22  23
ATOM     23  P   UNL     1      63.134 167.717  35.348  0.00  0.00    +0.491 P 
ATOM     24  O   UNL     1      64.067 168.603  36.140  0.00  0.00    -0.226 OA
BRANCH  23  25
ATOM     25  O   UNL     1      63.586 167.878  33.711  0.00  0.00    -0.302 OA
ATOM     26  H   UNL     1      64.547 168.002  33.651  0.00  0.00    +0.222 HD
ENDBRANCH  23  25
BRANCH  23  27
ATOM     27  O   UNL     1      61.530 168.156  35.514  0.00  0.00    -0.186 OA
BRANCH  27  28
ATOM     28  P   UNL     1      60.619 167.741  34.173  0.00  0.00    +0.481 P 
ATOM     29  O   UNL     1      59.138 167.680  34.468  0.00  0.00    -0.227 OA
BRANCH  28  30
ATOM     30  O   UNL     1      60.875 168.836  32.895  0.00  0.00    -0.302 OA
ATOM     31  H   UNL     1      60.023 169.196  32.603  0.00  0.00    +0.222 HD
ENDBRANCH  28  30
BRANCH  28  32
ATOM     32  O   UNL     1      61.161 166.221  33.612  0.00  0.00    -0.302 OA
ATOM     33  H   UNL     1      60.848 166.080  32.704  0.00  0.00    +0.222 HD
ENDBRANCH  28  32
ENDBRANCH  27  28
ENDBRANCH  23  27
ENDBRANCH  22  23
ENDBRANCH  18  22
ENDBRANCH  16  18
ENDBRANCH   3  16
BRANCH   1  34
ATOM     34  O   UNL     1      58.927 162.821  36.456  0.00  0.00    -0.246 OA
BRANCH  34  35
ATOM     35  N   UNL     1      58.951 163.104  35.129  0.00  0.00    +0.237 N 
ATOM     36  O   UNL     1      58.871 162.110  34.190  0.00  0.00    -0.088 OA
ATOM     37  O   UNL     1      59.044 164.274  34.756  0.00  0.00    -0.088 OA
ENDBRANCH  34  35
ENDBRANCH   1  34
TORSDOF 13
ENDMDL
