MODEL 1
REMARK VINA RESULT:    -5.952      0.000      0.000
REMARK INTER + INTRA:         -10.586
REMARK INTER:                  -9.431
REMARK INTRA:                  -1.155
REMARK UNBOUND:                -1.155
REMARK  Name = =
REMARK  11 active torsions:
REMARK  status: ('A' for Active; 'I' for Inactive)
REMARK    1  A    between atoms: S_1  and  S_4
REMARK    2  A    between atoms: S_1  and  C_17
REMARK    3  A    between atoms: S_4  and  N_11
REMARK    4  A    between atoms: S_4  and  S_16
REMARK    5  A    between atoms: N_8  and  O_15
REMARK    6  A    between atoms: N_11  and  S_12
REMARK    7  A    between atoms: C_17  and  C_19
REMARK    8  A    between atoms: C_21  and  N_25
REMARK    9  A    between atoms: N_25  and  O_26
REMARK   10  A    between atoms: O_26  and  S_27
REMARK   11  A    between atoms: S_27  and  N_30
REMARK                            x       y       z     vdW  Elec       q    Type
REMARK                         _______ _______ _______ _____ _____    ______ ____
ROOT
ATOM      1  S   UNL     1      60.667 167.184  35.549  0.00  0.00    +0.090 S 
ATOM      2  O   UNL     1      59.961 166.886  36.795  0.00  0.00    -0.155 OA
ATOM      3  O   UNL     1      59.551 167.784  34.807  0.00  0.00    -0.155 OA
ENDROOT
BRANCH   1   4
ATOM      4  S   UNL     1      62.135 168.125  35.614  0.00  0.00    +0.017 S 
ATOM      5  H   UNL     1      62.533 168.543  34.382  0.00  0.00    +0.136 HD
BRANCH   4  12
ATOM      6  C   UNL     1      65.036 165.356  33.750  0.00  0.00    +0.477 C 
ATOM      7  O   UNL     1      65.749 164.522  34.333  0.00  0.00    -0.220 OA
ATOM      8  O   UNL     1      64.538 165.135  32.447  0.00  0.00    -0.220 OA
ATOM      9  N   UNL     1      64.650 166.602  34.322  0.00  0.00    -0.060 N 
ATOM     10  C   UNL     1      64.315 166.508  35.675  0.00  0.00    +0.367 C 
ATOM     11  O   UNL     1      65.084 165.751  36.397  0.00  0.00    -0.247 OA
ATOM     12  N   UNL     1      63.249 167.139  36.309  0.00  0.00    -0.094 N 
BRANCH  12  13
ATOM     13  S   UNL     1      63.057 166.840  38.039  0.00  0.00    +0.048 S 
ATOM     14  O   UNL     1      63.250 165.363  38.306  0.00  0.00    -0.157 OA
ATOM     15  O   UNL     1      64.200 167.561  38.704  0.00  0.00    -0.157 OA
ATOM     16  H   UNL     1      61.835 167.241  38.483  0.00  0.00    +0.234 HD
ENDBRANCH  12  13
BRANCH   9  17
ATOM     17  O   UNL     1      63.900 167.346  33.561  0.00  0.00    -0.282 OA
ATOM     18  H   UNL     1      64.132 167.194  32.631  0.00  0.00    +0.242 HD
ENDBRANCH   9  17
ENDBRANCH   4  12
BRANCH   4  19
ATOM     19  S   UNL     1      61.912 169.446  36.498  0.00  0.00    -0.094 S 
ATOM     20  H   UNL     1      63.036 169.707  37.216  0.00  0.00    +0.115 HD
ENDBRANCH   4  19
ENDBRANCH   1   4
BRANCH   1  21
ATOM     21  C   UNL     1      60.900 165.645  34.847  0.00  0.00    +0.311 C 
ATOM     22  O   UNL     1      61.545 165.524  33.781  0.00  0.00    -0.265 OA
BRANCH  21  23
ATOM     23  C   UNL     1      60.365 164.452  35.458  0.00  0.00    +0.059 C 
ATOM     24  C   UNL     1      60.958 163.840  36.569  0.00  0.00    +0.024 C 
ATOM     25  C   UNL     1      60.446 162.706  37.162  0.00  0.00    +0.080 C 
ATOM     26  C   UNL     1      59.296 162.163  36.625  0.00  0.00    +0.019 C 
ATOM     27  C   UNL     1      58.678 162.730  35.535  0.00  0.00    +0.002 C 
ATOM     28  C   UNL     1      59.223 163.857  34.976  0.00  0.00    +0.005 C 
BRANCH  25  29
ATOM     29  N   UNL     1      61.107 162.134  38.299  0.00  0.00    -0.239 N 
ATOM     30  H   UNL     1      61.405 162.709  39.040  0.00  0.00    +0.196 HD
BRANCH  29  31
ATOM     31  O   UNL     1      61.318 160.804  38.346  0.00  0.00    -0.119 OA
BRANCH  31  32
ATOM     32  S   UNL     1      61.319 160.326  39.968  0.00  0.00    +0.085 S 
ATOM     33  O   UNL     1      62.499 159.459  40.245  0.00  0.00    -0.051 OA
ATOM     34  O   UNL     1      61.356 161.591  40.779  0.00  0.00    -0.051 OA
BRANCH  32  35
ATOM     35  N   UNL     1      59.896 159.439  40.268  0.00  0.00    -0.176 N 
ATOM     36  C   UNL     1      58.627 160.045  40.173  0.00  0.00    +0.320 C 
ATOM     37  O   UNL     1      58.575 161.267  39.860  0.00  0.00    -0.264 OA
ATOM     38  H   UNL     1      59.961 158.488  40.513  0.00  0.00    +0.177 HD
ENDBRANCH  32  35
ENDBRANCH  31  32
ENDBRANCH  29  31
ENDBRANCH  25  29
ENDBRANCH  21  23
ENDBRANCH   1  21
TORSDOF 11
ENDMDL
