REMARK  Name = =
REMARK  13 active torsions:
REMARK  status: ('A' for Active; 'I' for Inactive)
REMARK    1  A    between atoms: N_1  and  O_29
REMARK    2  A    between atoms: C_3  and  S_16
REMARK    3  A    between atoms: C_6  and  C_9
REMARK    4  A    between atoms: S_16  and  P_17
REMARK    5  A    between atoms: P_17  and  O_19
REMARK    6  A    between atoms: P_17  and  O_20
REMARK    7  A    between atoms: O_20  and  P_21
REMARK    8  A    between atoms: P_21  and  O_23
REMARK    9  A    between atoms: P_21  and  O_24
REMARK   10  A    between atoms: O_24  and  P_25
REMARK   11  A    between atoms: P_25  and  O_27
REMARK   12  A    between atoms: P_25  and  O_28
REMARK   13  A    between atoms: O_29  and  N_30
REMARK                            x       y       z     vdW  Elec       q    Type
REMARK                         _______ _______ _______ _____ _____    ______ ____
ROOT
ATOM      1  N   UNL     1      54.345 159.001  27.963  0.00  0.00    -0.088 NA
ATOM      2  C   UNL     1      52.925 158.807  28.093  0.00  0.00    +0.146 C 
ATOM      3  C   UNL     1      52.628 157.585  28.982  0.00  0.00    +0.141 C 
ATOM      4  N   UNL     1      53.755 157.404  29.814  0.00  0.00    -0.262 N 
ATOM      5  C   UNL     1      54.402 158.564  30.353  0.00  0.00    +0.114 C 
ATOM      6  C   UNL     1      54.929 159.378  29.211  0.00  0.00    +0.122 C 
ATOM      7  C   UNL     1      54.260 156.145  30.117  0.00  0.00    +0.304 C 
ATOM      8  O   UNL     1      53.776 155.059  29.686  0.00  0.00    -0.265 OA
ENDROOT
BRANCH   6   9
ATOM      9  C   UNL     1      54.674 160.875  29.395  0.00  0.00    +0.038 C 
ATOM     10  C   UNL     1      53.968 161.032  30.724  0.00  0.00    +0.006 C 
ATOM     11  C   UNL     1      54.466 162.223  31.499  0.00  0.00    +0.001 C 
ATOM     12  C   UNL     1      55.931 162.199  31.774  0.00  0.00    +0.004 C 
ATOM     13  C   UNL     1      56.724 161.383  30.789  0.00  0.00    +0.022 C 
ATOM     14  C   UNL     1      56.029 161.500  29.473  0.00  0.00    -0.043 C 
ATOM     15  C   UNL     1      56.584 162.120  28.441  0.00  0.00    -0.009 C 
ENDBRANCH   6   9
BRANCH   3  16
ATOM     16  S   UNL     1      51.094 157.949  29.809  0.00  0.00    -0.085 S 
ATOM     17  H   UNL     1      50.470 159.004  29.220  0.00  0.00    +0.105 HD
BRANCH  16  18
ATOM     18  P   UNL     1      50.052 156.360  29.621  0.00  0.00    +0.387 P 
ATOM     19  O   UNL     1      50.950 155.304  30.211  0.00  0.00    -0.247 OA
BRANCH  18  20
ATOM     20  O   UNL     1      49.775 156.037  28.005  0.00  0.00    -0.317 OA
ATOM     21  H   UNL     1      50.623 155.915  27.550  0.00  0.00    +0.221 HD
ENDBRANCH  18  20
BRANCH  18  22
ATOM     22  O   UNL     1      48.638 156.587  30.495  0.00  0.00    -0.200 OA
BRANCH  22  23
ATOM     23  P   UNL     1      48.475 158.271  30.741  0.00  0.00    +0.491 P 
ATOM     24  O   UNL     1      47.051 158.583  31.138  0.00  0.00    -0.226 OA
BRANCH  23  25
ATOM     25  O   UNL     1      49.460 158.764  32.044  0.00  0.00    -0.302 OA
ATOM     26  H   UNL     1      49.188 158.297  32.850  0.00  0.00    +0.222 HD
ENDBRANCH  23  25
BRANCH  23  27
ATOM     27  O   UNL     1      48.954 159.083  29.361  0.00  0.00    -0.186 OA
BRANCH  27  28
ATOM     28  P   UNL     1      49.511 160.625  29.696  0.00  0.00    +0.481 P 
ATOM     29  O   UNL     1      49.086 161.117  31.060  0.00  0.00    -0.227 OA
BRANCH  28  30
ATOM     30  O   UNL     1      51.209 160.699  29.595  0.00  0.00    -0.302 OA
ATOM     31  H   UNL     1      51.598 160.114  30.264  0.00  0.00    +0.222 HD
ENDBRANCH  28  30
BRANCH  28  32
ATOM     32  O   UNL     1      48.917 161.679  28.489  0.00  0.00    -0.302 OA
ATOM     33  H   UNL     1      47.947 161.674  28.504  0.00  0.00    +0.222 HD
ENDBRANCH  28  32
ENDBRANCH  27  28
ENDBRANCH  23  27
ENDBRANCH  22  23
ENDBRANCH  18  22
ENDBRANCH  16  18
ENDBRANCH   3  16
BRANCH   1  34
ATOM     34  O   UNL     1      54.971 158.002  27.305  0.00  0.00    -0.246 OA
BRANCH  34  35
ATOM     35  N   UNL     1      54.440 157.252  26.306  0.00  0.00    +0.237 N 
ATOM     36  O   UNL     1      54.145 157.801  25.087  0.00  0.00    -0.088 OA
ATOM     37  O   UNL     1      54.219 156.055  26.493  0.00  0.00    -0.088 OA
ENDBRANCH  34  35
ENDBRANCH   1  34
TORSDOF 13
