REMARK  Name = =
REMARK  1 active torsions:
REMARK  status: ('A' for Active; 'I' for Inactive)
REMARK    1  A    between atoms: C_1  and  O_3
REMARK                            x       y       z     vdW  Elec       q    Type
REMARK                         _______ _______ _______ _____ _____    ______ ____
ROOT
ATOM      1  C   UNL     1      52.350 156.036  28.579  0.00  0.00    +0.415 C 
ATOM      2  O   UNL     1      52.937 157.136  28.739  0.00  0.00    -0.238 OA
ENDROOT
BRANCH   1   3
ATOM      3  O   UNL     1      53.107 154.877  28.677  0.00  0.00    -0.473 OA
ATOM      4  H   UNL     1      52.700 154.041  28.563  0.00  0.00    +0.296 HD
ENDBRANCH   1   3
TORSDOF 1
