REMARK  Name = =
REMARK  1 active torsions:
REMARK  status: ('A' for Active; 'I' for Inactive)
REMARK    1  A    between atoms: S_1  and  C_2
REMARK                            x       y       z     vdW  Elec       q    Type
REMARK                         _______ _______ _______ _____ _____    ______ ____
ROOT
ATOM      1  S   UNL     1      52.332 156.143  28.247  0.00  0.00    -0.097 S 
ATOM      2  H   UNL     1      52.081 157.206  27.436  0.00  0.00    +0.110 HD
ENDROOT
BRANCH   1   3
ATOM      3  C   UNL     1      51.026 155.999  29.464  0.00  0.00    +0.262 C 
ATOM      4  O   UNL     1      51.066 155.103  30.289  0.00  0.00    -0.276 OA
ENDBRANCH   1   3
TORSDOF 1
