REMARK  Name = =
REMARK  1 active torsions:
REMARK  status: ('A' for Active; 'I' for Inactive)
REMARK    1  A    between atoms: C_1  and  S_19
REMARK                            x       y       z     vdW  Elec       q    Type
REMARK                         _______ _______ _______ _____ _____    ______ ____
ROOT
ATOM      1  C   UNL     1      50.644 156.136  29.047  0.00  0.00    +0.280 C 
ATOM      2  O   UNL     1      49.496 155.681  29.120  0.00  0.00    -0.262 OA
ATOM      3  N   UNL     1      51.005 157.408  29.555  0.00  0.00    -0.231 N 
ATOM      4  C   UNL     1      50.139 158.242  30.166  0.00  0.00    +0.044 C 
ATOM      5  C   UNL     1      50.884 159.343  30.498  0.00  0.00    +0.082 C 
ATOM      6  C   UNL     1      52.184 159.234  30.122  0.00  0.00    +0.003 C 
ATOM      7  C   UNL     1      52.250 157.991  29.518  0.00  0.00    +0.069 C 
ATOM      8  C   UNL     1      53.207 160.262  30.349  0.00  0.00    +0.012 C 
ATOM      9  C   UNL     1      52.733 161.467  31.057  0.00  0.00    +0.040 C 
ATOM     10  N   UNL     1      53.027 162.689  30.332  0.00  0.00    -0.333 N 
ATOM     11  C   UNL     1      52.596 163.880  30.978  0.00  0.00    +0.087 C 
ATOM     12  C   UNL     1      51.845 163.664  32.274  0.00  0.00    +0.026 C 
ATOM     13  C   UNL     1      50.848 162.591  32.017  0.00  0.00    +0.029 C 
ATOM     14  C   UNL     1      51.297 161.510  31.415  0.00  0.00    -0.012 C 
ATOM     15  C   UNL     1      50.357 160.434  31.144  0.00  0.00    -0.016 C 
ATOM     16  C   UNL     1      49.026 160.477  31.498  0.00  0.00    -0.004 C 
ATOM     17  C   UNL     1      48.266 159.376  31.170  0.00  0.00    +0.001 C 
ATOM     18  C   UNL     1      48.795 158.257  30.510  0.00  0.00    +0.011 C 
ATOM     19  H   UNL     1      53.488 162.693  29.462  0.00  0.00    +0.147 HD
ENDROOT
BRANCH   1  20
ATOM     20  S   UNL     1      51.896 155.133  28.261  0.00  0.00    -0.084 S 
ATOM     21  H   UNL     1      51.344 153.961  27.848  0.00  0.00    +0.111 HD
ENDBRANCH   1  20
TORSDOF 1
