REMARK  Name = =
REMARK  9 active torsions:
REMARK  status: ('A' for Active; 'I' for Inactive)
REMARK    1  A    between atoms: C_1  and  P_5
REMARK    2  A    between atoms: C_1  and  P_9
REMARK    3  A    between atoms: C_2  and  C_3
REMARK    4  A    between atoms: P_5  and  O_7
REMARK    5  A    between atoms: P_5  and  O_8
REMARK    6  A    between atoms: P_9  and  O_11
REMARK    7  A    between atoms: P_9  and  O_12
REMARK    8  A    between atoms: O_12  and  C_13
REMARK    9  A    between atoms: C_13  and  O_15
REMARK                            x       y       z     vdW  Elec       q    Type
REMARK                         _______ _______ _______ _____ _____    ______ ____
ROOT
ATOM      1  C   UNL     1      55.176 157.125  26.190  0.00  0.00    +0.175 C 
ATOM      2  C   UNL     1      54.398 157.790  27.002  0.00  0.00    +0.061 C 
ENDROOT
BRANCH   2   3
ATOM      3  C   UNL     1      53.324 157.185  27.779  0.00  0.00    +0.235 C 
ATOM      4  O   UNL     1      52.983 157.612  28.912  0.00  0.00    -0.283 OA
ENDBRANCH   2   3
BRANCH   1   5
ATOM      5  P   UNL     1      54.940 155.377  25.995  0.00  0.00    +0.368 P 
ATOM      6  O   UNL     1      56.165 154.722  25.392  0.00  0.00    -0.253 OA
BRANCH   5   7
ATOM      7  O   UNL     1      54.649 154.699  27.512  0.00  0.00    -0.321 OA
ATOM      8  H   UNL     1      55.425 154.830  28.079  0.00  0.00    +0.220 HD
ENDBRANCH   5   7
BRANCH   5   9
ATOM      9  O   UNL     1      53.595 155.165  24.969  0.00  0.00    -0.321 OA
ATOM     10  H   UNL     1      52.817 155.588  25.364  0.00  0.00    +0.220 HD
ENDBRANCH   5   9
ENDBRANCH   1   5
BRANCH   1  11
ATOM     11  P   UNL     1      56.470 157.928  25.273  0.00  0.00    +0.423 P 
ATOM     12  O   UNL     1      57.465 156.903  24.772  0.00  0.00    -0.239 OA
BRANCH  11  13
ATOM     13  O   UNL     1      57.336 159.017  26.246  0.00  0.00    -0.311 OA
ATOM     14  H   UNL     1      57.683 158.551  27.023  0.00  0.00    +0.221 HD
ENDBRANCH  11  13
BRANCH  11  15
ATOM     15  O   UNL     1      55.842 158.727  23.888  0.00  0.00    -0.357 OA
BRANCH  15  16
ATOM     16  C   UNL     1      55.281 159.984  24.038  0.00  0.00    +0.514 C 
ATOM     17  O   UNL     1      55.155 160.558  25.140  0.00  0.00    -0.203 OA
BRANCH  16  18
ATOM     18  O   UNL     1      54.836 160.646  22.905  0.00  0.00    -0.449 OA
ATOM     19  H   UNL     1      54.453 161.498  22.980  0.00  0.00    +0.299 HD
ENDBRANCH  16  18
ENDBRANCH  15  16
ENDBRANCH  11  15
ENDBRANCH   1  11
TORSDOF 9
