REMARK  Name = =
REMARK  2 active torsions:
REMARK  status: ('A' for Active; 'I' for Inactive)
REMARK    1  A    between atoms: C_1  and  S_19
REMARK    2  A    between atoms: S_19  and  N_20
REMARK                            x       y       z     vdW  Elec       q    Type
REMARK                         _______ _______ _______ _____ _____    ______ ____
ROOT
ATOM      1  C   UNL     1      52.010 155.920  27.758  0.00  0.00    +0.302 C 
ATOM      2  O   UNL     1      51.105 155.078  27.551  0.00  0.00    -0.260 OA
ATOM      3  N   UNL     1      51.822 157.005  28.646  0.00  0.00    -0.230 N 
ATOM      4  C   UNL     1      50.684 157.227  29.331  0.00  0.00    +0.044 C 
ATOM      5  C   UNL     1      50.828 158.352  30.096  0.00  0.00    +0.082 C 
ATOM      6  C   UNL     1      52.077 158.851  29.892  0.00  0.00    +0.003 C 
ATOM      7  C   UNL     1      52.700 157.999  28.977  0.00  0.00    +0.069 C 
ATOM      8  C   UNL     1      52.518 160.066  30.587  0.00  0.00    +0.012 C 
ATOM      9  C   UNL     1      51.548 160.725  31.467  0.00  0.00    +0.040 C 
ATOM     10  N   UNL     1      51.531 162.145  31.439  0.00  0.00    -0.333 N 
ATOM     11  C   UNL     1      50.483 162.757  32.184  0.00  0.00    +0.087 C 
ATOM     12  C   UNL     1      49.819 161.875  33.199  0.00  0.00    +0.026 C 
ATOM     13  C   UNL     1      49.378 160.622  32.482  0.00  0.00    +0.029 C 
ATOM     14  C   UNL     1      50.234 160.081  31.644  0.00  0.00    -0.012 C 
ATOM     15  C   UNL     1      49.860 158.865  30.919  0.00  0.00    -0.016 C 
ATOM     16  C   UNL     1      48.628 158.252  31.031  0.00  0.00    -0.004 C 
ATOM     17  C   UNL     1      48.437 157.117  30.280  0.00  0.00    +0.001 C 
ATOM     18  C   UNL     1      49.435 156.599  29.440  0.00  0.00    +0.011 C 
ATOM     19  H   UNL     1      52.197 162.670  30.939  0.00  0.00    +0.147 HD
ENDROOT
BRANCH   1  20
ATOM     20  S   UNL     1      53.586 155.774  26.927  0.00  0.00    +0.045 S 
BRANCH  20  21
ATOM     21  N   UNL     1      53.751 154.198  26.178  0.00  0.00    -0.213 N 
ATOM     22  C   UNL     1      54.440 153.164  26.661  0.00  0.00    +0.178 C 
ATOM     23  N   UNL     1      54.337 152.107  25.800  0.00  0.00    -0.224 NA
ATOM     24  C   UNL     1      53.570 152.513  24.778  0.00  0.00    +0.117 C 
ATOM     25  C   UNL     1      53.202 153.826  25.014  0.00  0.00    +0.099 C 
ENDBRANCH  20  21
ENDBRANCH   1  20
TORSDOF 2
