REMARK  Name = =
REMARK  6 active torsions:
REMARK  status: ('A' for Active; 'I' for Inactive)
REMARK    1  A    between atoms: C_1  and  C_7
REMARK    2  A    between atoms: C_2  and  O_13
REMARK    3  A    between atoms: C_7  and  O_9
REMARK    4  A    between atoms: O_9  and  O_10
REMARK    5  A    between atoms: O_10  and  N_11
REMARK    6  A    between atoms: O_13  and  C_14
REMARK                            x       y       z     vdW  Elec       q    Type
REMARK                         _______ _______ _______ _____ _____    ______ ____
ROOT
ATOM      1  C   UNL     1      53.381 154.234  26.137  0.00  0.00    +0.113 C 
ATOM      2  C   UNL     1      53.177 155.382  26.854  0.00  0.00    +0.156 C 
ATOM      3  C   UNL     1      53.246 156.596  26.205  0.00  0.00    +0.038 C 
ATOM      4  C   UNL     1      53.515 156.696  24.839  0.00  0.00    +0.003 C 
ATOM      5  C   UNL     1      53.717 155.529  24.140  0.00  0.00    +0.000 C 
ATOM      6  C   UNL     1      53.646 154.303  24.804  0.00  0.00    +0.010 C 
ENDROOT
BRANCH   1   7
ATOM      7  C   UNL     1      53.307 152.963  26.829  0.00  0.00    +0.380 C 
ATOM      8  O   UNL     1      53.919 151.980  26.350  0.00  0.00    -0.242 OA
BRANCH   7   9
ATOM      9  O   UNL     1      52.593 152.793  27.991  0.00  0.00    -0.270 OA
BRANCH   9  10
ATOM     10  O   UNL     1      53.149 152.608  29.211  0.00  0.00    -0.035 OA
BRANCH  10  11
ATOM     11  N   UNL     1      54.455 152.285  29.424  0.00  0.00    +0.144 NA
ATOM     12  O   UNL     1      55.307 153.106  29.862  0.00  0.00    -0.066 OA
ENDBRANCH  10  11
ENDBRANCH   9  10
ENDBRANCH   7   9
ENDBRANCH   1   7
BRANCH   2  13
ATOM     13  O   UNL     1      52.902 155.405  28.215  0.00  0.00    -0.410 OA
BRANCH  13  14
ATOM     14  C   UNL     1      51.659 155.849  28.688  0.00  0.00    +0.417 C 
ATOM     15  O   UNL     1      50.720 155.021  28.599  0.00  0.00    -0.225 OA
ATOM     16  N   UNL     1      51.484 157.152  29.229  0.00  0.00    -0.178 N 
ATOM     17  C   UNL     1      50.221 157.652  29.728  0.00  0.00    +0.127 C 
ATOM     18  C   UNL     1      50.612 158.783  30.646  0.00  0.00    +0.113 C 
ATOM     19  N   UNL     1      51.788 159.334  29.974  0.00  0.00    -0.287 N 
ATOM     20  C   UNL     1      52.432 158.196  29.398  0.00  0.00    +0.312 C 
ATOM     21  O   UNL     1      53.651 158.113  29.081  0.00  0.00    -0.252 OA
ATOM     22  H   UNL     1      52.072 160.276  29.929  0.00  0.00    +0.151 HD
ENDBRANCH  13  14
ENDBRANCH   2  13
TORSDOF 6
