REMARK  Name = =
REMARK  10 active torsions:
REMARK  status: ('A' for Active; 'I' for Inactive)
REMARK    1  A    between atoms: P_1  and  C_3
REMARK    2  A    between atoms: P_1  and  O_14
REMARK    3  A    between atoms: P_1  and  O_15
REMARK    4  A    between atoms: C_3  and  P_7
REMARK    5  A    between atoms: C_4  and  C_5
REMARK    6  A    between atoms: P_7  and  O_9
REMARK    7  A    between atoms: P_7  and  O_10
REMARK    8  A    between atoms: O_10  and  C_11
REMARK    9  A    between atoms: C_11  and  O_13
REMARK   10  A    between atoms: O_15  and  N_16
REMARK                            x       y       z     vdW  Elec       q    Type
REMARK                         _______ _______ _______ _____ _____    ______ ____
ROOT
ATOM      1  P   UNL     1      53.953 154.627  25.084  0.00  0.00    +0.390 P 
ATOM      2  O   UNL     1      54.859 154.569  23.854  0.00  0.00    -0.251 OA
ENDROOT
BRANCH   1   3
ATOM      3  C   UNL     1      53.854 156.268  25.690  0.00  0.00    +0.177 C 
ATOM      4  C   UNL     1      53.067 156.687  26.624  0.00  0.00    +0.061 C 
BRANCH   4   5
ATOM      5  C   UNL     1      52.085 156.042  27.426  0.00  0.00    +0.235 C 
ATOM      6  O   UNL     1      51.611 154.917  27.281  0.00  0.00    -0.283 OA
ENDBRANCH   4   5
BRANCH   3   7
ATOM      7  P   UNL     1      54.962 157.493  24.921  0.00  0.00    +0.423 P 
ATOM      8  O   UNL     1      54.790 158.787  25.677  0.00  0.00    -0.239 OA
BRANCH   7   9
ATOM      9  O   UNL     1      54.553 157.741  23.324  0.00  0.00    -0.311 OA
ATOM     10  H   UNL     1      55.154 158.395  22.934  0.00  0.00    +0.221 HD
ENDBRANCH   7   9
BRANCH   7  11
ATOM     11  O   UNL     1      56.590 156.993  25.115  0.00  0.00    -0.357 OA
BRANCH  11  12
ATOM     12  C   UNL     1      57.579 157.816  25.629  0.00  0.00    +0.514 C 
ATOM     13  O   UNL     1      57.216 158.742  26.389  0.00  0.00    -0.203 OA
BRANCH  12  14
ATOM     14  O   UNL     1      58.938 157.662  25.344  0.00  0.00    -0.449 OA
ATOM     15  H   UNL     1      59.565 158.248  25.720  0.00  0.00    +0.299 HD
ENDBRANCH  12  14
ENDBRANCH  11  12
ENDBRANCH   7  11
ENDBRANCH   3   7
ENDBRANCH   1   3
BRANCH   1  16
ATOM     16  O   UNL     1      52.342 154.242  24.582  0.00  0.00    -0.319 OA
ATOM     17  H   UNL     1      52.054 154.875  23.905  0.00  0.00    +0.220 HD
ENDBRANCH   1  16
BRANCH   1  18
ATOM     18  O   UNL     1      54.358 153.515  26.222  0.00  0.00    -0.182 OA
BRANCH  18  19
ATOM     19  N   UNL     1      54.049 152.244  25.912  0.00  0.00    -0.088 N 
ATOM     20  C   UNL     1      54.931 151.466  25.144  0.00  0.00    +0.339 C 
ATOM     21  O   UNL     1      56.032 151.836  24.686  0.00  0.00    -0.250 OA
ATOM     22  N   UNL     1      54.555 150.114  24.842  0.00  0.00    -0.237 N 
ATOM     23  C   UNL     1      53.301 149.618  25.335  0.00  0.00    +0.239 C 
ATOM     24  O   UNL     1      53.105 148.415  25.602  0.00  0.00    -0.274 OA
ATOM     25  C   UNL     1      52.202 150.625  25.522  0.00  0.00    +0.173 C 
ATOM     26  C   UNL     1      52.811 151.694  26.376  0.00  0.00    +0.265 C 
ATOM     27  O   UNL     1      52.273 152.091  27.439  0.00  0.00    -0.272 OA
ATOM     28  H   UNL     1      55.146 149.537  24.306  0.00  0.00    +0.159 HD
ENDBRANCH  18  19
ENDBRANCH   1  18
TORSDOF 10
