REMARK  Name = =
REMARK  10 active torsions:
REMARK  status: ('A' for Active; 'I' for Inactive)
REMARK    1  A    between atoms: C_1  and  P_10
REMARK    2  A    between atoms: C_1  and  P_23
REMARK    3  A    between atoms: C_2  and  C_3
REMARK    4  A    between atoms: P_10  and  O_12
REMARK    5  A    between atoms: P_10  and  O_13
REMARK    6  A    between atoms: O_13  and  N_14
REMARK    7  A    between atoms: P_23  and  O_25
REMARK    8  A    between atoms: P_23  and  O_26
REMARK    9  A    between atoms: O_26  and  C_27
REMARK   10  A    between atoms: C_27  and  O_29
REMARK                            x       y       z     vdW  Elec       q    Type
REMARK                         _______ _______ _______ _____ _____    ______ ____
ROOT
ATOM      1  C   UNL     1      53.258 153.480  27.066  0.00  0.00    +0.178 C 
ATOM      2  C   UNL     1      54.202 152.743  26.608  0.00  0.00    +0.076 C 
ENDROOT
BRANCH   2   3
ATOM      3  C   UNL     1      55.537 152.419  26.925  0.00  0.00    +0.275 C 
ATOM      4  N   UNL     1      56.203 152.269  28.155  0.00  0.00    -0.113 N 
ATOM      5  N   UNL     1      55.778 152.350  29.391  0.00  0.00    -0.045 NA
ATOM      6  N   UNL     1      56.722 152.120  30.267  0.00  0.00    -0.024 NA
ATOM      7  N   UNL     1      57.842 151.871  29.601  0.00  0.00    -0.107 NA
ATOM      8  C   UNL     1      57.534 151.960  28.299  0.00  0.00    +0.218 C 
ATOM      9  O   UNL     1      56.311 152.220  25.889  0.00  0.00    -0.268 OA
ENDBRANCH   2   3
BRANCH   1  10
ATOM     10  P   UNL     1      51.692 153.403  26.083  0.00  0.00    +0.390 P 
ATOM     11  O   UNL     1      51.304 151.947  26.138  0.00  0.00    -0.251 OA
BRANCH  10  12
ATOM     12  O   UNL     1      50.527 154.364  26.802  0.00  0.00    -0.319 OA
ATOM     13  H   UNL     1      50.321 154.017  27.684  0.00  0.00    +0.220 HD
ENDBRANCH  10  12
BRANCH  10  14
ATOM     14  O   UNL     1      52.075 153.962  24.567  0.00  0.00    -0.182 OA
BRANCH  14  15
ATOM     15  N   UNL     1      53.119 154.828  24.552  0.00  0.00    -0.088 N 
ATOM     16  C   UNL     1      53.065 156.099  25.175  0.00  0.00    +0.339 C 
ATOM     17  O   UNL     1      52.024 156.441  25.763  0.00  0.00    -0.250 OA
ATOM     18  N   UNL     1      54.202 156.951  25.114  0.00  0.00    -0.237 N 
ATOM     19  C   UNL     1      55.388 156.590  24.457  0.00  0.00    +0.239 C 
ATOM     20  O   UNL     1      56.481 157.169  24.644  0.00  0.00    -0.274 OA
ATOM     21  C   UNL     1      55.338 155.466  23.499  0.00  0.00    +0.173 C 
ATOM     22  C   UNL     1      54.316 154.456  23.887  0.00  0.00    +0.265 C 
ATOM     23  O   UNL     1      54.511 153.239  23.622  0.00  0.00    -0.272 OA
ATOM     24  H   UNL     1      54.155 157.832  25.551  0.00  0.00    +0.159 HD
ENDBRANCH  14  15
ENDBRANCH  10  14
ENDBRANCH   1  10
BRANCH   1  25
ATOM     25  P   UNL     1      53.176 154.567  28.444  0.00  0.00    +0.423 P 
ATOM     26  O   UNL     1      53.615 155.984  28.127  0.00  0.00    -0.239 OA
BRANCH  25  27
ATOM     27  O   UNL     1      54.057 153.998  29.767  0.00  0.00    -0.311 OA
ATOM     28  H   UNL     1      54.990 153.906  29.519  0.00  0.00    +0.221 HD
ENDBRANCH  25  27
BRANCH  25  29
ATOM     29  O   UNL     1      51.536 154.688  29.012  0.00  0.00    -0.357 OA
BRANCH  29  30
ATOM     30  C   UNL     1      51.085 155.947  29.446  0.00  0.00    +0.514 C 
ATOM     31  O   UNL     1      51.828 156.923  29.295  0.00  0.00    -0.203 OA
BRANCH  30  32
ATOM     32  O   UNL     1      49.849 156.127  30.033  0.00  0.00    -0.449 OA
ATOM     33  H   UNL     1      49.582 156.981  30.310  0.00  0.00    +0.299 HD
ENDBRANCH  30  32
ENDBRANCH  29  30
ENDBRANCH  25  29
ENDBRANCH   1  25
TORSDOF 10
