REMARK  Name = =
REMARK  7 active torsions:
REMARK  status: ('A' for Active; 'I' for Inactive)
REMARK    1  A    between atoms: O_1  and  C_2
REMARK    2  A    between atoms: O_1  and  C_12
REMARK    3  A    between atoms: C_5  and  N_10
REMARK    4  A    between atoms: C_11  and  C_17
REMARK    5  A    between atoms: C_17  and  O_19
REMARK    6  A    between atoms: O_19  and  O_20
REMARK    7  A    between atoms: O_20  and  N_21
REMARK                            x       y       z     vdW  Elec       q    Type
REMARK                         _______ _______ _______ _____ _____    ______ ____
ROOT
ATOM      1  O   UNL     1      50.997 155.959  28.024  0.00  0.00    -0.410 OA
ENDROOT
BRANCH   1   2
ATOM      2  C   UNL     1      51.519 157.117  28.569  0.00  0.00    +0.417 C 
ATOM      3  O   UNL     1      52.681 157.433  28.275  0.00  0.00    -0.225 OA
ATOM      4  N   UNL     1      50.758 157.929  29.443  0.00  0.00    -0.166 N 
ATOM      5  C   UNL     1      49.390 157.721  29.899  0.00  0.00    +0.161 C 
ATOM      6  C   UNL     1      48.872 159.154  29.948  0.00  0.00    +0.128 C 
ATOM      7  N   UNL     1      50.035 159.880  30.453  0.00  0.00    -0.285 N 
ATOM      8  C   UNL     1      51.179 159.131  30.063  0.00  0.00    +0.313 C 
ATOM      9  O   UNL     1      52.411 159.437  30.218  0.00  0.00    -0.252 OA
ATOM     10  H   UNL     1      50.028 160.722  30.963  0.00  0.00    +0.151 HD
BRANCH   5  11
ATOM     11  N   UNL     1      49.385 157.249  31.285  0.00  0.00    -0.305 NA
ATOM     12  H   UNL     1      49.724 156.288  31.318  0.00  0.00    +0.120 HD
ATOM     13  H   UNL     1      48.435 157.287  31.654  0.00  0.00    +0.120 HD
ENDBRANCH   5  11
ENDBRANCH   1   2
BRANCH   1  15
ATOM     14  C   UNL     1      52.312 154.132  27.165  0.00  0.00    +0.114 C 
ATOM     15  C   UNL     1      51.667 154.759  28.206  0.00  0.00    +0.156 C 
ATOM     16  C   UNL     1      51.688 154.172  29.471  0.00  0.00    +0.038 C 
ATOM     17  C   UNL     1      52.338 152.981  29.706  0.00  0.00    +0.003 C 
ATOM     18  C   UNL     1      52.980 152.361  28.667  0.00  0.00    +0.000 C 
ATOM     19  C   UNL     1      52.958 152.946  27.407  0.00  0.00    +0.010 C 
BRANCH  14  20
ATOM     20  C   UNL     1      52.328 154.687  25.828  0.00  0.00    +0.393 C 
ATOM     21  O   UNL     1      51.237 155.029  25.310  0.00  0.00    -0.240 OA
BRANCH  20  22
ATOM     22  O   UNL     1      53.483 154.862  25.087  0.00  0.00    -0.219 OA
BRANCH  22  23
ATOM     23  O   UNL     1      53.561 154.259  23.874  0.00  0.00    -0.124 OA
BRANCH  23  24
ATOM     24  N   UNL     1      54.708 153.653  23.423  0.00  0.00    +0.202 NA
ATOM     25  O   UNL     1      55.851 154.040  23.691  0.00  0.00    -0.102 OA
ENDBRANCH  23  24
ENDBRANCH  22  23
ENDBRANCH  20  22
ENDBRANCH  14  20
ENDBRANCH   1  15
TORSDOF 7
