REMARK  Name = =
REMARK  8 active torsions:
REMARK  status: ('A' for Active; 'I' for Inactive)
REMARK    1  A    between atoms: C_1  and  O_15
REMARK    2  A    between atoms: C_4  and  N_9
REMARK    3  A    between atoms: N_9  and  C_10
REMARK    4  A    between atoms: O_15  and  C_17
REMARK    5  A    between atoms: C_16  and  C_22
REMARK    6  A    between atoms: C_22  and  O_24
REMARK    7  A    between atoms: O_24  and  O_25
REMARK    8  A    between atoms: O_25  and  N_26
REMARK                            x       y       z     vdW  Elec       q    Type
REMARK                         _______ _______ _______ _____ _____    ______ ____
ROOT
ATOM      1  C   UNL     1      52.916 155.466  26.828  0.00  0.00    +0.417 C 
ATOM      2  O   UNL     1      52.264 154.407  26.731  0.00  0.00    -0.225 OA
ATOM      3  N   UNL     1      53.834 155.782  25.762  0.00  0.00    -0.166 N 
ATOM      4  C   UNL     1      54.098 155.026  24.566  0.00  0.00    +0.164 C 
ATOM      5  C   UNL     1      54.766 156.034  23.620  0.00  0.00    +0.128 C 
ATOM      6  N   UNL     1      55.469 156.932  24.534  0.00  0.00    -0.285 N 
ATOM      7  C   UNL     1      54.676 156.942  25.711  0.00  0.00    +0.313 C 
ATOM      8  O   UNL     1      54.667 157.822  26.624  0.00  0.00    -0.252 OA
ATOM      9  H   UNL     1      56.307 157.422  24.370  0.00  0.00    +0.151 HD
ENDROOT
BRANCH   4  10
ATOM     10  N   UNL     1      55.018 153.952  24.689  0.00  0.00    -0.282 NA
ATOM     11  H   UNL     1      55.860 154.321  25.131  0.00  0.00    +0.125 HD
BRANCH  10  12
ATOM     12  C   UNL     1      54.608 152.817  25.437  0.00  0.00    +0.055 C 
ATOM     13  C   UNL     1      53.204 152.360  25.127  0.00  0.00    +0.016 C 
ATOM     14  C   UNL     1      53.284 150.897  25.551  0.00  0.00    +0.001 C 
ATOM     15  C   UNL     1      54.649 150.533  25.047  0.00  0.00    +0.001 C 
ATOM     16  C   UNL     1      55.407 151.616  24.979  0.00  0.00    +0.016 C 
ENDBRANCH  10  12
ENDBRANCH   4  10
BRANCH   1  17
ATOM     17  O   UNL     1      52.747 156.283  27.922  0.00  0.00    -0.410 OA
BRANCH  17  19
ATOM     18  C   UNL     1      51.071 157.122  29.482  0.00  0.00    +0.113 C 
ATOM     19  C   UNL     1      51.691 156.099  28.833  0.00  0.00    +0.156 C 
ATOM     20  C   UNL     1      51.252 154.795  29.088  0.00  0.00    +0.038 C 
ATOM     21  C   UNL     1      50.227 154.548  29.966  0.00  0.00    +0.003 C 
ATOM     22  C   UNL     1      49.590 155.570  30.631  0.00  0.00    +0.000 C 
ATOM     23  C   UNL     1      50.026 156.848  30.375  0.00  0.00    +0.010 C 
BRANCH  18  24
ATOM     24  C   UNL     1      51.484 158.489  29.250  0.00  0.00    +0.380 C 
ATOM     25  O   UNL     1      50.631 159.387  29.128  0.00  0.00    -0.242 OA
BRANCH  24  26
ATOM     26  O   UNL     1      52.816 158.799  29.163  0.00  0.00    -0.270 OA
BRANCH  26  27
ATOM     27  O   UNL     1      53.274 159.961  29.679  0.00  0.00    -0.035 OA
BRANCH  27  28
ATOM     28  N   UNL     1      52.837 160.502  30.864  0.00  0.00    +0.144 NA
ATOM     29  O   UNL     1      52.067 161.498  30.829  0.00  0.00    -0.066 OA
ENDBRANCH  27  28
ENDBRANCH  26  27
ENDBRANCH  24  26
ENDBRANCH  18  24
ENDBRANCH  17  19
ENDBRANCH   1  17
TORSDOF 8
