REMARK  Name = =
REMARK  15 active torsions:
REMARK  status: ('A' for Active; 'I' for Inactive)
REMARK    1  A    between atoms: C_1  and  C_2
REMARK    2  A    between atoms: C_1  and  P_10
REMARK    3  A    between atoms: C_1  and  O_11
REMARK    4  A    between atoms: C_1  and  P_23
REMARK    5  A    between atoms: C_2  and  C_3
REMARK    6  A    between atoms: P_10  and  C_12
REMARK    7  A    between atoms: P_10  and  O_18
REMARK    8  A    between atoms: P_10  and  O_19
REMARK    9  A    between atoms: C_12  and  C_14
REMARK   10  A    between atoms: N_16  and  O_17
REMARK   11  A    between atoms: O_19  and  C_20
REMARK   12  A    between atoms: C_20  and  O_22
REMARK   13  A    between atoms: P_23  and  O_25
REMARK   14  A    between atoms: P_23  and  O_26
REMARK   15  A    between atoms: O_26  and  N_27
REMARK                            x       y       z     vdW  Elec       q    Type
REMARK                         _______ _______ _______ _____ _____    ______ ____
ROOT
ATOM      1  C   UNL     1      52.248 155.619  28.041  0.00  0.00    +0.263 C 
ENDROOT
BRANCH   1   2
ATOM      2  O   UNL     1      51.781 156.264  29.711  0.00  0.00    -0.368 OA
ATOM      3  H   UNL     1      51.847 157.232  29.714  0.00  0.00    +0.212 HD
ENDBRANCH   1   2
BRANCH   1   4
ATOM      4  P   UNL     1      51.832 154.097  29.057  0.00  0.00    +0.392 P 
ATOM      5  O   UNL     1      51.299 154.569  30.365  0.00  0.00    -0.253 OA
BRANCH   4   6
ATOM      6  O   UNL     1      50.619 153.345  28.169  0.00  0.00    -0.321 OA
ATOM      7  H   UNL     1      50.979 153.043  27.321  0.00  0.00    +0.220 HD
ENDBRANCH   4   6
BRANCH   4   8
ATOM      8  O   UNL     1      53.157 153.094  29.143  0.00  0.00    -0.184 OA
BRANCH   8   9
ATOM      9  N   UNL     1      53.443 152.457  28.000  0.00  0.00    -0.088 N 
ATOM     10  C   UNL     1      52.450 151.831  27.193  0.00  0.00    +0.339 C 
ATOM     11  O   UNL     1      51.254 151.862  27.541  0.00  0.00    -0.250 OA
ATOM     12  N   UNL     1      52.806 151.166  25.984  0.00  0.00    -0.237 N 
ATOM     13  C   UNL     1      54.170 151.143  25.608  0.00  0.00    +0.239 C 
ATOM     14  O   UNL     1      54.630 150.252  24.849  0.00  0.00    -0.274 OA
ATOM     15  C   UNL     1      55.082 152.189  26.114  0.00  0.00    +0.173 C 
ATOM     16  C   UNL     1      54.791 152.392  27.558  0.00  0.00    +0.265 C 
ATOM     17  O   UNL     1      55.772 152.505  28.365  0.00  0.00    -0.272 OA
ATOM     18  H   UNL     1      52.121 150.734  25.425  0.00  0.00    +0.159 HD
ENDBRANCH   8   9
ENDBRANCH   4   8
ENDBRANCH   1   4
BRANCH   1  19
ATOM     19  C   UNL     1      53.101 155.345  27.107  0.00  0.00    +0.136 C 
BRANCH  19  20
ATOM     20  C   UNL     1      53.829 155.908  26.054  0.00  0.00    +0.255 C 
ATOM     21  N   UNL     1      54.444 155.362  24.931  0.00  0.00    -0.117 N 
ATOM     22  N   UNL     1      54.485 154.139  24.423  0.00  0.00    -0.045 NA
ATOM     23  N   UNL     1      55.153 154.076  23.296  0.00  0.00    -0.024 NA
ATOM     24  N   UNL     1      55.581 155.277  23.018  0.00  0.00    -0.107 NA
ATOM     25  C   UNL     1      55.166 156.070  23.990  0.00  0.00    +0.217 C 
ATOM     26  O   UNL     1      53.978 157.219  26.126  0.00  0.00    -0.273 OA
ENDBRANCH  19  20
ENDBRANCH   1  19
BRANCH   1  27
ATOM     27  P   UNL     1      51.438 157.053  28.517  0.00  0.00    +0.275 P 
BRANCH  27  28
ATOM     28  C   UNL     1      50.062 156.957  29.634  0.00  0.00    +0.302 C 
ATOM     29  O   UNL     1      49.397 155.935  29.720  0.00  0.00    -0.276 OA
BRANCH  28  30
ATOM     30  C   UNL     1      49.665 158.068  30.489  0.00  0.00    +0.312 C 
ATOM     31  O   UNL     1      49.630 157.890  31.729  0.00  0.00    -0.264 OA
ATOM     32  N   UNL     1      49.315 159.349  29.979  0.00  0.00    -0.191 N 
ATOM     33  H   UNL     1      49.331 159.529  29.011  0.00  0.00    +0.183 HD
BRANCH  32  34
ATOM     34  O   UNL     1      48.962 160.309  30.854  0.00  0.00    -0.295 OA
ATOM     35  H   UNL     1      49.004 159.955  31.756  0.00  0.00    +0.241 HD
ENDBRANCH  32  34
ENDBRANCH  28  30
ENDBRANCH  27  28
BRANCH  27  36
ATOM     36  O   UNL     1      50.836 157.448  26.971  0.00  0.00    -0.339 OA
ATOM     37  H   UNL     1      50.179 156.787  26.701  0.00  0.00    +0.218 HD
ENDBRANCH  27  36
BRANCH  27  38
ATOM     38  O   UNL     1      52.462 158.436  28.478  0.00  0.00    -0.384 OA
BRANCH  38  39
ATOM     39  C   UNL     1      53.203 158.937  29.491  0.00  0.00    +0.512 C 
ATOM     40  O   UNL     1      52.594 159.482  30.464  0.00  0.00    -0.203 OA
BRANCH  39  41
ATOM     41  O   UNL     1      54.615 158.915  29.582  0.00  0.00    -0.449 OA
ATOM     42  H   UNL     1      55.042 159.289  30.327  0.00  0.00    +0.299 HD
ENDBRANCH  39  41
ENDBRANCH  38  39
ENDBRANCH  27  38
ENDBRANCH   1  27
TORSDOF 15
