REMARK  Name = =
REMARK  9 active torsions:
REMARK  status: ('A' for Active; 'I' for Inactive)
REMARK    1  A    between atoms: C_1  and  O_20
REMARK    2  A    between atoms: C_4  and  N_9
REMARK    3  A    between atoms: N_9  and  C_10
REMARK    4  A    between atoms: C_10  and  S_15
REMARK    5  A    between atoms: O_20  and  C_22
REMARK    6  A    between atoms: C_21  and  C_27
REMARK    7  A    between atoms: C_27  and  O_29
REMARK    8  A    between atoms: O_29  and  O_30
REMARK    9  A    between atoms: O_30  and  N_31
REMARK                            x       y       z     vdW  Elec       q    Type
REMARK                         _______ _______ _______ _____ _____    ______ ____
ROOT
ATOM      1  C   UNL     1      52.774 156.612  27.607  0.00  0.00    +0.417 C 
ATOM      2  O   UNL     1      53.657 157.502  27.685  0.00  0.00    -0.225 OA
ATOM      3  N   UNL     1      51.825 156.449  28.651  0.00  0.00    -0.166 N 
ATOM      4  C   UNL     1      51.724 157.239  29.904  0.00  0.00    +0.165 C 
ATOM      5  C   UNL     1      51.299 156.184  30.852  0.00  0.00    +0.128 C 
ATOM      6  N   UNL     1      50.445 155.261  30.099  0.00  0.00    -0.285 N 
ATOM      7  C   UNL     1      50.762 155.505  28.744  0.00  0.00    +0.313 C 
ATOM      8  O   UNL     1      50.196 154.972  27.744  0.00  0.00    -0.252 OA
ATOM      9  H   UNL     1      49.795 154.615  30.458  0.00  0.00    +0.151 HD
ENDROOT
BRANCH   4  10
ATOM     10  N   UNL     1      50.924 158.328  29.637  0.00  0.00    -0.276 NA
ATOM     11  H   UNL     1      50.082 157.928  29.222  0.00  0.00    +0.125 HD
BRANCH  10  12
ATOM     12  C   UNL     1      50.456 159.289  30.499  0.00  0.00    +0.072 C 
ATOM     13  C   UNL     1      51.509 159.897  31.422  0.00  0.00    +0.024 C 
ATOM     14  C   UNL     1      52.186 160.946  30.569  0.00  0.00    +0.002 C 
ATOM     15  C   UNL     1      51.082 161.408  29.702  0.00  0.00    +0.002 C 
ATOM     16  C   UNL     1      50.152 160.517  29.663  0.00  0.00    +0.024 C 
BRANCH  12  17
ATOM     17  S   UNL     1      49.063 158.934  31.388  0.00  0.00    -0.177 S 
ATOM     18  C   UNL     1      47.398 159.234  30.629  0.00  0.00    +0.015 C 
ATOM     19  C   UNL     1      46.817 160.049  31.432  0.00  0.00    +0.006 C 
ATOM     20  C   UNL     1      47.479 160.506  32.601  0.00  0.00    +0.006 C 
ATOM     21  C   UNL     1      48.676 160.081  32.830  0.00  0.00    +0.015 C 
ATOM     22  H   UNL     1      49.430 157.644  31.611  0.00  0.00    +0.093 HD
ENDBRANCH  12  17
ENDBRANCH  10  12
ENDBRANCH   4  10
BRANCH   1  23
ATOM     23  O   UNL     1      52.730 155.802  26.512  0.00  0.00    -0.410 OA
BRANCH  23  25
ATOM     24  C   UNL     1      54.212 154.622  25.086  0.00  0.00    +0.113 C 
ATOM     25  C   UNL     1      53.686 155.825  25.492  0.00  0.00    +0.156 C 
ATOM     26  C   UNL     1      54.076 157.024  24.926  0.00  0.00    +0.038 C 
ATOM     27  C   UNL     1      55.015 157.055  23.923  0.00  0.00    +0.003 C 
ATOM     28  C   UNL     1      55.537 155.833  23.523  0.00  0.00    +0.000 C 
ATOM     29  C   UNL     1      55.155 154.632  24.082  0.00  0.00    +0.010 C 
BRANCH  24  30
ATOM     30  C   UNL     1      53.776 153.360  25.705  0.00  0.00    +0.380 C 
ATOM     31  O   UNL     1      53.007 153.358  26.683  0.00  0.00    -0.242 OA
BRANCH  30  32
ATOM     32  O   UNL     1      54.226 152.167  25.194  0.00  0.00    -0.270 OA
BRANCH  32  33
ATOM     33  O   UNL     1      53.870 150.991  25.784  0.00  0.00    -0.035 OA
BRANCH  33  34
ATOM     34  N   UNL     1      52.715 150.873  26.531  0.00  0.00    +0.144 NA
ATOM     35  O   UNL     1      51.754 150.207  26.099  0.00  0.00    -0.066 OA
ENDBRANCH  33  34
ENDBRANCH  32  33
ENDBRANCH  30  32
ENDBRANCH  24  30
ENDBRANCH  23  25
ENDBRANCH   1  23
TORSDOF 9
