REMARK  Name = =
REMARK  0 active torsions:
REMARK  status: ('A' for Active; 'I' for Inactive)
REMARK                            x       y       z     vdW  Elec       q    Type
REMARK                         _______ _______ _______ _____ _____    ______ ____
ROOT
ATOM      1  C   UNL     1      -4.366  -4.103  30.615  0.00  0.00    +0.076 C 
ATOM      2  S   UNL     1      -2.991  -5.104  29.906  0.00  0.00    -0.121 S 
ATOM      3  C   UNL     1      -1.652  -3.883  30.213  0.00  0.00    +0.128 C 
ATOM      4  N   UNL     1      -2.345  -2.917  31.025  0.00  0.00    -0.288 NA
ATOM      5  C   UNL     1      -3.659  -2.747  30.513  0.00  0.00    +0.081 C 
ATOM      6  H   UNL     1      -1.848  -2.026  30.997  0.00  0.00    +0.124 HD
ENDROOT
TORSDOF 0
