REMARK  Name = =
REMARK  1 active torsions:
REMARK  status: ('A' for Active; 'I' for Inactive)
REMARK    1  A    between atoms: N_1  and  C_10
REMARK                            x       y       z     vdW  Elec       q    Type
REMARK                         _______ _______ _______ _____ _____    ______ ____
ROOT
ATOM      1  N   UNL     1      -9.483   0.166  31.419  0.00  0.00    -0.280 N 
ATOM      2  C   UNL     1      -9.569  -0.799  30.368  0.00  0.00    +0.305 C 
ATOM      3  O   UNL     1      -8.928  -1.880  30.434  0.00  0.00    -0.253 OA
ATOM      4  N   UNL     1     -10.374  -0.572  29.222  0.00  0.00    -0.259 N 
ATOM      5  C   UNL     1     -11.152   0.648  29.055  0.00  0.00    +0.127 C 
ATOM      6  C   UNL     1     -11.875   0.537  27.713  0.00  0.00    +0.164 C 
ATOM      7  O   UNL     1     -10.978   0.298  26.685  0.00  0.00    -0.350 OA
ATOM      8  C   UNL     1     -10.238  -0.848  26.852  0.00  0.00    +0.164 C 
ATOM      9  C   UNL     1     -10.464  -1.548  28.155  0.00  0.00    +0.127 C 
ATOM     10  H   UNL     1      -9.979   1.015  31.380  0.00  0.00    +0.152 HD
ENDROOT
BRANCH   1  11
ATOM     11  C   UNL     1      -8.640  -0.160  32.533  0.00  0.00    +0.138 C 
ATOM     12  S   UNL     1      -8.536  -1.979  32.771  0.00  0.00    -0.102 S 
ATOM     13  C   UNL     1      -6.700  -2.087  32.858  0.00  0.00    +0.129 C 
ATOM     14  N   UNL     1      -6.385  -0.678  33.087  0.00  0.00    -0.286 NA
ATOM     15  C   UNL     1      -7.180   0.080  32.140  0.00  0.00    +0.101 C 
ATOM     16  H   UNL     1      -5.392  -0.509  32.929  0.00  0.00    +0.124 HD
ENDBRANCH   1  11
TORSDOF 1
