REMARK  Name = =
REMARK  2 active torsions:
REMARK  status: ('A' for Active; 'I' for Inactive)
REMARK    1  A    between atoms: C_1  and  N_17
REMARK    2  A    between atoms: S_2  and  C_6
REMARK                            x       y       z     vdW  Elec       q    Type
REMARK                         _______ _______ _______ _____ _____    ______ ____
ROOT
ATOM      1  C   UNL     1     -11.551  -2.760  23.830  0.00  0.00    +0.120 C 
ATOM      2  S   UNL     1     -10.958  -4.186  22.941  0.00  0.00    -0.193 S 
ATOM      3  C   UNL     1      -9.568  -4.567  24.012  0.00  0.00    +0.109 C 
ATOM      4  N   UNL     1      -9.293  -3.197  24.471  0.00  0.00    -0.288 NA
ATOM      5  C   UNL     1     -10.558  -2.759  25.001  0.00  0.00    +0.099 C 
ATOM      6  H   UNL     1     -10.632  -3.999  21.634  0.00  0.00    +0.087 HD
ATOM      7  H   UNL     1      -8.998  -2.605  23.695  0.00  0.00    +0.124 HD
ENDROOT
BRANCH   2   8
ATOM      8  C   UNL     1     -12.157  -5.472  22.641  0.00  0.00    +0.049 C 
ATOM      9  C   UNL     1     -11.618  -6.404  21.580  0.00  0.00    +0.012 C 
ATOM     10  C   UNL     1     -11.460  -5.738  20.268  0.00  0.00    +0.001 C 
ATOM     11  C   UNL     1     -10.073  -5.878  19.687  0.00  0.00    +0.000 C 
ATOM     12  C   UNL     1      -9.747  -7.371  19.737  0.00  0.00    +0.000 C 
ATOM     13  C   UNL     1      -9.521  -7.732  21.165  0.00  0.00    +0.000 C 
ATOM     14  C   UNL     1     -10.431  -7.085  22.140  0.00  0.00    +0.001 C 
ATOM     15  C   UNL     1     -10.967  -8.106  23.157  0.00  0.00    +0.004 C 
ATOM     16  C   UNL     1     -11.697  -7.434  24.284  0.00  0.00    +0.023 C 
ATOM     17  C   UNL     1     -12.446  -6.220  23.859  0.00  0.00    -0.036 C 
ATOM     18  C   UNL     1     -13.429  -5.814  24.649  0.00  0.00    -0.008 C 
ENDBRANCH   2   8
BRANCH   1  19
ATOM     19  N   UNL     1     -11.355  -1.545  23.115  0.00  0.00    -0.282 N 
ATOM     20  C   UNL     1     -12.287  -0.480  23.236  0.00  0.00    +0.305 C 
ATOM     21  O   UNL     1     -13.272  -0.668  23.992  0.00  0.00    -0.253 OA
ATOM     22  N   UNL     1     -12.084   0.729  22.521  0.00  0.00    -0.259 N 
ATOM     23  C   UNL     1     -10.953   0.951  21.651  0.00  0.00    +0.127 C 
ATOM     24  C   UNL     1     -10.764   2.472  21.577  0.00  0.00    +0.164 C 
ATOM     25  O   UNL     1     -10.976   3.019  22.842  0.00  0.00    -0.350 OA
ATOM     26  C   UNL     1     -12.300   2.996  23.225  0.00  0.00    +0.164 C 
ATOM     27  C   UNL     1     -13.043   1.804  22.655  0.00  0.00    +0.127 C 
ATOM     28  H   UNL     1     -10.568  -1.442  22.533  0.00  0.00    +0.152 HD
ENDBRANCH   1  19
TORSDOF 2
