REMARK  Name = =
REMARK  6 active torsions:
REMARK  status: ('A' for Active; 'I' for Inactive)
REMARK    1  A    between atoms: C_1  and  N_17
REMARK    2  A    between atoms: S_2  and  C_6
REMARK    3  A    between atoms: N_4  and  O_26
REMARK    4  A    between atoms: O_26  and  P_27
REMARK    5  A    between atoms: P_27  and  O_29
REMARK    6  A    between atoms: P_27  and  O_30
REMARK                            x       y       z     vdW  Elec       q    Type
REMARK                         _______ _______ _______ _____ _____    ______ ____
ROOT
ATOM      1  C   UNL     1      -8.949  -2.045  23.108  0.00  0.00    +0.123 C 
ATOM      2  S   UNL     1      -9.704  -0.891  24.233  0.00  0.00    -0.191 S 
ATOM      3  C   UNL     1      -8.348   0.280  24.313  0.00  0.00    +0.141 C 
ATOM      4  N   UNL     1      -7.478  -0.171  23.252  0.00  0.00    -0.144 NA
ATOM      5  C   UNL     1      -7.499  -1.608  23.254  0.00  0.00    +0.132 C 
ATOM      6  H   UNL     1     -10.913  -0.431  23.814  0.00  0.00    +0.087 HD
ENDROOT
BRANCH   2   7
ATOM      7  C   UNL     1     -10.256  -1.489  25.816  0.00  0.00    +0.049 C 
ATOM      8  C   UNL     1     -10.549  -0.307  26.720  0.00  0.00    +0.012 C 
ATOM      9  C   UNL     1      -9.479  -0.045  27.695  0.00  0.00    +0.001 C 
ATOM     10  C   UNL     1      -9.968   0.209  29.104  0.00  0.00    +0.000 C 
ATOM     11  C   UNL     1     -10.909  -0.923  29.453  0.00  0.00    +0.000 C 
ATOM     12  C   UNL     1     -12.136  -0.788  28.618  0.00  0.00    +0.000 C 
ATOM     13  C   UNL     1     -11.926  -0.264  27.246  0.00  0.00    +0.001 C 
ATOM     14  C   UNL     1     -13.007  -0.515  26.284  0.00  0.00    +0.004 C 
ATOM     15  C   UNL     1     -12.708  -1.605  25.277  0.00  0.00    +0.023 C 
ATOM     16  C   UNL     1     -11.456  -2.311  25.744  0.00  0.00    -0.036 C 
ATOM     17  C   UNL     1     -11.530  -3.605  26.053  0.00  0.00    -0.008 C 
ENDBRANCH   2   7
BRANCH   1  18
ATOM     18  N   UNL     1      -9.150  -3.397  23.503  0.00  0.00    -0.281 N 
ATOM     19  C   UNL     1     -10.025  -4.239  22.776  0.00  0.00    +0.305 C 
ATOM     20  O   UNL     1     -10.606  -3.699  21.772  0.00  0.00    -0.253 OA
ATOM     21  N   UNL     1     -10.289  -5.595  23.077  0.00  0.00    -0.259 N 
ATOM     22  C   UNL     1      -9.709  -6.338  24.151  0.00  0.00    +0.127 C 
ATOM     23  C   UNL     1     -10.704  -7.214  24.876  0.00  0.00    +0.164 C 
ATOM     24  O   UNL     1     -11.610  -7.819  24.020  0.00  0.00    -0.350 OA
ATOM     25  C   UNL     1     -12.263  -6.924  23.190  0.00  0.00    +0.164 C 
ATOM     26  C   UNL     1     -11.239  -6.342  22.236  0.00  0.00    +0.127 C 
ATOM     27  H   UNL     1      -8.676  -3.750  24.290  0.00  0.00    +0.152 HD
ENDBRANCH   1  18
BRANCH   4  28
ATOM     28  O   UNL     1      -7.731   0.367  22.060  0.00  0.00    -0.192 OA
BRANCH  28  29
ATOM     29  P   UNL     1      -6.294   0.954  21.372  0.00  0.00    +0.489 P 
ATOM     30  O   UNL     1      -5.947   2.321  21.955  0.00  0.00    -0.226 OA
BRANCH  29  31
ATOM     31  O   UNL     1      -5.006  -0.073  21.690  0.00  0.00    -0.302 OA
ATOM     32  H   UNL     1      -4.911  -0.185  22.649  0.00  0.00    +0.222 HD
ENDBRANCH  29  31
BRANCH  29  33
ATOM     33  O   UNL     1      -6.464   1.153  19.690  0.00  0.00    -0.302 OA
ATOM     34  H   UNL     1      -5.633   1.488  19.318  0.00  0.00    +0.222 HD
ENDBRANCH  29  33
ENDBRANCH  28  29
ENDBRANCH   4  28
TORSDOF 6
