MODEL 1
REMARK VINA RESULT:    -8.770      0.000      0.000
REMARK INTER + INTRA:         -16.452
REMARK INTER:                 -14.667
REMARK INTRA:                  -1.786
REMARK UNBOUND:                -1.786
REMARK  Name = =
REMARK  12 active torsions:
REMARK  status: ('A' for Active; 'I' for Inactive)
REMARK    1  A    between atoms: C_1  and  C_7
REMARK    2  A    between atoms: C_2  and  C_34
REMARK    3  A    between atoms: C_6  and  C_17
REMARK    4  A    between atoms: C_7  and  O_9
REMARK    5  A    between atoms: O_9  and  C_10
REMARK    6  A    between atoms: C_10  and  S_12
REMARK    7  A    between atoms: C_17  and  O_19
REMARK    8  A    between atoms: O_19  and  N_20
REMARK    9  A    between atoms: C_23  and  S_26
REMARK   10  A    between atoms: C_25  and  S_28
REMARK   11  A    between atoms: S_28  and  C_29
REMARK   12  A    between atoms: C_34  and  O_36
REMARK                            x       y       z     vdW  Elec       q    Type
REMARK                         _______ _______ _______ _____ _____    ______ ____
ROOT
ATOM      1  C   UNL     1      -3.529  -5.693  31.212  0.00  0.00    +0.087 C 
ATOM      2  C   UNL     1      -2.908  -6.753  32.015  0.00  0.00    +0.079 C 
ATOM      3  C   UNL     1      -2.789  -6.714  33.320  0.00  0.00    +0.121 C 
ATOM      4  N   UNL     1      -3.278  -5.606  34.044  0.00  0.00    -0.328 N 
ATOM      5  C   UNL     1      -3.900  -4.547  33.349  0.00  0.00    +0.065 C 
ATOM      6  C   UNL     1      -4.021  -4.587  32.041  0.00  0.00    +0.098 C 
ATOM      7  H   UNL     1      -3.185  -5.572  35.024  0.00  0.00    +0.147 HD
ENDROOT
BRANCH   1   8
ATOM      8  C   UNL     1      -2.423  -5.186  30.303  0.00  0.00    +0.348 C 
ATOM      9  O   UNL     1      -2.289  -5.674  29.184  0.00  0.00    -0.244 OA
BRANCH   8  10
ATOM     10  O   UNL     1      -1.553  -4.187  30.692  0.00  0.00    -0.383 OA
BRANCH  10  11
ATOM     11  C   UNL     1      -1.232  -3.116  29.915  0.00  0.00    +0.358 C 
ATOM     12  O   UNL     1      -1.977  -2.117  29.886  0.00  0.00    -0.239 OA
BRANCH  11  13
ATOM     13  S   UNL     1       0.263  -3.087  28.903  0.00  0.00    -0.121 S 
ATOM     14  C   UNL     1       0.619  -1.430  28.148  0.00  0.00    +0.066 C 
ATOM     15  C   UNL     1      -0.035  -1.692  26.826  0.00  0.00    +0.100 C 
ATOM     16  N   UNL     1       0.663  -2.917  26.405  0.00  0.00    -0.207 NA
ATOM     17  C   UNL     1       0.133  -3.954  27.305  0.00  0.00    +0.135 C 
ATOM     18  H   UNL     1       1.148  -3.588  29.806  0.00  0.00    +0.095 HD
ENDBRANCH  11  13
ENDBRANCH  10  11
ENDBRANCH   8  10
ENDBRANCH   1   8
BRANCH   6  19
ATOM     19  C   UNL     1      -4.723  -3.433  31.445  0.00  0.00    +0.361 C 
ATOM     20  O   UNL     1      -5.245  -3.486  30.315  0.00  0.00    -0.243 OA
BRANCH  19  21
ATOM     21  O   UNL     1      -4.843  -2.218  32.107  0.00  0.00    -0.360 OA
BRANCH  21  22
ATOM     22  N   UNL     1      -5.960  -1.743  32.688  0.00  0.00    -0.108 NA
ATOM     23  C   UNL     1      -6.881  -2.718  33.169  0.00  0.00    +0.115 C 
ATOM     24  C   UNL     1      -8.061  -2.783  32.221  0.00  0.00    +0.034 C 
ATOM     25  C   UNL     1      -8.855  -1.476  32.341  0.00  0.00    +0.080 C 
ATOM     26  C   UNL     1      -7.925  -0.324  32.585  0.00  0.00    +0.044 C 
ATOM     27  C   UNL     1      -6.582  -0.658  31.946  0.00  0.00    +0.150 C 
BRANCH  25  28
ATOM     28  S   UNL     1      -9.806  -1.144  30.868  0.00  0.00    +0.018 S 
ATOM     29  O   UNL     1      -8.999  -1.374  29.598  0.00  0.00    -0.260 OA
ATOM     30  H   UNL     1     -10.219   0.152  30.895  0.00  0.00    +0.139 HD
ENDBRANCH  25  28
BRANCH  27  31
ATOM     31  S   UNL     1      -5.560   0.803  31.874  0.00  0.00    -0.055 S 
BRANCH  31  32
ATOM     32  C   UNL     1      -5.289   1.300  30.183  0.00  0.00    +0.209 A 
ATOM     33  N   UNL     1      -6.070   1.997  29.352  0.00  0.00    -0.234 N 
ATOM     34  N   UNL     1      -5.473   2.150  28.190  0.00  0.00    -0.046 NA
ATOM     35  N   UNL     1      -4.310   1.544  28.298  0.00  0.00    -0.022 NA
ATOM     36  N   UNL     1      -4.162   1.019  29.486  0.00  0.00    -0.102 NA
ATOM     37  H   UNL     1      -6.963   2.346  29.576  0.00  0.00    +0.193 HD
ENDBRANCH  31  32
ENDBRANCH  27  31
ENDBRANCH  21  22
ENDBRANCH  19  21
ENDBRANCH   6  19
BRANCH   2  38
ATOM     38  C   UNL     1      -2.394  -7.966  31.345  0.00  0.00    +0.336 C 
ATOM     39  O   UNL     1      -1.333  -8.475  31.756  0.00  0.00    -0.245 OA
BRANCH  38  40
ATOM     40  O   UNL     1      -3.049  -8.538  30.293  0.00  0.00    -0.477 OA
ATOM     41  H   UNL     1      -2.829  -8.296  29.415  0.00  0.00    +0.295 HD
ENDBRANCH  38  40
ENDBRANCH   2  38
TORSDOF 12
ENDMDL
