MODEL 1
REMARK VINA RESULT:   -10.171      0.000      0.000
REMARK INTER + INTRA:         -15.944
REMARK INTER:                 -13.144
REMARK INTRA:                  -2.800
REMARK UNBOUND:                -2.800
REMARK  Name = =
REMARK  5 active torsions:
REMARK  status: ('A' for Active; 'I' for Inactive)
REMARK    1  A    between atoms: C_1  and  N_24
REMARK    2  A    between atoms: C_2  and  N_7
REMARK    3  A    between atoms: C_3  and  C_35
REMARK    4  A    between atoms: C_26  and  C_29
REMARK    5  A    between atoms: C_35  and  C_37
REMARK                            x       y       z     vdW  Elec       q    Type
REMARK                         _______ _______ _______ _____ _____    ______ ____
ROOT
ATOM      1  C   UNL     1       4.145  -4.330  26.681  0.00  0.00    +0.093 C 
ATOM      2  C   UNL     1       3.186  -3.712  27.452  0.00  0.00    +0.101 C 
ATOM      3  C   UNL     1       2.862  -2.396  27.213  0.00  0.00    +0.058 C 
ATOM      4  C   UNL     1       3.472  -1.674  26.218  0.00  0.00    +0.005 C 
ATOM      5  C   UNL     1       4.429  -2.275  25.440  0.00  0.00    +0.002 C 
ATOM      6  C   UNL     1       4.757  -3.586  25.672  0.00  0.00    +0.018 C 
ENDROOT
BRANCH   2   7
ATOM      7  N   UNL     1       2.549  -4.448  28.481  0.00  0.00    -0.228 N 
ATOM      8  N   UNL     1       2.835  -4.418  29.790  0.00  0.00    -0.165 NA
ATOM      9  C   UNL     1       2.034  -5.240  30.483  0.00  0.00    +0.103 A 
ATOM     10  C   UNL     1       1.853  -5.635  31.888  0.00  0.00    +0.022 C 
ATOM     11  C   UNL     1       0.862  -6.560  32.192  0.00  0.00    +0.040 C 
ATOM     12  C   UNL     1      -0.006  -7.153  31.165  0.00  0.00    +0.196 C 
ATOM     13  O   UNL     1      -0.898  -7.984  31.433  0.00  0.00    -0.287 OA
ATOM     14  C   UNL     1       0.215  -6.728  29.787  0.00  0.00    +0.042 C 
ATOM     15  C   UNL     1       1.209  -5.813  29.560  0.00  0.00    +0.040 A 
ATOM     16  C   UNL     1       1.538  -5.313  28.325  0.00  0.00    +0.084 A 
ATOM     17  C   UNL     1       0.795  -5.792  27.270  0.00  0.00    +0.019 C 
ATOM     18  C   UNL     1      -0.227  -6.728  27.473  0.00  0.00    +0.002 C 
ATOM     19  C   UNL     1      -0.553  -7.225  28.722  0.00  0.00    +0.003 C 
ATOM     20  C   UNL     1       0.710  -6.919  33.514  0.00  0.00    +0.003 C 
ATOM     21  C   UNL     1       1.509  -6.378  34.486  0.00  0.00    +0.000 C 
ATOM     22  C   UNL     1       2.501  -5.451  34.170  0.00  0.00    +0.000 C 
ATOM     23  C   UNL     1       2.660  -5.085  32.832  0.00  0.00    +0.002 C 
ENDBRANCH   2   7
BRANCH   1  24
ATOM     24  N   UNL     1       4.497  -5.687  26.908  0.00  0.00    -0.167 N 
ATOM     25  N   UNL     1       3.672  -6.694  26.606  0.00  0.00    -0.155 NA
ATOM     26  C   UNL     1       4.230  -7.879  26.917  0.00  0.00    +0.185 C 
ATOM     27  N   UNL     1       5.436  -7.592  27.425  0.00  0.00    -0.207 NA
ATOM     28  C   UNL     1       5.585  -6.246  27.413  0.00  0.00    +0.190 C 
BRANCH  26  29
ATOM     29  C   UNL     1       3.651  -9.237  26.744  0.00  0.00    +0.175 C 
ATOM     30  O   UNL     1       3.548  -9.577  25.400  0.00  0.00    -0.349 OA
ATOM     31  C   UNL     1       3.473 -10.974  25.342  0.00  0.00    +0.143 C 
ATOM     32  C   UNL     1       2.494 -11.567  26.298  0.00  0.00    +0.032 C 
ATOM     33  C   UNL     1       1.520 -10.531  26.846  0.00  0.00    +0.006 C 
ATOM     34  C   UNL     1       2.304  -9.342  27.392  0.00  0.00    +0.038 C 
ENDBRANCH  26  29
ENDBRANCH   1  24
BRANCH   3  35
ATOM     35  C   UNL     1       1.871  -1.737  28.031  0.00  0.00    +0.197 C 
ATOM     36  O   UNL     1       2.226  -0.813  28.790  0.00  0.00    -0.287 OA
BRANCH  35  37
ATOM     37  C   UNL     1       0.485  -2.127  27.984  0.00  0.00    +0.039 C 
ATOM     38  C   UNL     1      -0.214  -2.249  26.805  0.00  0.00    +0.003 C 
ATOM     39  C   UNL     1      -1.566  -2.615  26.795  0.00  0.00    +0.000 C 
ATOM     40  C   UNL     1      -2.239  -2.862  27.963  0.00  0.00    +0.000 C 
ATOM     41  C   UNL     1      -1.551  -2.744  29.152  0.00  0.00    +0.000 C 
ATOM     42  C   UNL     1      -0.222  -2.386  29.165  0.00  0.00    +0.003 C 
ENDBRANCH  35  37
ENDBRANCH   3  35
TORSDOF 5
ENDMDL
