REMARK  Name = =
REMARK  16 active torsions:
REMARK  status: ('A' for Active; 'I' for Inactive)
REMARK    1  A    between atoms: C_1  and  C_2
REMARK    2  A    between atoms: C_1  and  C_23
REMARK    3  A    between atoms: C_1  and  N_36
REMARK    4  A    between atoms: C_2  and  C_3
REMARK    5  A    between atoms: C_2  and  C_9
REMARK    6  A    between atoms: C_14  and  N_15
REMARK    7  A    between atoms: N_15  and  C_16
REMARK    8  A    between atoms: C_16  and  N_17
REMARK    9  A    between atoms: C_16  and  N_20
REMARK   10  A    between atoms: N_20  and  C_21
REMARK   11  A    between atoms: C_23  and  C_25
REMARK   12  A    between atoms: C_25  and  C_26
REMARK   13  A    between atoms: C_26  and  S_31
REMARK   14  A    between atoms: S_31  and  P_32
REMARK   15  A    between atoms: P_32  and  O_34
REMARK   16  A    between atoms: P_32  and  O_35
REMARK                            x       y       z     vdW  Elec       q    Type
REMARK                         _______ _______ _______ _____ _____    ______ ____
ROOT
ATOM      1  C   UNL     1      61.187 166.616  40.908  0.00  0.00    +0.098 C 
ENDROOT
BRANCH   1   2
ATOM      2  C   UNL     1      59.834 167.059  40.762  0.00  0.00    +0.148 C 
ATOM      3  N   UNL     1      59.263 167.636  41.886  0.00  0.00    -0.209 NA
ATOM      4  C   UNL     1      58.068 168.121  41.925  0.00  0.00    +0.201 C 
ATOM      5  N   UNL     1      57.264 168.090  40.814  0.00  0.00    -0.202 NA
ATOM      6  C   UNL     1      57.772 167.529  39.669  0.00  0.00    +0.201 C 
ATOM      7  N   UNL     1      59.023 167.048  39.709  0.00  0.00    -0.209 NA
ENDBRANCH   1   2
BRANCH   1   8
ATOM      8  C   UNL     1      62.203 167.721  40.854  0.00  0.00    +0.001 C 
ATOM      9  C   UNL     1      62.481 168.415  41.980  0.00  0.00    -0.003 C 
ATOM     10  C   UNL     1      63.515 169.380  41.896  0.00  0.00    -0.000 C 
ATOM     11  C   UNL     1      64.188 169.585  40.726  0.00  0.00    +0.001 C 
ATOM     12  C   UNL     1      63.893 168.868  39.569  0.00  0.00    +0.016 C 
ATOM     13  C   UNL     1      62.895 167.949  39.671  0.00  0.00    +0.065 C 
BRANCH  13  14
ATOM     14  N   UNL     1      62.369 167.304  38.548  0.00  0.00    -0.205 NA
BRANCH  14  15
ATOM     15  C   UNL     1      61.496 168.041  37.861  0.00  0.00    +0.232 C 
BRANCH  15  16
ATOM     16  N   UNL     1      61.395 169.198  38.480  0.00  0.00    -0.269 N 
ATOM     17  C   UNL     1      61.294 170.353  39.096  0.00  0.00    +0.302 C 
ATOM     18  O   UNL     1      60.551 171.170  38.569  0.00  0.00    -0.265 OA
ATOM     19  H   UNL     1      61.534 168.748  39.345  0.00  0.00    +0.153 HD
ENDBRANCH  15  16
BRANCH  15  20
ATOM     20  N   UNL     1      61.034 167.204  36.869  0.00  0.00    -0.237 NA
ATOM     21  H   UNL     1      60.249 166.699  37.280  0.00  0.00    +0.129 HD
BRANCH  20  22
ATOM     22  C   UNL     1      60.588 167.633  35.609  0.00  0.00    +0.258 C 
ATOM     23  O   UNL     1      60.784 168.892  35.591  0.00  0.00    -0.201 OA
ENDBRANCH  20  22
ENDBRANCH  15  20
ENDBRANCH  14  15
ENDBRANCH  13  14
ENDBRANCH   1   8
BRANCH   1  24
ATOM     24  C   UNL     1      61.704 165.432  40.987  0.00  0.00    +0.087 C 
BRANCH  24  25
ATOM     25  N   UNL     1      63.118 165.321  41.389  0.00  0.00    -0.270 NA
ATOM     26  C   UNL     1      64.497 165.170  41.417  0.00  0.00    +0.090 C 
ATOM     27  C   UNL     1      63.824 165.368  42.755  0.00  0.00    +0.090 C 
ENDBRANCH  24  25
BRANCH  24  28
ATOM     28  C   UNL     1      61.042 164.167  40.943  0.00  0.00    +0.110 C 
ATOM     29  N   UNL     1      60.147 164.051  39.940  0.00  0.00    -0.131 NA
BRANCH  28  30
ATOM     30  C   UNL     1      61.265 162.924  41.670  0.00  0.00    +0.055 C 
BRANCH  30  31
ATOM     31  C   UNL     1      60.504 161.730  41.059  0.00  0.00    +0.123 C 
ATOM     32  S   UNL     1      59.521 162.392  39.653  0.00  0.00    -0.181 S 
ATOM     33  C   UNL     1      60.274 161.333  38.387  0.00  0.00    +0.063 C 
ATOM     34  C   UNL     1      61.619 161.062  39.089  0.00  0.00    +0.080 C 
ATOM     35  N   UNL     1      61.398 160.868  40.453  0.00  0.00    -0.283 NA
ATOM     36  H   UNL     1      59.743 163.715  39.432  0.00  0.00    +0.094 HD
ATOM     37  H   UNL     1      62.295 160.965  40.930  0.00  0.00    +0.125 HD
BRANCH  31  38
ATOM     38  S   UNL     1      59.415 161.105  42.345  0.00  0.00    -0.009 S 
BRANCH  38  39
ATOM     39  P   UNL     1      58.598 159.233  41.926  0.00  0.00    +0.389 P 
ATOM     40  O   UNL     1      58.086 159.156  40.525  0.00  0.00    -0.246 OA
BRANCH  39  41
ATOM     41  O   UNL     1      59.660 157.946  42.304  0.00  0.00    -0.316 OA
ATOM     42  H   UNL     1      59.966 158.037  43.220  0.00  0.00    +0.221 HD
ENDBRANCH  39  41
BRANCH  39  43
ATOM     43  O   UNL     1      57.243 159.037  42.972  0.00  0.00    -0.316 OA
ATOM     44  H   UNL     1      57.538 159.082  43.895  0.00  0.00    +0.221 HD
ENDBRANCH  39  43
ENDBRANCH  38  39
ENDBRANCH  31  38
ENDBRANCH  30  31
ENDBRANCH  28  30
ENDBRANCH  24  28
ENDBRANCH   1  24
TORSDOF 16
