REMARK  Name = =
REMARK  1 active torsions:
REMARK  status: ('A' for Active; 'I' for Inactive)
REMARK    1  A    between atoms: C_1  and  C_21
REMARK                            x       y       z     vdW  Elec       q    Type
REMARK                         _______ _______ _______ _____ _____    ______ ____
ROOT
ATOM      1  C   UNL     1     -12.611 -42.785  27.444  0.00  0.00    +0.099 C 
ATOM      2  C   UNL     1     -12.707 -42.390  28.929  0.00  0.00    +0.014 C 
ATOM      3  C   UNL     1     -13.643 -43.388  29.540  0.00  0.00    +0.005 C 
ATOM      4  C   UNL     1     -15.041 -43.090  29.086  0.00  0.00    +0.026 C 
ATOM      5  C   UNL     1     -15.088 -42.587  27.696  0.00  0.00    -0.026 C 
ATOM      6  C   UNL     1     -13.981 -42.435  26.910  0.00  0.00    -0.018 C 
ATOM      7  C   UNL     1     -14.134 -41.958  25.628  0.00  0.00    -0.001 C 
ATOM      8  C   UNL     1     -15.402 -41.634  25.136  0.00  0.00    +0.042 C 
ATOM      9  C   UNL     1     -16.517 -41.782  25.912  0.00  0.00    +0.042 C 
ATOM     10  C   UNL     1     -16.367 -42.258  27.195  0.00  0.00    -0.001 C 
ATOM     11  C   UNL     1     -17.873 -41.461  25.457  0.00  0.00    +0.196 C 
ATOM     12  O   UNL     1     -18.890 -41.602  26.185  0.00  0.00    -0.287 OA
ATOM     13  C   UNL     1     -18.003 -40.952  24.078  0.00  0.00    +0.042 C 
ATOM     14  C   UNL     1     -16.915 -40.788  23.265  0.00  0.00    +0.042 C 
ATOM     15  C   UNL     1     -16.975 -40.317  21.969  0.00  0.00    +0.003 C 
ATOM     16  C   UNL     1     -18.224 -39.997  21.482  0.00  0.00    +0.000 C 
ATOM     17  C   UNL     1     -19.340 -40.154  22.287  0.00  0.00    +0.000 C 
ATOM     18  C   UNL     1     -19.249 -40.624  23.570  0.00  0.00    +0.003 C 
ATOM     19  C   UNL     1     -15.571 -41.128  23.779  0.00  0.00    +0.196 C 
ATOM     20  O   UNL     1     -14.543 -40.989  23.054  0.00  0.00    -0.287 OA
ENDROOT
BRANCH   1  21
ATOM     21  C   UNL     1     -12.372 -44.220  27.374  0.00  0.00    +0.229 C 
ATOM     22  O   UNL     1     -12.954 -44.897  26.481  0.00  0.00    -0.275 OA
ATOM     23  N   UNL     1     -11.514 -44.879  28.263  0.00  0.00    -0.274 N 
ATOM     24  C   UNL     1     -10.828 -44.123  29.299  0.00  0.00    +0.125 C 
ATOM     25  C   UNL     1      -9.506 -44.854  29.556  0.00  0.00    +0.164 C 
ATOM     26  O   UNL     1      -9.100 -45.399  28.357  0.00  0.00    -0.350 OA
ATOM     27  C   UNL     1      -9.812 -46.612  28.207  0.00  0.00    +0.164 C 
ATOM     28  C   UNL     1     -11.303 -46.322  28.139  0.00  0.00    +0.125 C 
ENDBRANCH   1  21
TORSDOF 1
