MODEL 1
REMARK VINA RESULT:    -8.206      0.000      0.000
REMARK INTER + INTRA:         -11.350
REMARK INTER:                 -11.324
REMARK INTRA:                  -0.025
REMARK UNBOUND:                -0.025
REMARK  Name = =
REMARK  8 active torsions:
REMARK  status: ('A' for Active; 'I' for Inactive)
REMARK    1  A    between atoms: C_1  and  S_33
REMARK    2  A    between atoms: C_3  and  S_7
REMARK    3  A    between atoms: C_3  and  N_15
REMARK    4  A    between atoms: N_15  and  C_18
REMARK    5  A    between atoms: C_16  and  C_26
REMARK    6  A    between atoms: C_31  and  O_32
REMARK    7  A    between atoms: S_33  and  S_34
REMARK    8  A    between atoms: S_33  and  S_35
REMARK                            x       y       z     vdW  Elec       q    Type
REMARK                         _______ _______ _______ _____ _____    ______ ____
ROOT
ATOM      1  C   UNL     1       1.147  -8.686  27.855  0.00  0.00    +0.048 C 
ATOM      2  C   UNL     1       0.455  -7.399  27.490  0.00  0.00    +0.038 C 
ATOM      3  C   UNL     1       0.710  -6.306  28.495  0.00  0.00    +0.085 C 
ATOM      4  C   UNL     1       2.203  -6.120  28.466  0.00  0.00    +0.027 C 
ATOM      5  C   UNL     1       3.078  -7.290  28.273  0.00  0.00    +0.003 C 
ATOM      6  C   UNL     1       2.600  -8.439  27.468  0.00  0.00    +0.011 C 
ENDROOT
BRANCH   3   7
ATOM      7  S   UNL     1       0.035  -4.791  27.692  0.00  0.00    -0.195 S 
ATOM      8  C   UNL     1       1.172  -3.357  27.616  0.00  0.00    +0.116 C 
ATOM      9  N   UNL     1       0.091  -2.350  27.689  0.00  0.00    -0.272 N 
ATOM     10  C   UNL     1      -0.824  -2.636  28.706  0.00  0.00    +0.104 C 
ATOM     11  C   UNL     1      -1.071  -3.880  28.949  0.00  0.00    +0.061 C 
ATOM     12  C   UNL     1       0.701  -1.657  26.585  0.00  0.00    +0.229 C 
ATOM     13  O   UNL     1       0.686  -0.508  26.112  0.00  0.00    -0.275 OA
ATOM     14  C   UNL     1       1.401  -2.905  26.191  0.00  0.00    +0.115 C 
ATOM     15  H   UNL     1      -0.421  -5.282  26.509  0.00  0.00    +0.087 HD
ENDBRANCH   3   7
BRANCH   3  16
ATOM     16  N   UNL     1       0.131  -6.463  29.794  0.00  0.00    -0.273 N 
ATOM     17  C   UNL     1      -1.168  -7.021  29.845  0.00  0.00    +0.270 C 
ATOM     18  O   UNL     1      -1.719  -7.313  28.713  0.00  0.00    -0.268 OA
BRANCH  16  19
ATOM     19  C   UNL     1       0.725  -6.026  31.034  0.00  0.00    +0.080 C 
ATOM     20  C   UNL     1       1.477  -4.712  30.971  0.00  0.00    +0.041 C 
ATOM     21  C   UNL     1       2.662  -4.723  31.931  0.00  0.00    +0.096 C 
ATOM     22  N   UNL     1       2.308  -5.342  33.192  0.00  0.00    -0.272 N 
ATOM     23  C   UNL     1       1.486  -6.531  33.275  0.00  0.00    +0.096 C 
ATOM     24  C   UNL     1       1.496  -7.064  31.807  0.00  0.00    +0.041 C 
ATOM     25  C   UNL     1       2.789  -4.752  34.375  0.00  0.00    +0.303 C 
ATOM     26  O   UNL     1       3.498  -3.731  34.378  0.00  0.00    -0.265 OA
ENDBRANCH  16  19
BRANCH  17  27
ATOM     27  C   UNL     1      -2.012  -7.329  30.958  0.00  0.00    +0.168 C 
ATOM     28  N   UNL     1      -1.778  -8.251  31.864  0.00  0.00    -0.236 NA
ATOM     29  C   UNL     1      -2.540  -8.591  32.911  0.00  0.00    +0.099 C 
ATOM     30  C   UNL     1      -3.726  -7.934  33.116  0.00  0.00    +0.024 C 
ATOM     31  C   UNL     1      -4.051  -6.949  32.208  0.00  0.00    +0.040 C 
ATOM     32  C   UNL     1      -3.229  -6.637  31.147  0.00  0.00    +0.156 C 
BRANCH  32  33
ATOM     33  O   UNL     1      -3.634  -5.638  30.288  0.00  0.00    -0.504 OA
ATOM     34  H   UNL     1      -3.007  -5.032  29.945  0.00  0.00    +0.292 HD
ENDBRANCH  32  33
ENDBRANCH  17  27
ENDBRANCH   3  16
BRANCH   1  35
ATOM     35  S   UNL     1       0.479 -10.084  27.182  0.00  0.00    -0.152 S 
ATOM     36  H   UNL     1      -0.371 -10.933  27.820  0.00  0.00    +0.104 HD
BRANCH  35  37
ATOM     37  S   UNL     1       1.972 -11.003  26.925  0.00  0.00    -0.123 S 
ATOM     38  H   UNL     1       1.933 -12.145  27.662  0.00  0.00    +0.113 HD
ENDBRANCH  35  37
BRANCH  35  39
ATOM     39  S   UNL     1      -0.504  -9.561  26.004  0.00  0.00    -0.123 S 
ATOM     40  H   UNL     1      -1.781  -9.942  26.277  0.00  0.00    +0.113 HD
ENDBRANCH  35  39
ENDBRANCH   1  35
TORSDOF 8
ENDMDL
