REMARK  Name = =
REMARK  8 active torsions:
REMARK  status: ('A' for Active; 'I' for Inactive)
REMARK    1  A    between atoms: C_1  and  S_33
REMARK    2  A    between atoms: C_3  and  S_7
REMARK    3  A    between atoms: C_3  and  N_15
REMARK    4  A    between atoms: N_15  and  C_18
REMARK    5  A    between atoms: C_16  and  C_26
REMARK    6  A    between atoms: C_31  and  O_32
REMARK    7  A    between atoms: S_33  and  S_34
REMARK    8  A    between atoms: S_33  and  S_35
REMARK                            x       y       z     vdW  Elec       q    Type
REMARK                         _______ _______ _______ _____ _____    ______ ____
ROOT
ATOM      1  C   UNL     1     -16.600 -10.265  18.141  0.00  0.00    +0.048 C 
ATOM      2  C   UNL     1     -15.326  -9.844  18.826  0.00  0.00    +0.038 C 
ATOM      3  C   UNL     1     -14.516 -11.020  19.304  0.00  0.00    +0.085 C 
ATOM      4  C   UNL     1     -14.201 -11.785  18.047  0.00  0.00    +0.027 C 
ATOM      5  C   UNL     1     -15.200 -11.851  16.966  0.00  0.00    +0.003 C 
ATOM      6  C   UNL     1     -16.136 -10.720  16.763  0.00  0.00    +0.011 C 
ENDROOT
BRANCH   3   7
ATOM      7  S   UNL     1     -12.907 -10.280  19.815  0.00  0.00    -0.195 S 
ATOM      8  C   UNL     1     -12.713  -8.490  19.482  0.00  0.00    +0.116 C 
ATOM      9  N   UNL     1     -11.249  -8.568  19.286  0.00  0.00    -0.272 N 
ATOM     10  C   UNL     1     -10.889  -9.619  18.437  0.00  0.00    +0.104 C 
ATOM     11  C   UNL     1     -11.601 -10.695  18.491  0.00  0.00    +0.061 C 
ATOM     12  C   UNL     1     -11.100  -7.433  20.158  0.00  0.00    +0.229 C 
ATOM     13  O   UNL     1     -10.247  -6.555  20.371  0.00  0.00    -0.275 OA
ATOM     14  C   UNL     1     -12.431  -7.716  20.751  0.00  0.00    +0.115 C 
ATOM     15  H   UNL     1     -12.815 -10.682  21.111  0.00  0.00    +0.087 HD
ENDBRANCH   3   7
BRANCH   3  16
ATOM     16  N   UNL     1     -15.055 -11.793  20.380  0.00  0.00    -0.273 N 
ATOM     17  C   UNL     1     -15.418 -11.084  21.549  0.00  0.00    +0.270 C 
ATOM     18  O   UNL     1     -15.205  -9.809  21.544  0.00  0.00    -0.268 OA
BRANCH  16  19
ATOM     19  C   UNL     1     -15.179 -13.230  20.399  0.00  0.00    +0.080 C 
ATOM     20  C   UNL     1     -13.944 -13.998  19.974  0.00  0.00    +0.041 C 
ATOM     21  C   UNL     1     -14.331 -15.289  19.260  0.00  0.00    +0.096 C 
ATOM     22  N   UNL     1     -15.446 -15.938  19.921  0.00  0.00    -0.272 N 
ATOM     23  C   UNL     1     -16.579 -15.204  20.443  0.00  0.00    +0.096 C 
ATOM     24  C   UNL     1     -16.424 -13.802  19.773  0.00  0.00    +0.041 C 
ATOM     25  C   UNL     1     -15.411 -17.338  20.053  0.00  0.00    +0.303 C 
ATOM     26  O   UNL     1     -14.470 -18.031  19.629  0.00  0.00    -0.265 OA
ENDBRANCH  16  19
BRANCH  17  27
ATOM     27  C   UNL     1     -15.995 -11.535  22.778  0.00  0.00    +0.168 C 
ATOM     28  N   UNL     1     -15.704 -12.658  23.394  0.00  0.00    -0.236 NA
ATOM     29  C   UNL     1     -16.224 -13.135  24.531  0.00  0.00    +0.099 C 
ATOM     30  C   UNL     1     -17.187 -12.407  25.182  0.00  0.00    +0.024 C 
ATOM     31  C   UNL     1     -17.554 -11.211  24.603  0.00  0.00    +0.040 C 
ATOM     32  C   UNL     1     -16.985 -10.766  23.429  0.00  0.00    +0.156 C 
BRANCH  32  33
ATOM     33  O   UNL     1     -17.413  -9.558  22.921  0.00  0.00    -0.504 OA
ATOM     34  H   UNL     1     -17.046  -9.228  22.125  0.00  0.00    +0.292 HD
ENDBRANCH  32  33
ENDBRANCH  17  27
ENDBRANCH   3  16
BRANCH   1  35
ATOM     35  S   UNL     1     -17.826  -9.104  18.112  0.00  0.00    -0.152 S 
ATOM     36  H   UNL     1     -18.489  -8.635  19.203  0.00  0.00    +0.104 HD
BRANCH  35  37
ATOM     37  S   UNL     1     -19.028 -10.001  17.169  0.00  0.00    -0.123 S 
ATOM     38  H   UNL     1     -18.441 -10.508  16.052  0.00  0.00    +0.113 HD
ENDBRANCH  35  37
BRANCH  35  39
ATOM     39  S   UNL     1     -17.103  -7.734  17.632  0.00  0.00    -0.123 S 
ATOM     40  H   UNL     1     -16.362  -7.979  16.518  0.00  0.00    +0.113 HD
ENDBRANCH  35  39
ENDBRANCH   1  35
TORSDOF 8
