REMARK  Name = =
REMARK  12 active torsions:
REMARK  status: ('A' for Active; 'I' for Inactive)
REMARK    1  A    between atoms: S_1  and  P_2
REMARK    2  A    between atoms: S_1  and  O_5
REMARK    3  A    between atoms: P_2  and  O_4
REMARK    4  A    between atoms: P_2  and  O_17
REMARK    5  A    between atoms: O_5  and  P_7
REMARK    6  A    between atoms: S_6  and  S_9
REMARK    7  A    between atoms: S_9  and  C_10
REMARK    8  A    between atoms: P_13  and  O_15
REMARK    9  A    between atoms: P_13  and  O_16
REMARK   10  A    between atoms: O_17  and  O_18
REMARK   11  A    between atoms: O_18  and  C_19
REMARK   12  A    between atoms: C_19  and  C_21
REMARK                            x       y       z     vdW  Elec       q    Type
REMARK                         _______ _______ _______ _____ _____    ______ ____
ROOT
ATOM      1  S   UNL     1      51.384 155.954  28.188  0.00  0.00    +0.028 S 
ATOM      2  H   UNL     1      52.460 156.614  28.694  0.00  0.00    +0.133 HD
ENDROOT
BRANCH   1   3
ATOM      3  P   UNL     1      50.031 155.836  29.558  0.00  0.00    +0.437 P 
ATOM      4  O   UNL     1      49.179 154.709  29.053  0.00  0.00    -0.242 OA
BRANCH   3   5
ATOM      5  O   UNL     1      50.655 155.641  31.066  0.00  0.00    -0.314 OA
ATOM      6  H   UNL     1      51.213 154.848  31.085  0.00  0.00    +0.221 HD
ENDBRANCH   3   5
BRANCH   3   7
ATOM      7  O   UNL     1      49.063 157.227  29.556  0.00  0.00    -0.085 OA
BRANCH   7   8
ATOM      8  O   UNL     1      49.781 158.322  29.689  0.00  0.00    -0.283 OA
BRANCH   8   9
ATOM      9  C   UNL     1      49.509 159.209  30.715  0.00  0.00    +0.375 C 
ATOM     10  O   UNL     1      48.421 159.144  31.307  0.00  0.00    -0.242 OA
BRANCH   9  11
ATOM     11  C   UNL     1      50.501 160.204  31.087  0.00  0.00    +0.079 C 
ATOM     12  C   UNL     1      50.256 161.095  32.106  0.00  0.00    +0.007 C 
ATOM     13  C   UNL     1      51.196 162.032  32.451  0.00  0.00    +0.000 C 
ATOM     14  C   UNL     1      52.415 162.121  31.799  0.00  0.00    +0.000 C 
ATOM     15  C   UNL     1      52.667 161.235  30.780  0.00  0.00    +0.000 C 
ATOM     16  C   UNL     1      51.715 160.304  30.447  0.00  0.00    +0.007 C 
ENDBRANCH   9  11
ENDBRANCH   8   9
ENDBRANCH   7   8
ENDBRANCH   3   7
ENDBRANCH   1   3
BRANCH   1  17
ATOM     17  O   UNL     1      51.882 154.459  27.647  0.00  0.00    -0.232 OA
BRANCH  17  19
ATOM     18  S   UNL     1      53.210 153.257  25.311  0.00  0.00    +0.028 S 
ATOM     19  P   UNL     1      53.343 154.368  26.900  0.00  0.00    +0.422 P 
ATOM     20  O   UNL     1      54.288 153.505  27.688  0.00  0.00    -0.243 OA
ATOM     21  O   UNL     1      53.971 155.830  26.435  0.00  0.00    -0.210 OA
ATOM     22  P   UNL     1      53.591 156.093  24.799  0.00  0.00    +0.397 P 
ATOM     23  O   UNL     1      52.755 154.950  24.251  0.00  0.00    -0.230 OA
ATOM     24  H   UNL     1      52.456 152.126  25.345  0.00  0.00    +0.133 HD
BRANCH  22  25
ATOM     25  O   UNL     1      52.690 157.507  24.595  0.00  0.00    -0.313 OA
ATOM     26  H   UNL     1      51.885 157.458  25.134  0.00  0.00    +0.221 HD
ENDBRANCH  22  25
BRANCH  22  27
ATOM     27  O   UNL     1      54.994 156.182  23.858  0.00  0.00    -0.313 OA
ATOM     28  H   UNL     1      55.513 155.371  23.974  0.00  0.00    +0.221 HD
ENDBRANCH  22  27
BRANCH  18  29
ATOM     29  S   UNL     1      55.065 152.685  24.624  0.00  0.00    +0.036 S 
BRANCH  29  30
ATOM     30  C   UNL     1      56.314 152.382  25.790  0.00  0.00    +0.145 C 
ATOM     31  N   UNL     1      57.131 152.186  26.577  0.00  0.00    -0.183 NA
ENDBRANCH  29  30
ENDBRANCH  18  29
ENDBRANCH  17  19
ENDBRANCH   1  17
TORSDOF 12
