MODEL 1
REMARK VINA RESULT:    -8.500      0.000      0.000
REMARK INTER + INTRA:         -12.770
REMARK INTER:                 -11.730
REMARK INTRA:                  -1.040
REMARK UNBOUND:                -1.040
REMARK  Name = =
REMARK  7 active torsions:
REMARK  status: ('A' for Active; 'I' for Inactive)
REMARK    1  A    between atoms: N_1  and  C_24
REMARK    2  A    between atoms: N_1  and  C_34
REMARK    3  A    between atoms: C_4  and  N_8
REMARK    4  A    between atoms: C_23  and  C_30
REMARK    5  A    between atoms: C_26  and  S_31
REMARK    6  A    between atoms: S_31  and  S_32
REMARK    7  A    between atoms: S_32  and  S_33
REMARK                            x       y       z     vdW  Elec       q    Type
REMARK                         _______ _______ _______ _____ _____    ______ ____
ROOT
ATOM      1  N   UNL     1      59.010 160.824  39.398  0.00  0.00    -0.235 N 
ATOM      2  C   UNL     1      58.337 161.033  40.673  0.00  0.00    +0.229 C 
ATOM      3  N   UNL     1      56.995 161.062  40.719  0.00  0.00    -0.197 NA
ATOM      4  C   UNL     1      56.320 161.206  41.858  0.00  0.00    +0.148 C 
ATOM      5  C   UNL     1      57.021 161.328  43.034  0.00  0.00    +0.056 C 
ATOM      6  C   UNL     1      58.393 161.299  42.989  0.00  0.00    +0.105 C 
ATOM      7  N   UNL     1      59.018 161.152  41.813  0.00  0.00    -0.211 NA
ENDROOT
BRANCH   4   8
ATOM      8  N   UNL     1      54.897 161.239  41.881  0.00  0.00    -0.185 N 
ATOM      9  C   UNL     1      54.134 160.071  42.092  0.00  0.00    +0.260 C 
ATOM     10  O   UNL     1      54.678 158.942  42.270  0.00  0.00    -0.269 OA
ATOM     11  C   UNL     1      52.682 160.135  42.111  0.00  0.00    +0.054 C 
ATOM     12  C   UNL     1      52.076 161.364  41.920  0.00  0.00    +0.009 C 
ATOM     13  C   UNL     1      50.681 161.400  41.942  0.00  0.00    +0.000 C 
ATOM     14  C   UNL     1      50.050 162.614  41.751  0.00  0.00    +0.000 C 
ATOM     15  C   UNL     1      50.767 163.761  41.545  0.00  0.00    +0.000 C 
ATOM     16  C   UNL     1      52.141 163.714  41.526  0.00  0.00    +0.005 C 
ATOM     17  C   UNL     1      52.792 162.517  41.712  0.00  0.00    +0.054 C 
ATOM     18  C   UNL     1      54.243 162.480  41.688  0.00  0.00    +0.260 C 
ATOM     19  O   UNL     1      54.911 163.555  41.494  0.00  0.00    -0.269 OA
ATOM     20  C   UNL     1      49.977 160.249  42.147  0.00  0.00    +0.000 C 
ATOM     21  C   UNL     1      50.573 159.035  42.337  0.00  0.00    +0.000 C 
ATOM     22  C   UNL     1      51.955 158.995  42.316  0.00  0.00    +0.005 C 
ENDBRANCH   4   8
BRANCH   1  24
ATOM     23  C   UNL     1      61.440 161.258  39.425  0.00  0.00    +0.056 C 
ATOM     24  C   UNL     1      60.150 161.567  39.090  0.00  0.00    +0.062 C 
ATOM     25  C   UNL     1      59.982 162.768  38.395  0.00  0.00    +0.022 C 
ATOM     26  C   UNL     1      61.001 163.590  38.061  0.00  0.00    +0.037 C 
ATOM     27  C   UNL     1      62.283 163.246  38.414  0.00  0.00    +0.007 C 
ATOM     28  C   UNL     1      62.512 162.097  39.086  0.00  0.00    +0.005 C 
BRANCH  23  30
ATOM     29  O   UNL     1      62.890 159.527  39.994  0.00  0.00    -0.283 OA
ATOM     30  C   UNL     1      61.766 160.097  40.191  0.00  0.00    +0.235 C 
ENDBRANCH  23  30
BRANCH  26  31
ATOM     31  S   UNL     1      60.783 165.132  37.170  0.00  0.00    -0.045 S 
BRANCH  31  32
ATOM     32  S   UNL     1      59.697 164.821  35.369  0.00  0.00    -0.022 S 
BRANCH  32  33
ATOM     33  S   UNL     1      59.622 166.595  34.197  0.00  0.00    -0.099 S 
ATOM     34  H   UNL     1      59.576 167.678  35.018  0.00  0.00    +0.115 HD
ENDBRANCH  32  33
ENDBRANCH  31  32
ENDBRANCH  26  31
ENDBRANCH   1  24
BRANCH   1  35
ATOM     35  C   UNL     1      58.369 159.890  38.574  0.00  0.00    +0.072 C 
ATOM     36  C   UNL     1      58.815 158.639  38.521  0.00  0.00    +0.018 C 
ENDBRANCH   1  35
TORSDOF 7
ENDMDL
