MODEL 1
REMARK VINA RESULT:    -5.933      0.000      0.000
REMARK INTER + INTRA:         -10.363
REMARK INTER:                  -9.055
REMARK INTRA:                  -1.308
REMARK UNBOUND:                -1.308
REMARK  Name = =
REMARK  10 active torsions:
REMARK  status: ('A' for Active; 'I' for Inactive)
REMARK    1  A    between atoms: N_1  and  C_4
REMARK    2  A    between atoms: N_1  and  S_9
REMARK    3  A    between atoms: C_2  and  O_18
REMARK    4  A    between atoms: C_4  and  N_5
REMARK    5  A    between atoms: C_4  and  N_6
REMARK    6  A    between atoms: N_5  and  O_22
REMARK    7  A    between atoms: C_7  and  C_19
REMARK    8  A    between atoms: S_9  and  N_12
REMARK    9  A    between atoms: C_19  and  O_21
REMARK   10  A    between atoms: O_22  and  C_23
REMARK                            x       y       z     vdW  Elec       q    Type
REMARK                         _______ _______ _______ _____ _____    ______ ____
ROOT
ATOM      1  C   UNL     1      60.822 165.716  34.778  0.00  0.00    +0.296 C 
ENDROOT
BRANCH   1   2
ATOM      2  N   UNL     1      60.447 164.410  34.971  0.00  0.00    -0.263 N 
ATOM      3  C   UNL     1      59.157 163.893  34.900  0.00  0.00    +0.324 C 
ATOM      4  O   UNL     1      58.382 164.823  34.631  0.00  0.00    -0.263 OA
ATOM      5  H   UNL     1      61.167 163.771  35.180  0.00  0.00    +0.153 HD
BRANCH   3   6
ATOM      6  C   UNL     1      58.903 162.498  35.119  0.00  0.00    +0.392 C 
ATOM      7  O   UNL     1      58.816 162.007  36.238  0.00  0.00    -0.240 OA
BRANCH   6   8
ATOM      8  O   UNL     1      58.763 161.721  34.011  0.00  0.00    -0.474 OA
ATOM      9  H   UNL     1      58.191 160.978  34.028  0.00  0.00    +0.296 HD
ENDBRANCH   6   8
ENDBRANCH   3   6
ENDBRANCH   1   2
BRANCH   1  10
ATOM     10  N   UNL     1      60.610 167.029  35.113  0.00  0.00    -0.077 N 
ATOM     11  C   UNL     1      60.571 168.123  34.266  0.00  0.00    +0.424 C 
ATOM     12  O   UNL     1      60.852 169.245  34.706  0.00  0.00    -0.225 OA
BRANCH  10  13
ATOM     13  S   UNL     1      60.859 167.453  36.844  0.00  0.00    +0.139 S 
ATOM     14  O   UNL     1      62.114 168.179  36.975  0.00  0.00    -0.134 OA
ATOM     15  O   UNL     1      59.663 168.125  37.402  0.00  0.00    -0.134 OA
BRANCH  13  16
ATOM     16  N   UNL     1      61.015 165.906  37.671  0.00  0.00    -0.147 N 
ATOM     17  C   UNL     1      62.231 165.212  37.849  0.00  0.00    +0.245 C 
ATOM     18  O   UNL     1      63.378 165.659  37.616  0.00  0.00    -0.273 OA
ATOM     19  C   UNL     1      61.850 163.863  38.366  0.00  0.00    +0.089 C 
ATOM     20  C   UNL     1      60.651 164.275  39.235  0.00  0.00    +0.033 C 
ATOM     21  C   UNL     1      59.912 165.182  38.269  0.00  0.00    +0.121 C 
ENDBRANCH  13  16
ENDBRANCH  10  13
BRANCH  11  22
ATOM     22  O   UNL     1      60.218 168.074  32.903  0.00  0.00    -0.465 OA
ATOM     23  H   UNL     1      60.103 168.868  32.420  0.00  0.00    +0.297 HD
ENDBRANCH  11  22
ENDBRANCH   1  10
BRANCH   1  24
ATOM     24  N   UNL     1      61.783 165.550  33.828  0.00  0.00    +0.020 NA
BRANCH  24  25
ATOM     25  O   UNL     1      62.961 165.203  34.417  0.00  0.00    -0.329 OA
BRANCH  25  26
ATOM     26  C   UNL     1      63.993 166.200  34.175  0.00  0.00    +0.418 C 
ATOM     27  O   UNL     1      64.692 165.982  33.161  0.00  0.00    -0.225 OA
ATOM     28  N   UNL     1      64.161 167.299  35.030  0.00  0.00    -0.294 N 
ATOM     29  H   UNL     1      63.573 167.408  35.813  0.00  0.00    +0.148 HD
ATOM     30  H   UNL     1      64.867 167.961  34.848  0.00  0.00    +0.148 HD
ENDBRANCH  25  26
ENDBRANCH  24  25
ENDBRANCH   1  24
TORSDOF 10
ENDMDL
