REMARK  Name = =
REMARK  0 active torsions:
REMARK  status: ('A' for Active; 'I' for Inactive)
REMARK                            x       y       z     vdW  Elec       q    Type
REMARK                         _______ _______ _______ _____ _____    ______ ____
ROOT
ATOM      1  C   UNL     1      52.163 155.738  28.719  0.00  0.00    -0.000 C 
ATOM      2  C   UNL     1      50.847 156.086  29.043  0.00  0.00    -0.004 C 
ATOM      3  C   UNL     1      50.515 157.373  29.364  0.00  0.00    -0.021 C 
ATOM      4  C   UNL     1      51.524 158.342  29.363  0.00  0.00    -0.021 C 
ATOM      5  C   UNL     1      52.821 158.023  29.047  0.00  0.00    -0.004 C 
ATOM      6  C   UNL     1      53.142 156.707  28.723  0.00  0.00    -0.000 C 
ATOM      7  C   UNL     1      51.095 159.718  29.720  0.00  0.00    +0.052 C 
ATOM      8  C   UNL     1      50.151 159.588  30.922  0.00  0.00    -0.026 C 
ATOM      9  C   UNL     1      49.223 158.659  30.919  0.00  0.00    -0.022 C 
ATOM     10  C   UNL     1      48.277 158.455  32.013  0.00  0.00    -0.005 C 
ATOM     11  C   UNL     1      48.387 159.264  33.048  0.00  0.00    -0.005 C 
ATOM     12  C   UNL     1      49.384 160.320  33.137  0.00  0.00    -0.026 C 
ATOM     13  C   UNL     1      50.310 160.519  32.046  0.00  0.00    -0.030 C 
ATOM     14  C   UNL     1      50.389 161.917  31.464  0.00  0.00    +0.026 C 
ATOM     15  C   UNL     1      49.196 162.746  31.882  0.00  0.00    +0.005 C 
ATOM     16  C   UNL     1      49.206 162.827  33.392  0.00  0.00    +0.005 C 
ATOM     17  C   UNL     1      48.991 161.477  33.981  0.00  0.00    +0.026 C 
ATOM     18  C   UNL     1      49.121 157.742  29.708  0.00  0.00    +0.052 C 
ENDROOT
TORSDOF 0
