REMARK  Name = =
REMARK  3 active torsions:
REMARK  status: ('A' for Active; 'I' for Inactive)
REMARK    1  A    between atoms: C_1  and  C_25
REMARK    2  A    between atoms: C_22  and  O_30
REMARK    3  A    between atoms: C_24  and  O_29
REMARK                            x       y       z     vdW  Elec       q    Type
REMARK                         _______ _______ _______ _____ _____    ______ ____
ROOT
ATOM      1  C   UNL     1      52.639 155.856  28.643  0.00  0.00    -0.018 C 
ATOM      2  C   UNL     1      51.351 156.006  29.118  0.00  0.00    -0.008 C 
ATOM      3  C   UNL     1      50.847 157.246  29.449  0.00  0.00    -0.022 C 
ATOM      4  C   UNL     1      51.626 158.402  29.315  0.00  0.00    -0.021 C 
ATOM      5  C   UNL     1      52.910 158.270  28.842  0.00  0.00    -0.005 C 
ATOM      6  C   UNL     1      53.400 157.009  28.514  0.00  0.00    -0.004 C 
ATOM      7  C   UNL     1      50.993 159.692  29.697  0.00  0.00    +0.052 C 
ATOM      8  C   UNL     1      50.198 159.492  30.978  0.00  0.00    -0.026 C 
ATOM      9  C   UNL     1      49.472 158.408  31.106  0.00  0.00    -0.022 C 
ATOM     10  C   UNL     1      48.667 158.114  32.299  0.00  0.00    -0.005 C 
ATOM     11  C   UNL     1      48.715 159.017  33.259  0.00  0.00    -0.005 C 
ATOM     12  C   UNL     1      49.482 160.231  33.207  0.00  0.00    -0.026 C 
ATOM     13  C   UNL     1      50.262 160.502  32.012  0.00  0.00    -0.030 C 
ATOM     14  C   UNL     1      50.034 161.891  31.408  0.00  0.00    +0.026 C 
ATOM     15  C   UNL     1      48.563 162.245  31.424  0.00  0.00    +0.005 C 
ATOM     16  C   UNL     1      47.970 162.178  32.794  0.00  0.00    +0.005 C 
ATOM     17  C   UNL     1      48.866 161.458  33.777  0.00  0.00    +0.026 C 
ATOM     18  C   UNL     1      49.477 157.430  29.958  0.00  0.00    +0.052 C 
ENDROOT
BRANCH   1  25
ATOM     19  C   UNL     1      52.161 153.284  24.925  0.00  0.00    +0.073 C 
ATOM     20  C   UNL     1      52.150 153.544  26.276  0.00  0.00    +0.141 C 
ATOM     21  C   UNL     1      53.189 154.240  26.844  0.00  0.00    +0.049 C 
ATOM     22  C   UNL     1      54.219 154.656  26.026  0.00  0.00    +0.136 C 
ATOM     23  C   UNL     1      54.244 154.405  24.680  0.00  0.00    +0.073 C 
ATOM     24  C   UNL     1      53.203 153.710  24.119  0.00  0.00    +0.140 C 
ATOM     25  C   UNL     1      53.162 154.512  28.295  0.00  0.00    +0.054 C 
ATOM     26  C   UNL     1      52.531 153.383  29.030  0.00  0.00    +0.056 C 
ATOM     27  C   UNL     1      51.321 152.779  28.421  0.00  0.00    +0.206 C 
ATOM     28  O   UNL     1      51.089 153.105  27.074  0.00  0.00    -0.476 OA
BRANCH  24  29
ATOM     29  O   UNL     1      53.189 153.438  22.773  0.00  0.00    -0.505 OA
ATOM     30  H   UNL     1      53.895 153.727  22.229  0.00  0.00    +0.292 HD
ENDBRANCH  24  29
BRANCH  22  31
ATOM     31  O   UNL     1      55.303 155.372  26.568  0.00  0.00    -0.506 OA
ATOM     32  H   UNL     1      55.326 155.565  27.485  0.00  0.00    +0.292 HD
ENDBRANCH  22  31
ENDBRANCH   1  25
TORSDOF 3
