REMARK  Name = =
REMARK  6 active torsions:
REMARK  status: ('A' for Active; 'I' for Inactive)
REMARK    1  A    between atoms: C_1  and  C_31
REMARK    2  A    between atoms: C_4  and  O_30
REMARK    3  A    between atoms: C_6  and  O_29
REMARK    4  A    between atoms: C_7  and  C_11
REMARK    5  A    between atoms: C_31  and  C_32
REMARK    6  A    between atoms: C_32  and  O_34
REMARK                            x       y       z     vdW  Elec       q    Type
REMARK                         _______ _______ _______ _____ _____    ______ ____
ROOT
ATOM      1  C   UNL     1      51.188 161.478  30.235  0.00  0.00    +0.056 C 
ATOM      2  C   UNL     1      51.011 160.124  30.472  0.00  0.00    +0.137 C 
ATOM      3  C   UNL     1      52.063 159.235  30.478  0.00  0.00    +0.049 C 
ATOM      4  C   UNL     1      53.324 159.738  30.237  0.00  0.00    +0.136 C 
ATOM      5  C   UNL     1      53.527 161.095  29.996  0.00  0.00    +0.073 C 
ATOM      6  C   UNL     1      52.455 161.964  29.996  0.00  0.00    +0.136 C 
ATOM      7  C   UNL     1      51.846 157.794  30.730  0.00  0.00    +0.054 C 
ATOM      8  C   UNL     1      50.617 157.537  31.565  0.00  0.00    +0.056 C 
ATOM      9  C   UNL     1      49.428 158.352  31.149  0.00  0.00    +0.206 C 
ATOM     10  O   UNL     1      49.742 159.651  30.709  0.00  0.00    -0.476 OA
ENDROOT
BRANCH   7  11
ATOM     11  C   UNL     1      51.758 157.038  29.428  0.00  0.00    -0.018 C 
ATOM     12  C   UNL     1      52.608 157.386  28.403  0.00  0.00    -0.008 C 
ATOM     13  C   UNL     1      52.564 156.727  27.198  0.00  0.00    -0.022 C 
ATOM     14  C   UNL     1      51.657 155.682  26.972  0.00  0.00    -0.021 C 
ATOM     15  C   UNL     1      50.812 155.342  27.999  0.00  0.00    -0.005 C 
ATOM     16  C   UNL     1      50.860 156.016  29.226  0.00  0.00    -0.004 C 
ATOM     17  C   UNL     1      51.625 154.985  25.668  0.00  0.00    +0.052 C 
ATOM     18  C   UNL     1      53.089 154.798  25.280  0.00  0.00    -0.026 C 
ATOM     19  C   UNL     1      53.939 155.790  25.474  0.00  0.00    -0.022 C 
ATOM     20  C   UNL     1      55.334 155.596  25.100  0.00  0.00    -0.005 C 
ATOM     21  C   UNL     1      55.759 154.466  24.578  0.00  0.00    -0.005 C 
ATOM     22  C   UNL     1      54.890 153.307  24.323  0.00  0.00    -0.026 C 
ATOM     23  C   UNL     1      53.511 153.542  24.706  0.00  0.00    -0.030 C 
ATOM     24  C   UNL     1      52.622 152.379  24.916  0.00  0.00    +0.026 C 
ATOM     25  C   UNL     1      53.198 151.079  24.408  0.00  0.00    +0.005 C 
ATOM     26  C   UNL     1      54.557 150.906  25.021  0.00  0.00    +0.005 C 
ATOM     27  C   UNL     1      55.507 152.000  24.673  0.00  0.00    +0.026 C 
ATOM     28  C   UNL     1      53.472 157.085  26.063  0.00  0.00    +0.052 C 
ENDBRANCH   7  11
BRANCH   6  29
ATOM     29  O   UNL     1      52.607 163.332  29.760  0.00  0.00    -0.506 OA
ATOM     30  H   UNL     1      53.458 163.687  29.595  0.00  0.00    +0.292 HD
ENDBRANCH   6  29
BRANCH   4  31
ATOM     31  O   UNL     1      54.446 158.924  30.222  0.00  0.00    -0.506 OA
ATOM     32  H   UNL     1      54.360 158.004  30.379  0.00  0.00    +0.292 HD
ENDBRANCH   4  31
BRANCH   1  33
ATOM     33  C   UNL     1      50.040 162.433  30.232  0.00  0.00    +0.142 C 
BRANCH  33  34
ATOM     34  C   UNL     1      49.406 162.507  31.567  0.00  0.00    +0.318 C 
ATOM     35  O   UNL     1      49.891 161.894  32.553  0.00  0.00    -0.250 OA
BRANCH  34  36
ATOM     36  O   UNL     1      48.269 163.250  31.754  0.00  0.00    -0.480 OA
ATOM     37  H   UNL     1      47.890 163.715  31.034  0.00  0.00    +0.295 HD
ENDBRANCH  34  36
ENDBRANCH  33  34
ENDBRANCH   1  33
TORSDOF 6
