MODEL 1
REMARK VINA RESULT:    -7.823      0.000      0.000
REMARK INTER + INTRA:          -9.941
REMARK INTER:                 -10.110
REMARK INTRA:                   0.169
REMARK UNBOUND:                 0.169
REMARK  Name = =
REMARK  6 active torsions:
REMARK  status: ('A' for Active; 'I' for Inactive)
REMARK    1  A    between atoms: C_1  and  C_16
REMARK    2  A    between atoms: C_16  and  N_26
REMARK    3  A    between atoms: N_26  and  P_27
REMARK    4  A    between atoms: P_27  and  N_29
REMARK    5  A    between atoms: P_27  and  N_30
REMARK    6  A    between atoms: C_35  and  C_38
REMARK                            x       y       z     vdW  Elec       q    Type
REMARK                         _______ _______ _______ _____ _____    ______ ____
ROOT
ATOM      1  C   UNL     1      56.232 161.899  41.689  0.00  0.00    +0.022 C 
ATOM      2  C   UNL     1      55.367 162.930  41.987  0.00  0.00    +0.046 C 
ATOM      3  C   UNL     1      54.027 162.639  42.144  0.00  0.00    +0.047 C 
ATOM      4  C   UNL     1      53.530 161.334  42.008  0.00  0.00    +0.058 C 
ATOM      5  N   UNL     1      52.192 160.877  42.143  0.00  0.00    -0.250 N 
ATOM      6  C   UNL     1      51.871 159.617  42.506  0.00  0.00    +0.172 C 
ATOM      7  N   UNL     1      50.534 159.578  42.522  0.00  0.00    -0.225 NA
ATOM      8  C   UNL     1      49.997 160.760  42.186  0.00  0.00    +0.113 C 
ATOM      9  C   UNL     1      51.077 161.616  41.936  0.00  0.00    +0.069 C 
ATOM     10  C   UNL     1      50.923 163.037  41.532  0.00  0.00    +0.115 C 
ATOM     11  N   UNL     1      51.791 163.938  42.261  0.00  0.00    -0.267 NA
ATOM     12  C   UNL     1      53.208 163.811  42.458  0.00  0.00    +0.201 C 
ATOM     13  O   UNL     1      53.845 164.774  42.943  0.00  0.00    -0.321 OA
ATOM     14  C   UNL     1      54.371 160.318  41.714  0.00  0.00    +0.015 C 
ATOM     15  C   UNL     1      55.724 160.622  41.558  0.00  0.00    +0.001 C 
ATOM     16  N   UNL     1      55.781 164.267  42.110  0.00  0.00    -0.311 N 
ATOM     17  C   UNL     1      54.975 165.357  41.603  0.00  0.00    +0.175 C 
ATOM     18  C   UNL     1      55.004 166.565  42.230  0.00  0.00    +0.020 C 
ATOM     19  C   UNL     1      54.238 167.627  41.774  0.00  0.00    +0.004 C 
ATOM     20  C   UNL     1      53.440 167.457  40.673  0.00  0.00    +0.049 C 
ATOM     21  C   UNL     1      53.416 166.231  40.044  0.00  0.00    -0.017 C 
ATOM     22  C   UNL     1      54.184 165.161  40.499  0.00  0.00    +0.077 C 
ATOM     23  H   UNL     1      51.399 163.975  43.202  0.00  0.00    +0.126 HD
ATOM     24  H   UNL     1      56.639 164.467  42.551  0.00  0.00    +0.149 HD
ENDROOT
BRANCH   1  25
ATOM     25  C   UNL     1      57.725 162.146  41.543  0.00  0.00    +0.134 C 
ATOM     26  N   UNL     1      58.316 162.346  42.814  0.00  0.00    -0.281 NA
ATOM     27  C   UNL     1      59.657 162.024  43.034  0.00  0.00    +0.075 C 
ATOM     28  C   UNL     1      60.050 160.649  42.635  0.00  0.00    +0.043 C 
ATOM     29  C   UNL     1      59.388 160.293  41.360  0.00  0.00    -0.022 C 
ATOM     30  C   UNL     1      58.316 160.985  40.860  0.00  0.00    +0.005 C 
ATOM     31  C   UNL     1      57.790 160.559  39.668  0.00  0.00    -0.002 C 
ATOM     32  C   UNL     1      58.308 159.476  38.986  0.00  0.00    -0.000 C 
ATOM     33  C   UNL     1      59.394 158.777  39.496  0.00  0.00    -0.000 C 
ATOM     34  C   UNL     1      59.926 159.192  40.681  0.00  0.00    -0.004 C 
ATOM     35  H   UNL     1      57.772 161.795  43.478  0.00  0.00    +0.125 HD
BRANCH  25  36
ATOM     36  N   UNL     1      57.835 163.362  40.778  0.00  0.00    -0.216 NA
ATOM     37  H   UNL     1      56.956 163.869  40.882  0.00  0.00    +0.134 HD
BRANCH  36  38
ATOM     38  P   UNL     1      59.099 164.437  41.187  0.00  0.00    +0.278 P 
ATOM     39  O   UNL     1      59.081 165.589  40.153  0.00  0.00    -0.270 OA
BRANCH  38  40
ATOM     40  N   UNL     1      60.689 163.772  41.187  0.00  0.00    -0.257 NA
ATOM     41  H   UNL     1      60.957 163.532  42.142  0.00  0.00    +0.128 HD
ATOM     42  H   UNL     1      61.344 164.459  40.813  0.00  0.00    +0.128 HD
ENDBRANCH  38  40
BRANCH  38  43
ATOM     43  N   UNL     1      58.730 165.211  42.715  0.00  0.00    -0.257 NA
ATOM     44  H   UNL     1      59.073 164.632  43.481  0.00  0.00    +0.128 HD
ATOM     45  H   UNL     1      57.720 165.328  42.802  0.00  0.00    +0.128 HD
ENDBRANCH  38  43
ENDBRANCH  36  38
ENDBRANCH  25  36
ENDBRANCH   1  25
BRANCH  20  46
ATOM     46  C   UNL     1      52.633 168.556  40.183  0.00  0.00    +0.242 C 
ATOM     47  O   UNL     1      51.706 169.033  40.889  0.00  0.00    -0.270 OA
ATOM     48  N   UNL     1      52.832 169.148  38.910  0.00  0.00    -0.325 N 
ATOM     49  H   UNL     1      53.544 168.813  38.317  0.00  0.00    +0.145 HD
ATOM     50  H   UNL     1      52.259 169.894  38.618  0.00  0.00    +0.145 HD
ENDBRANCH  20  46
TORSDOF 6
ENDMDL
