MODEL 1
REMARK VINA RESULT:    -5.494      0.000      0.000
REMARK INTER + INTRA:          -7.139
REMARK INTER:                  -7.421
REMARK INTRA:                   0.282
REMARK UNBOUND:                 0.282
REMARK  Name = =
REMARK  7 active torsions:
REMARK  status: ('A' for Active; 'I' for Inactive)
REMARK    1  A    between atoms: N_1  and  S_23
REMARK    2  A    between atoms: C_2  and  N_8
REMARK    3  A    between atoms: C_3  and  O_27
REMARK    4  A    between atoms: C_9  and  N_14
REMARK    5  A    between atoms: N_14  and  C_17
REMARK    6  A    between atoms: S_23  and  N_24
REMARK    7  A    between atoms: S_23  and  S_26
REMARK                            x       y       z     vdW  Elec       q    Type
REMARK                         _______ _______ _______ _____ _____    ______ ____
ROOT
ATOM      1  N   UNL     1      60.188 163.088  38.390  0.00  0.00    -0.220 N 
ATOM      2  C   UNL     1      59.823 161.801  38.281  0.00  0.00    +0.156 C 
ATOM      3  C   UNL     1      59.170 161.404  37.127  0.00  0.00    +0.202 C 
ATOM      4  C   UNL     1      58.876 162.257  36.086  0.00  0.00    +0.233 C 
ATOM      5  O   UNL     1      58.272 161.851  35.040  0.00  0.00    -0.283 OA
ATOM      6  C   UNL     1      59.263 163.573  36.227  0.00  0.00    +0.062 C 
ATOM      7  C   UNL     1      59.913 163.969  37.377  0.00  0.00    +0.081 C 
ENDROOT
BRANCH   2   8
ATOM      8  N   UNL     1      60.110 160.916  39.320  0.00  0.00    -0.256 N 
ATOM      9  C   UNL     1      59.070 160.511  40.144  0.00  0.00    +0.162 C 
ATOM     10  C   UNL     1      59.432 159.131  40.719  0.00  0.00    +0.046 C 
ATOM     11  C   UNL     1      60.730 159.116  41.432  0.00  0.00    +0.031 C 
ATOM     12  C   UNL     1      61.825 159.878  40.773  0.00  0.00    -0.010 C 
ATOM     13  C   UNL     1      61.453 160.691  39.606  0.00  0.00    +0.063 C 
BRANCH   9  14
ATOM     14  N   UNL     1      58.580 161.382  41.159  0.00  0.00    -0.236 N 
ATOM     15  C   UNL     1      59.317 162.048  42.152  0.00  0.00    +0.308 C 
ATOM     16  O   UNL     1      58.811 162.778  43.034  0.00  0.00    -0.265 OA
BRANCH  14  17
ATOM     17  C   UNL     1      57.153 161.616  41.215  0.00  0.00    +0.056 C 
ATOM     18  C   UNL     1      56.676 162.908  41.195  0.00  0.00    +0.015 C 
ATOM     19  C   UNL     1      55.311 163.086  41.250  0.00  0.00    +0.001 C 
ATOM     20  C   UNL     1      54.439 162.036  41.322  0.00  0.00    +0.000 C 
ATOM     21  C   UNL     1      54.910 160.763  41.344  0.00  0.00    +0.001 C 
ATOM     22  C   UNL     1      56.294 160.551  41.287  0.00  0.00    +0.015 C 
ENDBRANCH  14  17
ENDBRANCH   9  14
ENDBRANCH   2   8
BRANCH   1  23
ATOM     23  S   UNL     1      60.972 163.673  39.756  0.00  0.00    -0.032 S 
ATOM     24  H   UNL     1      61.138 162.589  40.559  0.00  0.00    +0.135 HD
BRANCH  23  25
ATOM     25  N   UNL     1      60.024 165.010  40.168  0.00  0.00    -0.208 NA
ATOM     26  C   UNL     1      59.966 165.607  41.255  0.00  0.00    +0.129 C 
ENDBRANCH  23  25
BRANCH  23  27
ATOM     27  S   UNL     1      62.458 164.415  39.607  0.00  0.00    -0.095 S 
ATOM     28  H   UNL     1      62.894 164.807  40.834  0.00  0.00    +0.115 HD
ENDBRANCH  23  27
ENDBRANCH   1  23
BRANCH   3  29
ATOM     29  O   UNL     1      58.805 160.074  37.042  0.00  0.00    -0.501 OA
ATOM     30  H   UNL     1      59.424 159.404  37.256  0.00  0.00    +0.292 HD
ENDBRANCH   3  29
TORSDOF 7
ENDMDL
