MODEL 1
REMARK VINA RESULT:    -5.532      0.000      0.000
REMARK INTER + INTRA:         -11.976
REMARK INTER:                  -9.252
REMARK INTRA:                  -2.725
REMARK UNBOUND:                -2.725
REMARK  Name = =
REMARK  14 active torsions:
REMARK  status: ('A' for Active; 'I' for Inactive)
REMARK    1  A    between atoms: C_1  and  C_3
REMARK    2  A    between atoms: C_1  and  O_20
REMARK    3  A    between atoms: C_4  and  N_9
REMARK    4  A    between atoms: N_9  and  N_12
REMARK    5  A    between atoms: C_10  and  C_17
REMARK    6  A    between atoms: N_15  and  N_16
REMARK    7  A    between atoms: C_17  and  O_19
REMARK    8  A    between atoms: O_20  and  C_21
REMARK    9  A    between atoms: C_21  and  O_33
REMARK   10  A    between atoms: C_24  and  C_30
REMARK   11  A    between atoms: C_25  and  S_29
REMARK   12  A    between atoms: C_30  and  O_32
REMARK   13  A    between atoms: O_33  and  C_34
REMARK   14  A    between atoms: C_34  and  O_36
REMARK                            x       y       z     vdW  Elec       q    Type
REMARK                         _______ _______ _______ _____ _____    ______ ____
ROOT
ATOM      1  C   UNL     1      62.710 164.901  38.665  0.00  0.00    +0.347 C 
ATOM      2  O   UNL     1      63.900 165.331  38.953  0.00  0.00    -0.245 OA
ENDROOT
BRANCH   1   3
ATOM      3  C   UNL     1      61.645 165.870  38.557  0.00  0.00    +0.109 C 
ATOM      4  C   UNL     1      60.938 166.062  37.442  0.00  0.00    +0.161 C 
ATOM      5  N   UNL     1      59.919 167.000  37.416  0.00  0.00    -0.227 NA
ATOM      6  C   UNL     1      59.587 167.749  38.466  0.00  0.00    +0.100 C 
ATOM      7  C   UNL     1      60.314 167.556  39.619  0.00  0.00    +0.021 C 
ATOM      8  C   UNL     1      61.333 166.645  39.712  0.00  0.00    +0.011 C 
BRANCH   4   9
ATOM      9  N   UNL     1      61.149 165.349  36.230  0.00  0.00    -0.159 N 
ATOM     10  C   UNL     1      61.926 166.071  35.268  0.00  0.00    +0.346 C 
ATOM     11  O   UNL     1      62.363 165.493  34.267  0.00  0.00    -0.261 OA
BRANCH   9  12
ATOM     12  N   UNL     1      60.704 164.065  35.966  0.00  0.00    -0.208 N 
ATOM     13  C   UNL     1      59.601 163.776  35.168  0.00  0.00    +0.330 C 
ATOM     14  O   UNL     1      58.948 164.747  34.647  0.00  0.00    -0.250 OA
ATOM     15  N   UNL     1      59.110 162.453  34.867  0.00  0.00    -0.236 N 
ATOM     16  H   UNL     1      61.197 163.313  36.365  0.00  0.00    +0.175 HD
ATOM     17  H   UNL     1      59.558 161.656  35.231  0.00  0.00    +0.170 HD
BRANCH  15  18
ATOM     18  N   UNL     1      57.973 162.327  34.040  0.00  0.00    -0.253 NA
ATOM     19  H   UNL     1      58.245 161.909  33.150  0.00  0.00    +0.141 HD
ATOM     20  H   UNL     1      57.570 163.248  33.873  0.00  0.00    +0.141 HD
ENDBRANCH  15  18
ENDBRANCH   9  12
BRANCH  10  21
ATOM     21  C   UNL     1      62.217 167.481  35.442  0.00  0.00    +0.394 C 
ATOM     22  O   UNL     1      63.317 167.841  35.932  0.00  0.00    -0.240 OA
BRANCH  21  23
ATOM     23  O   UNL     1      61.291 168.452  35.068  0.00  0.00    -0.474 OA
ATOM     24  H   UNL     1      61.090 169.156  35.652  0.00  0.00    +0.296 HD
ENDBRANCH  21  23
ENDBRANCH  10  21
ENDBRANCH   4   9
ENDBRANCH   1   3
BRANCH   1  25
ATOM     25  O   UNL     1      62.657 163.542  38.505  0.00  0.00    -0.408 OA
BRANCH  25  26
ATOM     26  C   UNL     1      62.145 162.663  39.518  0.00  0.00    +0.364 C 
ATOM     27  C   UNL     1      60.687 162.497  39.361  0.00  0.00    +0.171 C 
ATOM     28  N   UNL     1      60.897 161.040  39.245  0.00  0.00    -0.241 N 
ATOM     29  C   UNL     1      59.630 160.496  39.521  0.00  0.00    +0.132 C 
ATOM     30  C   UNL     1      58.902 161.322  40.260  0.00  0.00    +0.021 C 
ATOM     31  C   UNL     1      59.750 162.549  40.510  0.00  0.00    +0.062 C 
ATOM     32  C   UNL     1      62.257 161.253  38.930  0.00  0.00    +0.309 C 
ATOM     33  O   UNL     1      63.177 160.616  38.410  0.00  0.00    -0.267 OA
BRANCH  30  34
ATOM     34  S   UNL     1      57.231 161.049  40.850  0.00  0.00    -0.144 S 
ATOM     35  H   UNL     1      57.027 159.717  41.035  0.00  0.00    +0.107 HD
ENDBRANCH  30  34
BRANCH  29  36
ATOM     36  C   UNL     1      59.210 159.167  39.026  0.00  0.00    +0.352 C 
ATOM     37  O   UNL     1      58.822 158.997  37.848  0.00  0.00    -0.244 OA
BRANCH  36  38
ATOM     38  O   UNL     1      59.221 158.037  39.842  0.00  0.00    -0.476 OA
ATOM     39  H   UNL     1      58.419 157.702  40.191  0.00  0.00    +0.295 HD
ENDBRANCH  36  38
ENDBRANCH  29  36
BRANCH  26  40
ATOM     40  O   UNL     1      62.726 162.764  40.769  0.00  0.00    -0.380 OA
BRANCH  40  41
ATOM     41  C   UNL     1      64.053 162.546  41.026  0.00  0.00    +0.511 C 
ATOM     42  O   UNL     1      64.503 162.236  42.175  0.00  0.00    -0.203 OA
BRANCH  41  43
ATOM     43  O   UNL     1      65.054 162.641  40.041  0.00  0.00    -0.450 OA
ATOM     44  H   UNL     1      65.077 162.026  39.335  0.00  0.00    +0.299 HD
ENDBRANCH  41  43
ENDBRANCH  40  41
ENDBRANCH  26  40
ENDBRANCH  25  26
ENDBRANCH   1  25
TORSDOF 14
ENDMDL
