REMARK  Name = =
REMARK  1 active torsions:
REMARK  status: ('A' for Active; 'I' for Inactive)
REMARK    1  A    between atoms: C_1  and  C_7
REMARK                            x       y       z     vdW  Elec       q    Type
REMARK                         _______ _______ _______ _____ _____    ______ ____
ROOT
ATOM      1  C   UNL     1     -12.206 -43.690  29.538  0.00  0.00    +0.131 C 
ATOM      2  O   UNL     1     -13.344 -43.499  30.348  0.00  0.00    -0.355 OA
ATOM      3  C   UNL     1     -13.077 -44.095  31.558  0.00  0.00    +0.142 C 
ATOM      4  C   UNL     1     -12.008 -45.139  31.332  0.00  0.00    +0.035 C 
ATOM      5  C   UNL     1     -11.971 -45.186  29.800  0.00  0.00    +0.034 C 
ENDROOT
BRANCH   1   7
ATOM      6  N   UNL     1     -13.263 -42.392  27.636  0.00  0.00    -0.294 NA
ATOM      7  C   UNL     1     -12.517 -43.543  28.084  0.00  0.00    +0.097 C 
ATOM      8  C   UNL     1     -13.885 -43.741  27.598  0.00  0.00    +0.087 C 
ATOM      9  H   UNL     1     -13.006 -41.924  26.767  0.00  0.00    +0.123 HD
ENDBRANCH   1   7
TORSDOF 1
