REMARK  Name = =
REMARK  9 active torsions:
REMARK  status: ('A' for Active; 'I' for Inactive)
REMARK    1  A    between atoms: S_1  and  C_2
REMARK    2  A    between atoms: S_1  and  N_23
REMARK    3  A    between atoms: C_2  and  N_3
REMARK    4  A    between atoms: C_2  and  N_17
REMARK    5  A    between atoms: C_4  and  N_9
REMARK    6  A    between atoms: N_12  and  N_13
REMARK    7  A    between atoms: C_14  and  O_16
REMARK    8  A    between atoms: C_18  and  C_20
REMARK    9  A    between atoms: C_24  and  C_26
REMARK                            x       y       z     vdW  Elec       q    Type
REMARK                         _______ _______ _______ _____ _____    ______ ____
ROOT
ATOM      1  C   UNL     1     -13.016 -43.724  28.501  0.00  0.00    +0.187 C 
ENDROOT
BRANCH   1   2
ATOM      2  N   UNL     1     -13.806 -43.706  27.350  0.00  0.00    -0.235 NA
ATOM      3  C   UNL     1     -14.552 -42.546  26.931  0.00  0.00    +0.136 C 
ATOM      4  C   UNL     1     -13.965 -42.167  25.561  0.00  0.00    +0.037 C 
ATOM      5  C   UNL     1     -14.259 -43.281  24.607  0.00  0.00    +0.005 C 
ATOM      6  C   UNL     1     -13.663 -44.568  25.058  0.00  0.00    +0.018 C 
ATOM      7  C   UNL     1     -13.903 -44.873  26.506  0.00  0.00    +0.076 C 
BRANCH   3   8
ATOM      8  N   UNL     1     -15.955 -42.840  26.731  0.00  0.00    -0.276 N 
ATOM      9  C   UNL     1     -16.825 -42.052  25.912  0.00  0.00    +0.317 C 
ATOM     10  O   UNL     1     -16.357 -41.062  25.341  0.00  0.00    -0.251 OA
ATOM     11  N   UNL     1     -18.194 -42.375  25.742  0.00  0.00    -0.216 N 
ATOM     12  H   UNL     1     -16.333 -43.628  27.185  0.00  0.00    +0.152 HD
ATOM     13  H   UNL     1     -18.541 -43.169  26.208  0.00  0.00    +0.174 HD
BRANCH  11  14
ATOM     14  N   UNL     1     -19.082 -41.638  24.955  0.00  0.00    -0.199 N 
ATOM     15  C   UNL     1     -20.065 -40.777  25.507  0.00  0.00    +0.414 C 
ATOM     16  O   UNL     1     -20.148 -40.667  26.762  0.00  0.00    -0.225 OA
ATOM     17  H   UNL     1     -19.023 -41.720  23.976  0.00  0.00    +0.176 HD
BRANCH  15  18
ATOM     18  O   UNL     1     -20.926 -40.068  24.655  0.00  0.00    -0.465 OA
ATOM     19  H   UNL     1     -20.849 -40.163  23.726  0.00  0.00    +0.297 HD
ENDBRANCH  15  18
ENDBRANCH  11  14
ENDBRANCH   3   8
ENDBRANCH   1   2
BRANCH   1  20
ATOM     20  N   UNL     1     -13.489 -43.285  29.755  0.00  0.00    -0.277 N 
ATOM     21  C   UNL     1     -13.867 -44.181  30.790  0.00  0.00    +0.301 C 
ATOM     22  O   UNL     1     -13.790 -45.432  30.630  0.00  0.00    -0.265 OA
ATOM     23  H   UNL     1     -13.560 -42.317  29.920  0.00  0.00    +0.152 HD
BRANCH  21  24
ATOM     24  C   UNL     1     -14.355 -43.650  32.064  0.00  0.00    +0.296 C 
ATOM     25  O   UNL     1     -14.507 -42.401  32.147  0.00  0.00    -0.265 OA
ATOM     26  N   UNL     1     -14.650 -44.509  33.177  0.00  0.00    -0.322 N 
ATOM     27  H   UNL     1     -14.525 -45.482  33.094  0.00  0.00    +0.145 HD
ATOM     28  H   UNL     1     -14.977 -44.125  34.022  0.00  0.00    +0.145 HD
ENDBRANCH  21  24
ENDBRANCH   1  20
BRANCH   1  29
ATOM     29  S   UNL     1     -11.427 -44.225  28.448  0.00  0.00    -0.112 S 
ATOM     30  H   UNL     1     -11.434 -45.515  28.019  0.00  0.00    +0.111 HD
BRANCH  29  31
ATOM     31  N   UNL     1     -10.443 -44.178  29.926  0.00  0.00    -0.233 NA
ATOM     32  C   UNL     1      -9.124 -44.772  29.839  0.00  0.00    +0.111 C 
ATOM     33  C   UNL     1     -10.250 -45.415  30.607  0.00  0.00    +0.102 C 
BRANCH  32  34
ATOM     34  C   UNL     1      -8.005 -44.220  30.638  0.00  0.00    +0.132 C 
ATOM     35  O   UNL     1      -7.965 -42.806  30.588  0.00  0.00    -0.355 OA
ATOM     36  C   UNL     1      -6.847 -42.556  31.379  0.00  0.00    +0.142 C 
ATOM     37  C   UNL     1      -7.195 -43.312  32.640  0.00  0.00    +0.035 C 
ATOM     38  C   UNL     1      -8.130 -44.417  32.129  0.00  0.00    +0.034 C 
ENDBRANCH  32  34
ENDBRANCH  29  31
ENDBRANCH   1  29
TORSDOF 9
