REMARK  Name = =
REMARK  9 active torsions:
REMARK  status: ('A' for Active; 'I' for Inactive)
REMARK    1  A    between atoms: N_1  and  C_24
REMARK    2  A    between atoms: C_2  and  N_7
REMARK    3  A    between atoms: N_7  and  N_11
REMARK    4  A    between atoms: N_10  and  N_19
REMARK    5  A    between atoms: C_20  and  O_22
REMARK    6  A    between atoms: S_23  and  N_31
REMARK    7  A    between atoms: C_24  and  N_25
REMARK    8  A    between atoms: C_26  and  C_28
REMARK    9  A    between atoms: C_32  and  C_34
REMARK                            x       y       z     vdW  Elec       q    Type
REMARK                         _______ _______ _______ _____ _____    ______ ____
ROOT
ATOM      1  N   UNL     1     -13.853 -43.668  30.944  0.00  0.00    -0.272 N 
ATOM      2  C   UNL     1     -13.398 -42.478  31.564  0.00  0.00    +0.196 C 
ATOM      3  C   UNL     1     -14.306 -42.226  32.772  0.00  0.00    +0.011 C 
ATOM      4  C   UNL     1     -14.513 -43.385  33.660  0.00  0.00    -0.026 C 
ATOM      5  C   UNL     1     -14.078 -44.723  33.179  0.00  0.00    +0.047 C 
ATOM      6  C   UNL     1     -14.094 -44.869  31.707  0.00  0.00    +0.099 C 
ENDROOT
BRANCH   2   7
ATOM      7  N   UNL     1     -12.020 -42.370  31.914  0.00  0.00    -0.160 N 
ATOM      8  C   UNL     1     -11.705 -41.785  33.209  0.00  0.00    +0.338 C 
ATOM      9  O   UNL     1     -12.627 -41.400  33.968  0.00  0.00    -0.249 OA
ATOM     10  N   UNL     1     -10.370 -41.631  33.653  0.00  0.00    -0.214 N 
ATOM     11  H   UNL     1      -9.643 -41.932  33.061  0.00  0.00    +0.175 HD
BRANCH   7  12
ATOM     12  N   UNL     1     -10.937 -42.783  31.111  0.00  0.00    -0.128 N 
ATOM     13  C   UNL     1     -10.229 -43.861  31.478  0.00  0.00    +0.330 C 
ATOM     14  O   UNL     1     -10.520 -44.503  32.519  0.00  0.00    -0.250 OA
ATOM     15  N   UNL     1      -9.178 -44.259  30.704  0.00  0.00    -0.265 N 
ATOM     16  C   UNL     1      -8.814 -43.628  29.591  0.00  0.00    +0.070 C 
ATOM     17  C   UNL     1      -9.531 -42.515  29.199  0.00  0.00    +0.076 C 
ATOM     18  C   UNL     1     -10.604 -42.125  30.007  0.00  0.00    +0.274 C 
ATOM     19  O   UNL     1     -11.240 -41.111  29.632  0.00  0.00    -0.268 OA
ATOM     20  H   UNL     1      -8.664 -45.051  30.983  0.00  0.00    +0.157 HD
ENDBRANCH   7  12
BRANCH  10  21
ATOM     21  N   UNL     1     -10.032 -41.077  34.882  0.00  0.00    -0.198 N 
ATOM     22  C   UNL     1      -8.742 -41.281  35.419  0.00  0.00    +0.414 C 
ATOM     23  O   UNL     1      -7.881 -41.973  34.782  0.00  0.00    -0.225 OA
ATOM     24  H   UNL     1     -10.692 -40.542  35.379  0.00  0.00    +0.176 HD
BRANCH  22  25
ATOM     25  O   UNL     1      -8.329 -40.762  36.637  0.00  0.00    -0.465 OA
ATOM     26  H   UNL     1      -8.919 -40.245  37.150  0.00  0.00    +0.297 HD
ENDBRANCH  22  25
ENDBRANCH  10  21
ENDBRANCH   2   7
BRANCH   1  28
ATOM     27  S   UNL     1     -15.439 -42.961  28.911  0.00  0.00    -0.094 S 
ATOM     28  C   UNL     1     -14.130 -43.749  29.555  0.00  0.00    +0.133 C 
ATOM     29  H   UNL     1     -15.306 -41.654  29.261  0.00  0.00    +0.115 HD
BRANCH  28  30
ATOM     30  N   UNL     1     -13.328 -44.425  28.601  0.00  0.00    -0.260 N 
ATOM     31  C   UNL     1     -12.353 -45.392  28.926  0.00  0.00    +0.304 C 
ATOM     32  O   UNL     1     -12.160 -45.709  30.125  0.00  0.00    -0.265 OA
ATOM     33  H   UNL     1     -13.460 -44.206  27.650  0.00  0.00    +0.157 HD
BRANCH  31  34
ATOM     34  C   UNL     1     -11.567 -46.023  27.854  0.00  0.00    +0.297 C 
ATOM     35  O   UNL     1     -12.121 -46.295  26.760  0.00  0.00    -0.265 OA
ATOM     36  N   UNL     1     -10.190 -46.330  28.031  0.00  0.00    -0.322 N 
ATOM     37  H   UNL     1      -9.745 -46.122  28.884  0.00  0.00    +0.145 HD
ATOM     38  H   UNL     1      -9.682 -46.751  27.301  0.00  0.00    +0.145 HD
ENDBRANCH  31  34
ENDBRANCH  28  30
BRANCH  27  39
ATOM     39  N   UNL     1     -15.785 -42.976  27.174  0.00  0.00    -0.230 NA
ATOM     40  C   UNL     1     -15.166 -42.014  26.303  0.00  0.00    +0.111 C 
ATOM     41  C   UNL     1     -14.630 -43.370  26.324  0.00  0.00    +0.102 C 
BRANCH  40  42
ATOM     42  C   UNL     1     -15.921 -41.403  25.173  0.00  0.00    +0.132 C 
ATOM     43  O   UNL     1     -15.139 -41.501  24.033  0.00  0.00    -0.355 OA
ATOM     44  C   UNL     1     -15.668 -42.537  23.268  0.00  0.00    +0.142 C 
ATOM     45  C   UNL     1     -17.167 -42.350  23.416  0.00  0.00    +0.035 C 
ATOM     46  C   UNL     1     -17.258 -41.983  24.892  0.00  0.00    +0.034 C 
ENDBRANCH  40  42
ENDBRANCH  27  39
ENDBRANCH   1  28
TORSDOF 9
