REMARK  Name = =
REMARK  2 active torsions:
REMARK  status: ('A' for Active; 'I' for Inactive)
REMARK    1  A    between atoms: C_8  and  C_11
REMARK    2  A    between atoms: N_13  and  N_14
REMARK                            x       y       z     vdW  Elec       q    Type
REMARK                         _______ _______ _______ _____ _____    ______ ____
ROOT
ATOM      1  C   UNL     1      52.436 156.542  28.748  0.00  0.00    +0.199 C 
ATOM      2  N   UNL     1      52.645 155.645  27.772  0.00  0.00    -0.224 NA
ATOM      3  C   UNL     1      53.386 155.929  26.664  0.00  0.00    +0.089 C 
ATOM      4  C   UNL     1      53.931 157.184  26.558  0.00  0.00    +0.037 C 
ATOM      5  C   UNL     1      54.670 157.484  25.431  0.00  0.00    +0.003 C 
ATOM      6  C   UNL     1      54.858 156.549  24.435  0.00  0.00    +0.000 C 
ATOM      7  C   UNL     1      54.290 155.286  24.575  0.00  0.00    +0.006 C 
ATOM      8  C   UNL     1      53.553 154.958  25.679  0.00  0.00    +0.073 C 
ATOM      9  C   UNL     1      53.701 158.077  27.569  0.00  0.00    +0.102 C 
ATOM     10  N   UNL     1      52.968 157.767  28.645  0.00  0.00    -0.222 NA
ENDROOT
BRANCH   8  11
ATOM     11  C   UNL     1      52.938 153.654  25.914  0.00  0.00    +0.263 C 
ATOM     12  O   UNL     1      51.725 153.526  25.645  0.00  0.00    -0.269 OA
ATOM     13  N   UNL     1      53.651 152.539  26.420  0.00  0.00    -0.230 N 
ATOM     14  H   UNL     1      54.606 152.682  26.611  0.00  0.00    +0.173 HD
BRANCH  13  15
ATOM     15  N   UNL     1      53.157 151.273  26.676  0.00  0.00    -0.226 N 
ATOM     16  C   UNL     1      52.862 150.264  25.752  0.00  0.00    +0.316 C 
ATOM     17  O   UNL     1      53.048 150.472  24.527  0.00  0.00    -0.264 OA
ATOM     18  H   UNL     1      52.993 151.055  27.622  0.00  0.00    +0.173 HD
ENDBRANCH  13  15
ENDBRANCH   8  11
TORSDOF 2
