REMARK  Name = =
REMARK  3 active torsions:
REMARK  status: ('A' for Active; 'I' for Inactive)
REMARK    1  A    between atoms: C_1  and  C_16
REMARK    2  A    between atoms: C_8  and  C_17
REMARK    3  A    between atoms: N_19  and  N_20
REMARK                            x       y       z     vdW  Elec       q    Type
REMARK                         _______ _______ _______ _____ _____    ______ ____
ROOT
ATOM      1  C   UNL     1      52.303 155.031  27.503  0.00  0.00    +0.155 C 
ATOM      2  N   UNL     1      52.753 154.145  26.615  0.00  0.00    -0.229 NA
ATOM      3  C   UNL     1      53.588 154.505  25.629  0.00  0.00    +0.089 C 
ATOM      4  C   UNL     1      53.983 155.856  25.552  0.00  0.00    +0.037 C 
ATOM      5  C   UNL     1      54.834 156.249  24.544  0.00  0.00    +0.003 C 
ATOM      6  C   UNL     1      55.292 155.337  23.626  0.00  0.00    +0.000 C 
ATOM      7  C   UNL     1      54.896 154.035  23.722  0.00  0.00    +0.006 C 
ATOM      8  C   UNL     1      54.030 153.570  24.725  0.00  0.00    +0.072 C 
ATOM      9  C   UNL     1      53.504 156.762  26.486  0.00  0.00    +0.102 C 
ATOM     10  N   UNL     1      52.676 156.320  27.435  0.00  0.00    -0.228 NA
ENDROOT
BRANCH   1  16
ATOM     11  N   UNL     1      50.057 155.163  28.329  0.00  0.00    -0.290 NA
ATOM     12  C   UNL     1      49.813 156.337  29.153  0.00  0.00    +0.086 C 
ATOM     13  C   UNL     1      49.688 155.868  30.574  0.00  0.00    +0.086 C 
ATOM     14  N   UNL     1      50.894 155.168  30.936  0.00  0.00    -0.295 NA
ATOM     15  C   UNL     1      51.891 155.146  29.895  0.00  0.00    +0.092 C 
ATOM     16  C   UNL     1      51.365 154.599  28.600  0.00  0.00    +0.129 C 
ATOM     17  H   UNL     1      49.344 154.462  28.529  0.00  0.00    +0.124 HD
ATOM     18  H   UNL     1      50.649 154.205  31.167  0.00  0.00    +0.123 HD
ENDBRANCH   1  16
BRANCH   8  19
ATOM     19  C   UNL     1      53.668 152.181  24.783  0.00  0.00    +0.263 C 
ATOM     20  O   UNL     1      53.567 151.572  23.650  0.00  0.00    -0.269 OA
ATOM     21  N   UNL     1      53.407 151.387  25.909  0.00  0.00    -0.230 N 
ATOM     22  H   UNL     1      53.466 151.776  26.812  0.00  0.00    +0.173 HD
BRANCH  21  23
ATOM     23  N   UNL     1      53.055 150.012  25.742  0.00  0.00    -0.226 N 
ATOM     24  C   UNL     1      53.938 149.095  25.109  0.00  0.00    +0.316 C 
ATOM     25  O   UNL     1      55.071 149.490  24.675  0.00  0.00    -0.264 OA
ATOM     26  H   UNL     1      52.184 149.693  26.072  0.00  0.00    +0.173 HD
ENDBRANCH  21  23
ENDBRANCH   8  19
TORSDOF 3
