REMARK  Name = =
REMARK  5 active torsions:
REMARK  status: ('A' for Active; 'I' for Inactive)
REMARK    1  A    between atoms: C_1  and  C_16
REMARK    2  A    between atoms: C_8  and  C_20
REMARK    3  A    between atoms: N_11  and  O_17
REMARK    4  A    between atoms: O_17  and  C_18
REMARK    5  A    between atoms: N_22  and  N_23
REMARK                            x       y       z     vdW  Elec       q    Type
REMARK                         _______ _______ _______ _____ _____    ______ ____
ROOT
ATOM      1  C   UNL     1      53.134 156.566  26.907  0.00  0.00    +0.158 C 
ATOM      2  N   UNL     1      52.927 155.275  26.592  0.00  0.00    -0.229 NA
ATOM      3  C   UNL     1      53.549 154.669  25.566  0.00  0.00    +0.089 C 
ATOM      4  C   UNL     1      54.451 155.386  24.781  0.00  0.00    +0.037 C 
ATOM      5  C   UNL     1      55.080 154.751  23.735  0.00  0.00    +0.003 C 
ATOM      6  C   UNL     1      54.825 153.421  23.460  0.00  0.00    +0.000 C 
ATOM      7  C   UNL     1      53.915 152.729  24.266  0.00  0.00    +0.006 C 
ATOM      8  C   UNL     1      53.278 153.346  25.313  0.00  0.00    +0.072 C 
ATOM      9  C   UNL     1      54.666 156.710  25.103  0.00  0.00    +0.102 C 
ATOM     10  N   UNL     1      54.005 157.253  26.147  0.00  0.00    -0.228 NA
ENDROOT
BRANCH   1  16
ATOM     11  N   UNL     1      51.946 156.313  29.011  0.00  0.00    -0.108 NA
ATOM     12  C   UNL     1      51.473 156.995  30.161  0.00  0.00    +0.131 C 
ATOM     13  C   UNL     1      51.468 158.500  30.038  0.00  0.00    +0.090 C 
ATOM     14  N   UNL     1      52.727 159.036  29.582  0.00  0.00    -0.295 NA
ATOM     15  C   UNL     1      53.475 158.099  28.771  0.00  0.00    +0.096 C 
ATOM     16  C   UNL     1      52.440 157.227  28.043  0.00  0.00    +0.169 C 
ATOM     17  H   UNL     1      53.290 159.284  30.396  0.00  0.00    +0.123 HD
BRANCH  11  18
ATOM     18  O   UNL     1      51.214 155.288  28.564  0.00  0.00    -0.356 OA
BRANCH  18  19
ATOM     19  C   UNL     1      49.851 155.150  28.791  0.00  0.00    +0.438 C 
ATOM     20  O   UNL     1      49.331 156.038  29.529  0.00  0.00    -0.236 OA
ENDBRANCH  18  19
ENDBRANCH  11  18
ENDBRANCH   1  16
BRANCH   8  21
ATOM     21  C   UNL     1      52.325 152.666  26.175  0.00  0.00    +0.263 C 
ATOM     22  O   UNL     1      51.297 153.205  26.615  0.00  0.00    -0.269 OA
ATOM     23  N   UNL     1      52.583 151.315  26.533  0.00  0.00    -0.230 N 
ATOM     24  H   UNL     1      53.390 150.860  26.200  0.00  0.00    +0.173 HD
BRANCH  23  25
ATOM     25  N   UNL     1      51.684 150.637  27.360  0.00  0.00    -0.226 N 
ATOM     26  C   UNL     1      51.370 151.108  28.666  0.00  0.00    +0.316 C 
ATOM     27  O   UNL     1      51.951 152.173  29.035  0.00  0.00    -0.264 OA
ATOM     28  H   UNL     1      51.257 149.813  27.031  0.00  0.00    +0.173 HD
ENDBRANCH  23  25
ENDBRANCH   8  21
TORSDOF 5
