REMARK  Name = =
REMARK  0 active torsions:
REMARK  status: ('A' for Active; 'I' for Inactive)
REMARK                            x       y       z     vdW  Elec       q    Type
REMARK                         _______ _______ _______ _____ _____    ______ ____
ROOT
ATOM      1  C   UNL     1      49.756 156.180  29.618  0.00  0.00    +0.001 C 
ATOM      2  C   UNL     1      51.097 156.386  29.340  0.00  0.00    +0.012 C 
ATOM      3  C   UNL     1      51.718 157.609  29.526  0.00  0.00    +0.068 C 
ATOM      4  C   UNL     1      50.945 158.645  30.008  0.00  0.00    +0.068 C 
ATOM      5  C   UNL     1      49.611 158.441  30.285  0.00  0.00    +0.012 C 
ATOM      6  C   UNL     1      48.987 157.220  30.101  0.00  0.00    +0.001 C 
ATOM      7 CL   UNL     1      51.697 160.207  30.257  0.00  0.00    -0.081 Cl
ATOM      8 CL   UNL     1      53.427 157.837  29.162  0.00  0.00    -0.081 Cl
ENDROOT
TORSDOF 0
