REMARK  Name = =
REMARK  1 active torsions:
REMARK  status: ('A' for Active; 'I' for Inactive)
REMARK    1  A    between atoms: C_1  and  C_9
REMARK                            x       y       z     vdW  Elec       q    Type
REMARK                         _______ _______ _______ _____ _____    ______ ____
ROOT
ATOM      1  C   UNL     1      50.325 156.703  29.394  0.00  0.00    -0.003 C 
ATOM      2  C   UNL     1      51.330 157.634  29.574  0.00  0.00    +0.009 C 
ATOM      3  C   UNL     1      51.088 158.882  30.140  0.00  0.00    +0.068 C 
ATOM      4  C   UNL     1      49.814 159.224  30.541  0.00  0.00    +0.068 C 
ATOM      5  C   UNL     1      48.797 158.308  30.370  0.00  0.00    +0.012 C 
ATOM      6  C   UNL     1      49.058 157.072  29.805  0.00  0.00    -0.002 C 
ATOM      7 CL   UNL     1      49.505 160.800  31.257  0.00  0.00    -0.081 Cl
ATOM      8 CL   UNL     1      52.359 160.056  30.365  0.00  0.00    -0.081 Cl
ENDROOT
BRANCH   1   9
ATOM      9  C   UNL     1      50.644 155.398  28.789  0.00  0.00    +0.148 C 
ATOM     10  S   UNL     1      51.881 155.717  27.465  0.00  0.00    -0.106 S 
ATOM     11  C   UNL     1      53.181 154.565  28.067  0.00  0.00    +0.150 C 
ATOM     12  N   UNL     1      52.389 153.745  28.967  0.00  0.00    -0.294 N 
ATOM     13  C   UNL     1      51.416 154.507  29.665  0.00  0.00    +0.237 C 
ATOM     14  O   UNL     1      51.271 154.388  30.932  0.00  0.00    -0.274 OA
ATOM     15  H   UNL     1      52.513 152.775  29.080  0.00  0.00    +0.150 HD
ENDBRANCH   1   9
TORSDOF 1
