REMARK  Name = =
REMARK  2 active torsions:
REMARK  status: ('A' for Active; 'I' for Inactive)
REMARK    1  A    between atoms: C_1  and  C_7
REMARK    2  A    between atoms: C_1  and  C_16
REMARK                            x       y       z     vdW  Elec       q    Type
REMARK                         _______ _______ _______ _____ _____    ______ ____
ROOT
ATOM      1  C   UNL     1      49.436 159.841  31.769  0.00  0.00    +0.145 C 
ATOM      2  S   UNL     1      50.822 160.731  32.670  0.00  0.00    -0.104 S 
ATOM      3  C   UNL     1      49.794 161.228  34.113  0.00  0.00    +0.150 C 
ATOM      4  N   UNL     1      48.547 160.542  33.869  0.00  0.00    -0.294 N 
ATOM      5  C   UNL     1      48.661 159.482  32.946  0.00  0.00    +0.239 C 
ATOM      6  O   UNL     1      48.155 158.314  33.096  0.00  0.00    -0.274 OA
ATOM      7  H   UNL     1      47.700 160.790  34.305  0.00  0.00    +0.150 HD
ENDROOT
BRANCH   1   8
ATOM      8  C   UNL     1      48.788 160.790  30.870  0.00  0.00    +0.002 C 
ATOM      9  C   UNL     1      48.639 160.762  29.577  0.00  0.00    +0.013 C 
ATOM     10  C   UNL     1      47.957 161.874  29.139  0.00  0.00    +0.076 C 
ATOM     11  N   UNL     1      47.653 162.638  30.111  0.00  0.00    -0.266 NA
ATOM     12  C   UNL     1      48.126 162.079  31.321  0.00  0.00    +0.149 C 
ATOM     13  C   UNL     1      47.693 162.043  27.782  0.00  0.00    +0.019 C 
ATOM     14  C   UNL     1      48.080 161.151  26.833  0.00  0.00    +0.002 C 
ATOM     15  C   UNL     1      48.762 160.036  27.259  0.00  0.00    +0.000 C 
ATOM     16  C   UNL     1      49.038 159.844  28.612  0.00  0.00    +0.001 C 
ENDBRANCH   1   8
BRANCH   1  17
ATOM     17  C   UNL     1      50.028 158.708  31.031  0.00  0.00    -0.001 C 
ATOM     18  C   UNL     1      51.248 158.855  30.412  0.00  0.00    +0.010 C 
ATOM     19  C   UNL     1      51.784 157.781  29.726  0.00  0.00    +0.068 C 
ATOM     20  C   UNL     1      51.080 156.574  29.677  0.00  0.00    +0.068 C 
ATOM     21  C   UNL     1      49.853 156.429  30.300  0.00  0.00    +0.012 C 
ATOM     22  C   UNL     1      49.342 157.514  30.976  0.00  0.00    -0.002 C 
ATOM     23 CL   UNL     1      51.785 155.228  28.799  0.00  0.00    -0.081 Cl
ATOM     24 CL   UNL     1      53.326 157.868  28.908  0.00  0.00    -0.081 Cl
ENDBRANCH   1  17
TORSDOF 2
