REMARK  Name = =
REMARK  5 active torsions:
REMARK  status: ('A' for Active; 'I' for Inactive)
REMARK    1  A    between atoms: C_1  and  C_22
REMARK    2  A    between atoms: C_7  and  N_10
REMARK    3  A    between atoms: C_15  and  O_21
REMARK    4  A    between atoms: C_16  and  O_20
REMARK    5  A    between atoms: C_22  and  C_28
REMARK                            x       y       z     vdW  Elec       q    Type
REMARK                         _______ _______ _______ _____ _____    ______ ____
ROOT
ATOM      1  C   UNL     1      49.842 158.512  30.695  0.00  0.00    +0.002 C 
ATOM      2  C   UNL     1      50.623 157.808  29.871  0.00  0.00    +0.013 C 
ATOM      3  C   UNL     1      50.361 156.453  29.979  0.00  0.00    +0.077 C 
ATOM      4  N   UNL     1      49.426 156.243  30.837  0.00  0.00    -0.266 NA
ATOM      5  C   UNL     1      48.984 157.498  31.361  0.00  0.00    +0.149 C 
ATOM      6  C   UNL     1      51.010 155.481  29.238  0.00  0.00    +0.033 C 
ATOM      7  C   UNL     1      51.966 155.887  28.343  0.00  0.00    +0.050 C 
ATOM      8  C   UNL     1      52.246 157.210  28.207  0.00  0.00    +0.015 C 
ATOM      9  C   UNL     1      51.587 158.190  28.961  0.00  0.00    +0.002 C 
ENDROOT
BRANCH   7  10
ATOM     10  N   UNL     1      52.655 154.937  27.566  0.00  0.00    -0.303 N 
ATOM     11  C   UNL     1      51.921 153.769  27.239  0.00  0.00    +0.118 C 
ATOM     12  C   UNL     1      52.612 152.867  26.296  0.00  0.00    -0.003 C 
ATOM     13  C   UNL     1      53.213 153.484  25.190  0.00  0.00    -0.020 C 
ATOM     14  C   UNL     1      53.864 152.725  24.275  0.00  0.00    +0.035 C 
ATOM     15  C   UNL     1      53.949 151.332  24.411  0.00  0.00    +0.167 C 
ATOM     16  C   UNL     1      53.355 150.727  25.503  0.00  0.00    +0.167 C 
ATOM     17  C   UNL     1      52.687 151.501  26.442  0.00  0.00    +0.037 C 
ATOM     18  C   UNL     1      53.049 154.958  25.172  0.00  0.00    +0.048 C 
ATOM     19  C   UNL     1      53.474 155.431  26.538  0.00  0.00    +0.096 C 
BRANCH  16  20
ATOM     20  O   UNL     1      53.452 149.348  25.617  0.00  0.00    -0.503 OA
ATOM     21  H   UNL     1      53.910 148.855  24.965  0.00  0.00    +0.292 HD
ENDBRANCH  16  20
BRANCH  15  22
ATOM     22  O   UNL     1      54.633 150.611  23.437  0.00  0.00    -0.503 OA
ATOM     23  H   UNL     1      55.023 151.057  22.711  0.00  0.00    +0.292 HD
ENDBRANCH  15  22
ENDBRANCH   7  10
BRANCH   1  24
ATOM     24  C   UNL     1      49.778 159.944  30.909  0.00  0.00    +0.145 C 
ATOM     25  S   UNL     1      49.066 160.604  29.230  0.00  0.00    -0.104 S 
ATOM     26  C   UNL     1      48.600 162.217  29.993  0.00  0.00    +0.150 C 
ATOM     27  N   UNL     1      48.524 161.889  31.388  0.00  0.00    -0.294 N 
ATOM     28  C   UNL     1      48.611 160.480  31.647  0.00  0.00    +0.239 C 
ATOM     29  O   UNL     1      47.779 159.887  32.393  0.00  0.00    -0.274 OA
ATOM     30  H   UNL     1      48.422 162.564  32.097  0.00  0.00    +0.150 HD
BRANCH  24  31
ATOM     31  C   UNL     1      51.000 160.712  30.984  0.00  0.00    -0.001 C 
ATOM     32  C   UNL     1      51.201 161.901  31.612  0.00  0.00    +0.010 C 
ATOM     33  C   UNL     1      52.414 162.570  31.596  0.00  0.00    +0.068 C 
ATOM     34  C   UNL     1      53.486 162.052  30.935  0.00  0.00    +0.068 C 
ATOM     35  C   UNL     1      53.329 160.851  30.287  0.00  0.00    +0.012 C 
ATOM     36  C   UNL     1      52.118 160.195  30.309  0.00  0.00    -0.002 C 
ATOM     37 CL   UNL     1      55.045 162.873  30.892  0.00  0.00    -0.081 Cl
ATOM     38 CL   UNL     1      52.555 164.084  32.431  0.00  0.00    -0.081 Cl
ENDBRANCH  24  31
ENDBRANCH   1  24
TORSDOF 5
