REMARK  Name = =
REMARK  2 active torsions:
REMARK  status: ('A' for Active; 'I' for Inactive)
REMARK    1  A    between atoms: C_2  and  C_4
REMARK    2  A    between atoms: C_4  and  O_6
REMARK                            x       y       z     vdW  Elec       q    Type
REMARK                         _______ _______ _______ _____ _____    ______ ____
ROOT
ATOM      1  N   UNL     1      -4.432  -4.017  30.391  0.00  0.00    -0.320 N 
ATOM      2  C   UNL     1      -3.204  -4.269  29.740  0.00  0.00    +0.319 C 
ATOM      3  O   UNL     1      -2.985  -3.690  28.650  0.00  0.00    -0.263 OA
ATOM      4  H   UNL     1      -4.634  -4.456  31.249  0.00  0.00    +0.145 HD
ATOM      5  H   UNL     1      -5.086  -3.402  29.987  0.00  0.00    +0.145 HD
ENDROOT
BRANCH   2   6
ATOM      6  C   UNL     1      -2.201  -5.169  30.301  0.00  0.00    +0.392 C 
ATOM      7  O   UNL     1      -2.456  -5.943  31.259  0.00  0.00    -0.240 OA
BRANCH   6   8
ATOM      8  O   UNL     1      -0.905  -5.226  29.806  0.00  0.00    -0.474 OA
ATOM      9  H   UNL     1      -0.651  -4.674  29.092  0.00  0.00    +0.296 HD
ENDBRANCH   6   8
ENDBRANCH   2   6
TORSDOF 2
