REMARK  Name = =
REMARK  1 active torsions:
REMARK  status: ('A' for Active; 'I' for Inactive)
REMARK    1  A    between atoms: C_1  and  C_15
REMARK                            x       y       z     vdW  Elec       q    Type
REMARK                         _______ _______ _______ _____ _____    ______ ____
ROOT
ATOM      1  C   UNL     1       4.986  -0.742  37.768  0.00  0.00    +0.114 C 
ATOM      2  N   UNL     1       5.018  -1.839  36.995  0.00  0.00    -0.242 NA
ATOM      3  C   UNL     1       3.996  -2.251  36.237  0.00  0.00    +0.081 C 
ATOM      4  C   UNL     1       4.156  -3.392  35.490  0.00  0.00    +0.018 C 
ATOM      5  C   UNL     1       3.121  -3.838  34.701  0.00  0.00    +0.001 C 
ATOM      6  C   UNL     1       1.942  -3.120  34.683  0.00  0.00    +0.000 C 
ATOM      7  C   UNL     1       1.783  -1.963  35.441  0.00  0.00    +0.001 C 
ATOM      8  C   UNL     1       2.830  -1.526  36.229  0.00  0.00    +0.018 C 
ATOM      9  C   UNL     1       2.755  -0.396  37.006  0.00  0.00    +0.003 C 
ATOM     10  C   UNL     1       3.827   0.007  37.780  0.00  0.00    +0.022 C 
ATOM     11  C   UNL     1       3.247  -4.993  33.929  0.00  0.00    +0.000 C 
ATOM     12  C   UNL     1       4.433  -5.685  33.970  0.00  0.00    +0.000 C 
ATOM     13  C   UNL     1       5.471  -5.227  34.768  0.00  0.00    +0.000 C 
ATOM     14  C   UNL     1       5.346  -4.081  35.535  0.00  0.00    +0.001 C 
ENDROOT
BRANCH   1  15
ATOM     15  C   UNL     1       6.142  -0.351  38.572  0.00  0.00    +0.167 C 
ATOM     16  N   UNL     1       7.288  -1.037  38.721  0.00  0.00    -0.205 NA
ATOM     17  C   UNL     1       8.118  -0.350  39.544  0.00  0.00    +0.218 C 
ATOM     18  N   UNL     1       7.475   0.768  39.902  0.00  0.00    -0.157 NA
ATOM     19  N   UNL     1       6.284   0.759  39.311  0.00  0.00    -0.217 N 
ATOM     20  H   UNL     1       5.604   1.465  39.403  0.00  0.00    +0.176 HD
ENDBRANCH   1  15
TORSDOF 1
