REMARK  Name = =
REMARK  6 active torsions:
REMARK  status: ('A' for Active; 'I' for Inactive)
REMARK    1  A    between atoms: CA_1  and  N_9
REMARK    2  A    between atoms: CA_4  and  C_16
REMARK    3  A    between atoms: C_5  and  S_15
REMARK    4  A    between atoms: C_10  and  C_12
REMARK    5  A    between atoms: C_12  and  O_14
REMARK    6  A    between atoms: C_16  and  OXT_18
REMARK                            x       y       z     vdW  Elec       q    Type
REMARK                         _______ _______ _______ _____ _____    ______ ____
ROOT
ATOM      1  CA  UNL     1      -4.646  -3.516  31.072  0.00  0.00    +0.169 C 
ATOM      2  C   UNL     1      -6.049  -2.987  31.052  0.00  0.00    +0.112 C 
ATOM      3  N   UNL     1      -5.391  -1.690  31.360  0.00  0.00    -0.251 N 
ATOM      4  CA  UNL     1      -6.454  -0.917  31.887  0.00  0.00    +0.132 C 
ATOM      5  C   UNL     1      -7.351  -1.717  32.455  0.00  0.00    +0.021 C 
ATOM      6  C   UNL     1      -6.876  -3.119  32.309  0.00  0.00    +0.056 C 
ATOM      7  C   UNL     1      -4.124  -2.123  30.909  0.00  0.00    +0.249 C 
ATOM      8  O   UNL     1      -3.065  -1.593  30.546  0.00  0.00    -0.273 OA
ENDROOT
BRANCH   1   9
ATOM      9  N   UNL     1      -4.250  -4.185  32.261  0.00  0.00    -0.288 N 
ATOM     10  C   UNL     1      -3.498  -5.388  32.148  0.00  0.00    +0.322 C 
ATOM     11  O   UNL     1      -3.208  -5.820  30.999  0.00  0.00    -0.263 OA
ATOM     12  H   UNL     1      -4.491  -3.824  33.145  0.00  0.00    +0.150 HD
BRANCH  10  13
ATOM     13  C   UNL     1      -3.047  -6.144  33.293  0.00  0.00    +0.392 C 
ATOM     14  O   UNL     1      -3.240  -5.665  34.438  0.00  0.00    -0.240 OA
BRANCH  13  15
ATOM     15  O   UNL     1      -2.416  -7.369  33.155  0.00  0.00    -0.474 OA
ATOM     16  H   UNL     1      -2.271  -7.728  32.302  0.00  0.00    +0.296 HD
ENDBRANCH  13  15
ENDBRANCH  10  13
ENDBRANCH   1   9
BRANCH   5  17
ATOM     17  S   UNL     1      -8.847  -1.186  33.245  0.00  0.00    -0.144 S 
ATOM     18  H   UNL     1      -8.937   0.169  33.180  0.00  0.00    +0.107 HD
ENDBRANCH   5  17
BRANCH   4  19
ATOM     19  C   UNL     1      -6.537   0.558  31.811  0.00  0.00    +0.352 C 
ATOM     20  O   UNL     1      -7.561   1.113  32.248  0.00  0.00    -0.244 OA
BRANCH  19  21
ATOM     21  OXT UNL     1      -5.517   1.298  31.275  0.00  0.00    -0.476 OA
ATOM     22  HXT UNL     1      -4.750   0.871  30.948  0.00  0.00    +0.295 HD
ENDBRANCH  19  21
ENDBRANCH   4  19
TORSDOF 6
