REMARK  Name = =
REMARK  2 active torsions:
REMARK  status: ('A' for Active; 'I' for Inactive)
REMARK    1  A    between atoms: C_1  and  C_15
REMARK    2  A    between atoms: C_14  and  C_20
REMARK                            x       y       z     vdW  Elec       q    Type
REMARK                         _______ _______ _______ _____ _____    ______ ____
ROOT
ATOM      1  C   UNL     1       4.636  -0.794  37.641  0.00  0.00    +0.114 C 
ATOM      2  N   UNL     1       4.828  -1.776  36.746  0.00  0.00    -0.243 NA
ATOM      3  C   UNL     1       3.768  -2.178  36.009  0.00  0.00    +0.081 C 
ATOM      4  C   UNL     1       4.011  -3.244  35.143  0.00  0.00    +0.014 C 
ATOM      5  C   UNL     1       2.928  -3.757  34.398  0.00  0.00    +0.001 C 
ATOM      6  C   UNL     1       1.672  -3.159  34.566  0.00  0.00    +0.000 C 
ATOM      7  C   UNL     1       1.454  -2.099  35.433  0.00  0.00    +0.001 C 
ATOM      8  C   UNL     1       2.532  -1.602  36.169  0.00  0.00    +0.018 C 
ATOM      9  C   UNL     1       2.341  -0.605  37.083  0.00  0.00    +0.003 C 
ATOM     10  C   UNL     1       3.389  -0.188  37.834  0.00  0.00    +0.022 C 
ATOM     11  C   UNL     1       3.048  -4.886  33.620  0.00  0.00    +0.000 C 
ATOM     12  C   UNL     1       4.248  -5.506  33.589  0.00  0.00    -0.000 C 
ATOM     13  C   UNL     1       5.291  -5.018  34.303  0.00  0.00    -0.004 C 
ATOM     14  C   UNL     1       5.247  -3.859  35.118  0.00  0.00    -0.021 C 
ENDROOT
BRANCH   1  15
ATOM     15  C   UNL     1       5.724  -0.215  38.460  0.00  0.00    +0.167 C 
ATOM     16  N   UNL     1       5.690   0.909  39.203  0.00  0.00    -0.205 NA
ATOM     17  C   UNL     1       6.888   1.176  39.743  0.00  0.00    +0.218 C 
ATOM     18  N   UNL     1       7.696   0.160  39.320  0.00  0.00    -0.157 NA
ATOM     19  N   UNL     1       6.977  -0.669  38.545  0.00  0.00    -0.217 N 
ATOM     20  H   UNL     1       7.320  -1.482  38.109  0.00  0.00    +0.176 HD
ENDBRANCH   1  15
BRANCH  14  21
ATOM     21  C   UNL     1       6.418  -3.196  35.689  0.00  0.00    +0.022 C 
ATOM     22  C   UNL     1       7.337  -3.987  36.546  0.00  0.00    +0.004 C 
ATOM     23  C   UNL     1       8.641  -3.294  36.346  0.00  0.00    +0.000 C 
ATOM     24  C   UNL     1       8.472  -2.146  35.392  0.00  0.00    +0.000 C 
ATOM     25  C   UNL     1       6.935  -1.880  35.269  0.00  0.00    +0.004 C 
ENDBRANCH  14  21
TORSDOF 2
