REMARK  Name = =
REMARK  8 active torsions:
REMARK  status: ('A' for Active; 'I' for Inactive)
REMARK    1  A    between atoms: C_1  and  N_9
REMARK    2  A    between atoms: C_1  and  N_21
REMARK    3  A    between atoms: C_4  and  C_28
REMARK    4  A    between atoms: C_5  and  S_27
REMARK    5  A    between atoms: N_12  and  C_15
REMARK    6  A    between atoms: C_22  and  C_24
REMARK    7  A    between atoms: C_24  and  O_26
REMARK    8  A    between atoms: C_28  and  O_30
REMARK                            x       y       z     vdW  Elec       q    Type
REMARK                         _______ _______ _______ _____ _____    ______ ____
ROOT
ATOM      1  C   UNL     1      -5.971  -2.012  32.334  0.00  0.00    +0.194 C 
ATOM      2  C   UNL     1      -5.156  -3.012  31.648  0.00  0.00    +0.124 C 
ATOM      3  N   UNL     1      -4.953  -3.603  32.990  0.00  0.00    -0.249 N 
ATOM      4  C   UNL     1      -4.425  -4.878  32.698  0.00  0.00    +0.132 C 
ATOM      5  C   UNL     1      -4.841  -5.284  31.494  0.00  0.00    +0.021 C 
ATOM      6  C   UNL     1      -5.706  -4.195  30.958  0.00  0.00    +0.058 C 
ATOM      7  C   UNL     1      -5.438  -2.462  33.656  0.00  0.00    +0.262 C 
ATOM      8  O   UNL     1      -5.425  -2.017  34.851  0.00  0.00    -0.271 OA
ENDROOT
BRANCH   1   9
ATOM      9  N   UNL     1      -7.377  -2.035  32.259  0.00  0.00    -0.249 NA
ATOM     10  C   UNL     1      -8.025  -1.432  31.178  0.00  0.00    +0.095 C 
ATOM     11  C   UNL     1      -9.244  -2.221  30.752  0.00  0.00    +0.110 C 
ATOM     12  N   UNL     1     -10.128  -2.291  31.900  0.00  0.00    -0.290 N 
ATOM     13  C   UNL     1      -9.523  -2.381  33.211  0.00  0.00    +0.110 C 
ATOM     14  C   UNL     1      -8.097  -2.883  33.108  0.00  0.00    +0.095 C 
BRANCH  12  15
ATOM     15  C   UNL     1     -11.531  -2.274  31.718  0.00  0.00    +0.132 C 
ATOM     16  C   UNL     1     -12.369  -2.267  32.811  0.00  0.00    +0.034 C 
ATOM     17  C   UNL     1     -13.742  -2.251  32.590  0.00  0.00    +0.004 C 
ATOM     18  C   UNL     1     -14.262  -2.242  31.305  0.00  0.00    +0.021 C 
ATOM     19  C   UNL     1     -13.364  -2.249  30.257  0.00  0.00    +0.100 C 
ATOM     20  N   UNL     1     -12.040  -2.265  30.475  0.00  0.00    -0.229 NA
ENDBRANCH  12  15
ENDBRANCH   1   9
BRANCH   1  21
ATOM     21  N   UNL     1      -5.470  -0.672  32.090  0.00  0.00    -0.278 N 
ATOM     22  C   UNL     1      -6.192   0.518  32.410  0.00  0.00    +0.323 C 
ATOM     23  O   UNL     1      -7.334   0.413  32.939  0.00  0.00    -0.263 OA
ATOM     24  H   UNL     1      -4.580  -0.578  31.680  0.00  0.00    +0.152 HD
BRANCH  22  25
ATOM     25  C   UNL     1      -5.645   1.829  32.146  0.00  0.00    +0.392 C 
ATOM     26  O   UNL     1      -4.517   1.946  31.629  0.00  0.00    -0.240 OA
BRANCH  25  27
ATOM     27  O   UNL     1      -6.360   2.962  32.458  0.00  0.00    -0.474 OA
ATOM     28  H   UNL     1      -7.209   2.888  32.847  0.00  0.00    +0.296 HD
ENDBRANCH  25  27
ENDBRANCH  22  25
ENDBRANCH   1  21
BRANCH   5  29
ATOM     29  S   UNL     1      -4.448  -6.822  30.679  0.00  0.00    -0.144 S 
ATOM     30  H   UNL     1      -3.632  -7.562  31.476  0.00  0.00    +0.107 HD
ENDBRANCH   5  29
BRANCH   4  31
ATOM     31  C   UNL     1      -3.544  -5.655  33.586  0.00  0.00    +0.352 C 
ATOM     32  O   UNL     1      -3.186  -5.192  34.695  0.00  0.00    -0.244 OA
BRANCH  31  33
ATOM     33  O   UNL     1      -3.084  -6.908  33.236  0.00  0.00    -0.476 OA
ATOM     34  H   UNL     1      -3.331  -7.285  32.415  0.00  0.00    +0.295 HD
ENDBRANCH  31  33
ENDBRANCH   4  31
TORSDOF 8
