REMARK  Name = =
REMARK  4 active torsions:
REMARK  status: ('A' for Active; 'I' for Inactive)
REMARK    1  A    between atoms: C_4  and  N_28
REMARK    2  A    between atoms: C_6  and  C_20
REMARK    3  A    between atoms: C_16  and  C_25
REMARK    4  A    between atoms: C_29  and  N_34
REMARK                            x       y       z     vdW  Elec       q    Type
REMARK                         _______ _______ _______ _____ _____    ______ ____
ROOT
ATOM      1  C   UNL     1       2.338  -8.613  27.886  0.00  0.00    -0.025 C 
ATOM      2  C   UNL     1       2.393  -7.215  28.493  0.00  0.00    +0.097 C 
ATOM      3  C   UNL     1       0.979  -6.696  28.610  0.00  0.00    +0.041 C 
ATOM      4  C   UNL     1       0.276  -7.953  28.977  0.00  0.00    +0.065 C 
ATOM      5  C   UNL     1       0.811  -8.835  27.835  0.00  0.00    +0.040 C 
ATOM      6  C   UNL     1       2.857  -4.992  28.264  0.00  0.00    +0.085 C 
ATOM      7  N   UNL     1       2.850  -6.164  27.629  0.00  0.00    -0.283 N 
ATOM      8  C   UNL     1       3.251  -6.289  26.364  0.00  0.00    +0.052 C 
ATOM      9  C   UNL     1       3.207  -7.554  25.784  0.00  0.00    +0.013 C 
ATOM     10  C   UNL     1       3.632  -7.686  24.437  0.00  0.00    +0.002 C 
ATOM     11  C   UNL     1       4.071  -6.564  23.750  0.00  0.00    +0.000 C 
ATOM     12  C   UNL     1       4.094  -5.339  24.375  0.00  0.00    +0.001 C 
ATOM     13  C   UNL     1       3.692  -5.178  25.670  0.00  0.00    +0.014 C 
ATOM     14  C   UNL     1       3.714  -3.951  26.290  0.00  0.00    +0.003 C 
ATOM     15  C   UNL     1       3.296  -3.841  27.598  0.00  0.00    +0.018 C 
ATOM     16  C   UNL     1       3.586  -8.910  23.828  0.00  0.00    +0.011 C 
ATOM     17  C   UNL     1       3.114 -10.008  24.546  0.00  0.00    +0.001 C 
ATOM     18  C   UNL     1       2.700  -9.918  25.831  0.00  0.00    -0.001 C 
ATOM     19  C   UNL     1       2.742  -8.668  26.480  0.00  0.00    -0.005 C 
ENDROOT
BRANCH   4  20
ATOM     20  N   UNL     1      -1.127  -7.978  29.031  0.00  0.00    -0.256 NA
ATOM     21  C   UNL     1      -1.817  -8.804  28.138  0.00  0.00    +0.157 C 
ATOM     22  C   UNL     1      -2.702  -9.833  28.842  0.00  0.00    +0.106 C 
ATOM     23  N   UNL     1      -3.654  -8.993  29.590  0.00  0.00    -0.294 NA
ATOM     24  C   UNL     1      -2.918  -8.502  30.723  0.00  0.00    +0.086 C 
ATOM     25  C   UNL     1      -1.546  -8.115  30.389  0.00  0.00    +0.091 C 
ATOM     26  H   UNL     1      -4.454  -9.546  29.896  0.00  0.00    +0.123 HD
BRANCH  21  27
ATOM     27  N   UNL     1      -1.128  -9.465  27.078  0.00  0.00    -0.241 N 
ATOM     28  C   UNL     1      -1.129  -9.133  25.766  0.00  0.00    +0.160 C 
ATOM     29  C   UNL     1      -0.319 -10.013  25.094  0.00  0.00    +0.146 C 
ATOM     30  N   UNL     1       0.149 -10.847  26.008  0.00  0.00    -0.222 NA
ATOM     31  C   UNL     1      -0.332 -10.527  27.207  0.00  0.00    +0.170 C 
ATOM     32  C   UNL     1      -0.169  -9.861  23.724  0.00  0.00    +0.148 C 
ATOM     33  N   UNL     1      -0.797  -8.880  23.050  0.00  0.00    -0.208 NA
ATOM     34  C   UNL     1      -1.586  -8.025  23.715  0.00  0.00    +0.201 C 
ATOM     35  N   UNL     1      -1.734  -8.169  25.042  0.00  0.00    -0.207 NA
ATOM     36  N   UNL     1       0.672 -10.779  23.059  0.00  0.00    -0.341 N 
ATOM     37  H   UNL     1       1.124 -11.491  23.568  0.00  0.00    +0.144 HD
ATOM     38  H   UNL     1       0.807 -10.708  22.086  0.00  0.00    +0.144 HD
ENDBRANCH  21  27
ENDBRANCH   4  20
BRANCH   6  39
ATOM     39  C   UNL     1       2.427  -4.841  29.647  0.00  0.00    +0.163 C 
ATOM     40  N   UNL     1       1.820  -5.798  30.368  0.00  0.00    -0.205 NA
ATOM     41  C   UNL     1       1.557  -5.336  31.611  0.00  0.00    +0.218 C 
ATOM     42  N   UNL     1       2.010  -4.081  31.644  0.00  0.00    -0.157 NA
ATOM     43  N   UNL     1       2.534  -3.785  30.459  0.00  0.00    -0.217 N 
ATOM     44  H   UNL     1       2.939  -2.921  30.217  0.00  0.00    +0.176 HD
ENDBRANCH   6  39
BRANCH  16  45
ATOM     45  C   UNL     1       4.079  -9.129  22.476  0.00  0.00    +0.058 C 
ATOM     46  C   UNL     1       4.963  -8.283  21.950  0.00  0.00    +0.012 C 
ATOM     47 CL   UNL     1       3.495 -10.409  21.459  0.00  0.00    -0.082 Cl
ENDBRANCH  16  45
TORSDOF 4
