REMARK  Name = =
REMARK  4 active torsions:
REMARK  status: ('A' for Active; 'I' for Inactive)
REMARK    1  A    between atoms: C_6  and  C_11
REMARK    2  A    between atoms: C_7  and  O_10
REMARK    3  A    between atoms: C_12  and  C_13
REMARK    4  A    between atoms: C_13  and  O_15
REMARK                            x       y       z     vdW  Elec       q    Type
REMARK                         _______ _______ _______ _____ _____    ______ ____
ROOT
ATOM      1  C   UNL     1      50.618 156.113  29.172  0.00  0.00    -0.026 C 
ATOM      2  C   UNL     1      51.408 157.191  29.425  0.00  0.00    -0.023 C 
ATOM      3  C   UNL     1      52.823 156.936  28.958  0.00  0.00    +0.026 C 
ATOM      4  C   UNL     1      52.864 155.455  28.747  0.00  0.00    +0.009 C 
ATOM      5  C   UNL     1      51.450 155.043  28.511  0.00  0.00    +0.026 C 
ATOM      6  C   UNL     1      50.910 158.351  30.040  0.00  0.00    +0.030 C 
ATOM      7  C   UNL     1      49.584 158.321  30.365  0.00  0.00    +0.133 C 
ATOM      8  C   UNL     1      48.744 157.240  30.124  0.00  0.00    +0.036 C 
ATOM      9  C   UNL     1      49.280 156.141  29.525  0.00  0.00    -0.001 C 
ENDROOT
BRANCH   7  10
ATOM     10  O   UNL     1      48.995 159.406  30.973  0.00  0.00    -0.506 OA
ATOM     11  H   UNL     1      49.504 160.169  31.165  0.00  0.00    +0.292 HD
ENDBRANCH   7  10
BRANCH   6  12
ATOM     12  C   UNL     1      51.812 159.457  30.277  0.00  0.00    +0.009 C 
ATOM     13  C   UNL     1      51.575 160.573  30.904  0.00  0.00    +0.082 C 
BRANCH  13  14
ATOM     14  C   UNL     1      52.612 161.586  31.049  0.00  0.00    +0.338 C 
ATOM     15  O   UNL     1      52.419 162.693  31.606  0.00  0.00    -0.245 OA
BRANCH  14  16
ATOM     16  O   UNL     1      53.915 161.373  30.560  0.00  0.00    -0.477 OA
ATOM     17  H   UNL     1      54.129 160.567  30.132  0.00  0.00    +0.295 HD
ENDBRANCH  14  16
ENDBRANCH  13  14
ENDBRANCH   6  12
TORSDOF 4
