REMARK  Name = =
REMARK  12 active torsions:
REMARK  status: ('A' for Active; 'I' for Inactive)
REMARK    1  A    between atoms: C_1  and  C_3
REMARK    2  A    between atoms: C_1  and  C_18
REMARK    3  A    between atoms: C_3  and  C_10
REMARK    4  A    between atoms: C_4  and  C_15
REMARK    5  A    between atoms: C_11  and  O_14
REMARK    6  A    between atoms: C_15  and  O_17
REMARK    7  A    between atoms: C_18  and  N_19
REMARK    8  A    between atoms: N_19  and  N_20
REMARK    9  A    between atoms: N_20  and  C_21
REMARK   10  A    between atoms: N_20  and  C_28
REMARK   11  A    between atoms: C_25  and  O_27
REMARK   12  A    between atoms: C_28  and  C_29
REMARK                            x       y       z     vdW  Elec       q    Type
REMARK                         _______ _______ _______ _____ _____    ______ ____
ROOT
ATOM      1  C   UNL     1      51.039 158.452  29.682  0.00  0.00    +0.191 C 
ATOM      2  O   UNL     1      51.668 159.431  29.211  0.00  0.00    -0.290 OA
ENDROOT
BRANCH   1   3
ATOM      3  C   UNL     1      51.486 157.045  29.390  0.00  0.00    +0.045 C 
ATOM      4  C   UNL     1      51.049 156.147  30.197  0.00  0.00    +0.085 C 
BRANCH   3  10
ATOM      5  C   UNL     1      53.189 155.743  26.261  0.00  0.00    -0.026 C 
ATOM      6  C   UNL     1      52.237 155.896  27.279  0.00  0.00    -0.023 C 
ATOM      7  C   UNL     1      51.134 154.927  26.986  0.00  0.00    +0.026 C 
ATOM      8  C   UNL     1      51.927 153.791  26.378  0.00  0.00    +0.009 C 
ATOM      9  C   UNL     1      52.805 154.598  25.406  0.00  0.00    +0.026 C 
ATOM     10  C   UNL     1      52.325 156.875  28.236  0.00  0.00    +0.032 C 
ATOM     11  C   UNL     1      53.435 157.743  28.143  0.00  0.00    +0.133 C 
ATOM     12  C   UNL     1      54.349 157.581  27.145  0.00  0.00    +0.036 C 
ATOM     13  C   UNL     1      54.260 156.603  26.199  0.00  0.00    -0.001 C 
BRANCH  11  14
ATOM     14  O   UNL     1      53.599 158.753  29.057  0.00  0.00    -0.506 OA
ATOM     15  H   UNL     1      52.973 158.868  29.745  0.00  0.00    +0.292 HD
ENDBRANCH  11  14
ENDBRANCH   3  10
BRANCH   4  16
ATOM     16  C   UNL     1      51.337 154.732  30.121  0.00  0.00    +0.338 C 
ATOM     17  O   UNL     1      52.367 154.209  30.526  0.00  0.00    -0.245 OA
BRANCH  16  18
ATOM     18  O   UNL     1      50.362 153.890  29.536  0.00  0.00    -0.477 OA
ATOM     19  H   UNL     1      49.561 154.254  29.214  0.00  0.00    +0.295 HD
ENDBRANCH  16  18
ENDBRANCH   4  16
ENDBRANCH   1   3
BRANCH   1  20
ATOM     20  C   UNL     1      49.851 158.721  30.529  0.00  0.00    +0.154 C 
BRANCH  20  21
ATOM     21  N   UNL     1      50.120 159.866  31.360  0.00  0.00    -0.232 NA
ATOM     22  H   UNL     1      50.960 160.321  31.003  0.00  0.00    +0.142 HD
BRANCH  21  23
ATOM     23  N   UNL     1      49.124 160.812  31.423  0.00  0.00    -0.180 NA
BRANCH  23  24
ATOM     24  C   UNL     1      48.705 161.273  32.698  0.00  0.00    +0.300 C 
ATOM     25  O   UNL     1      47.807 162.136  32.799  0.00  0.00    -0.182 OA
ATOM     26  N   UNL     1      49.281 160.785  33.911  0.00  0.00    -0.201 NA
ATOM     27  N   UNL     1      48.906 161.211  35.186  0.00  0.00    -0.191 NA
ATOM     28  C   UNL     1      47.943 162.237  35.390  0.00  0.00    +0.344 C 
ATOM     29  O   UNL     1      47.448 162.740  34.351  0.00  0.00    -0.170 OA
ATOM     30  H   UNL     1      50.280 160.979  33.839  0.00  0.00    +0.145 HD
ATOM     31  H   UNL     1      49.761 161.528  35.643  0.00  0.00    +0.146 HD
BRANCH  28  32
ATOM     32  O   UNL     1      47.562 162.670  36.665  0.00  0.00    -0.345 OA
ATOM     33  H   UNL     1      48.049 162.167  37.336  0.00  0.00    +0.214 HD
ENDBRANCH  28  32
ENDBRANCH  23  24
BRANCH  23  34
ATOM     34  C   UNL     1      48.497 161.365  30.254  0.00  0.00    +0.092 C 
BRANCH  34  35
ATOM     35  C   UNL     1      47.151 160.779  29.985  0.00  0.00    +0.019 C 
ATOM     36  C   UNL     1      46.039 161.797  29.941  0.00  0.00    +0.002 C 
ENDBRANCH  34  35
ENDBRANCH  23  34
ENDBRANCH  21  23
ENDBRANCH  20  21
ENDBRANCH   1  20
TORSDOF 12
