REMARK  Name = =
REMARK  4 active torsions:
REMARK  status: ('A' for Active; 'I' for Inactive)
REMARK    1  A    between atoms: N_1  and  C_5
REMARK    2  A    between atoms: C_3  and  C_14
REMARK    3  A    between atoms: C_14  and  O_16
REMARK    4  A    between atoms: S_18  and  S_19
REMARK                            x       y       z     vdW  Elec       q    Type
REMARK                         _______ _______ _______ _____ _____    ______ ____
ROOT
ATOM      1  N   UNL     1     -14.073 -42.515  27.730  0.00  0.00    -0.206 N 
ATOM      2  O   UNL     1     -13.601 -43.128  26.184  0.00  0.00    -0.189 OA
ATOM      3  C   UNL     1     -15.128 -42.282  27.294  0.00  0.00    +0.267 C 
ATOM      4  S   UNL     1     -15.493 -41.777  25.572  0.00  0.00    -0.018 S 
ATOM      5  S   UNL     1     -14.148 -42.708  24.314  0.00  0.00    +0.066 S 
ENDROOT
BRANCH   1   7
ATOM      6  C   UNL     1     -12.595 -43.716  29.200  0.00  0.00    +0.018 C 
ATOM      7  C   UNL     1     -12.749 -42.790  28.172  0.00  0.00    +0.085 C 
ATOM      8  C   UNL     1     -11.661 -42.162  27.610  0.00  0.00    +0.019 C 
ATOM      9  C   UNL     1     -10.379 -42.451  28.069  0.00  0.00    +0.002 C 
ATOM     10  C   UNL     1     -10.230 -43.363  29.089  0.00  0.00    +0.000 C 
ATOM     11  C   UNL     1     -11.326 -43.995  29.654  0.00  0.00    +0.001 C 
ATOM     12  C   UNL     1     -11.170 -44.895  30.706  0.00  0.00    +0.000 C 
ATOM     13  C   UNL     1     -12.238 -45.510  31.316  0.00  0.00    +0.000 C 
ATOM     14  C   UNL     1     -13.520 -45.235  30.862  0.00  0.00    +0.000 C 
ATOM     15  C   UNL     1     -13.665 -44.342  29.810  0.00  0.00    +0.001 C 
ENDBRANCH   1   7
BRANCH   3  16
ATOM     16  C   UNL     1     -16.381 -42.221  28.106  0.00  0.00    +0.348 C 
ATOM     17  O   UNL     1     -17.412 -41.808  27.525  0.00  0.00    -0.247 OA
BRANCH  16  18
ATOM     18  O   UNL     1     -16.432 -42.586  29.434  0.00  0.00    -0.478 OA
ATOM     19  H   UNL     1     -15.659 -42.894  29.865  0.00  0.00    +0.295 HD
ENDBRANCH  16  18
ENDBRANCH   3  16
BRANCH   5  20
ATOM     20  S   UNL     1     -14.616 -44.516  23.497  0.00  0.00    -0.081 S 
ATOM     21  H   UNL     1     -15.007 -44.343  22.206  0.00  0.00    +0.116 HD
ENDBRANCH   5  20
TORSDOF 4
