MODEL 1
REMARK VINA RESULT:    -7.770      0.000      0.000
REMARK INTER + INTRA:          -7.692
REMARK INTER:                  -8.451
REMARK INTRA:                   0.760
REMARK UNBOUND:                 0.760
REMARK  Name = =
REMARK  2 active torsions:
REMARK  status: ('A' for Active; 'I' for Inactive)
REMARK    1  A    between atoms: N_1  and  N_15
REMARK    2  A    between atoms: C_13  and  O_27
REMARK                            x       y       z     vdW  Elec       q    Type
REMARK                         _______ _______ _______ _____ _____    ______ ____
ROOT
ATOM      1  N   UNL     1      59.208 161.467  38.781  0.00  0.00    -0.096 N 
ATOM      2  C   UNL     1      59.592 162.830  38.707  0.00  0.00    +0.336 C 
ATOM      3  O   UNL     1      59.954 163.448  39.761  0.00  0.00    -0.250 OA
ATOM      4  N   UNL     1      59.617 163.604  37.529  0.00  0.00    -0.222 N 
ATOM      5  C   UNL     1      60.021 164.993  37.532  0.00  0.00    +0.311 C 
ATOM      6  O   UNL     1      60.352 165.479  38.628  0.00  0.00    -0.252 OA
ATOM      7  N   UNL     1      60.032 165.738  36.321  0.00  0.00    -0.261 N 
ATOM      8  C   UNL     1      60.428 167.127  36.273  0.00  0.00    +0.112 C 
ATOM      9  C   UNL     1      61.232 167.382  35.033  0.00  0.00    +0.090 C 
ATOM     10  N   UNL     1      60.560 166.963  33.841  0.00  0.00    -0.295 NA
ATOM     11  C   UNL     1      59.372 166.202  34.078  0.00  0.00    +0.090 C 
ATOM     12  C   UNL     1      59.634 165.103  35.085  0.00  0.00    +0.112 C 
ATOM     13  C   UNL     1      58.794 160.686  37.696  0.00  0.00    +0.426 C 
ATOM     14  O   UNL     1      58.466 159.457  37.870  0.00  0.00    -0.224 OA
ATOM     15  H   UNL     1      59.350 163.187  36.678  0.00  0.00    +0.161 HD
ATOM     16  H   UNL     1      61.203 166.390  33.295  0.00  0.00    +0.123 HD
ENDROOT
BRANCH   1  17
ATOM     17  N   UNL     1      59.231 160.806  40.039  0.00  0.00    -0.173 N 
ATOM     18  C   UNL     1      60.496 160.306  40.451  0.00  0.00    +0.070 C 
ATOM     19  C   UNL     1      60.834 159.573  41.594  0.00  0.00    -0.007 C 
ATOM     20  C   UNL     1      62.130 159.169  41.828  0.00  0.00    -0.003 C 
ATOM     21  C   UNL     1      63.106 159.515  40.886  0.00  0.00    -0.000 C 
ATOM     22  C   UNL     1      62.748 160.237  39.768  0.00  0.00    +0.001 C 
ATOM     23  C   UNL     1      61.451 160.649  39.519  0.00  0.00    +0.016 C 
ATOM     24  C   UNL     1      59.929 159.129  42.681  0.00  0.00    +0.028 C 
ATOM     25  C   UNL     1      58.591 158.684  42.118  0.00  0.00    +0.014 C 
ATOM     26  C   UNL     1      57.638 159.815  41.915  0.00  0.00    +0.088 C 
ATOM     27  C   UNL     1      58.016 160.700  40.766  0.00  0.00    +0.246 C 
ATOM     28  O   UNL     1      57.112 161.475  40.382  0.00  0.00    -0.273 OA
ENDBRANCH   1  17
BRANCH  13  29
ATOM     29  O   UNL     1      58.697 161.118  36.392  0.00  0.00    -0.465 OA
ATOM     30  H   UNL     1      59.028 160.585  35.696  0.00  0.00    +0.297 HD
ENDBRANCH  13  29
TORSDOF 2
ENDMDL
