REMARK  Name = =
REMARK  7 active torsions:
REMARK  status: ('A' for Active; 'I' for Inactive)
REMARK    1  A    between atoms: C_1  and  O_16
REMARK    2  A    between atoms: O_16  and  O_17
REMARK    3  A    between atoms: O_17  and  C_18
REMARK    4  A    between atoms: C_18  and  C_23
REMARK    5  A    between atoms: C_19  and  C_20
REMARK    6  A    between atoms: C_23  and  O_25
REMARK    7  A    between atoms: O_25  and  N_26
REMARK                            x       y       z     vdW  Elec       q    Type
REMARK                         _______ _______ _______ _____ _____    ______ ____
ROOT
ATOM      1  O   UNL     1      50.230 158.556  30.790  0.00  0.00    -0.326 OA
ENDROOT
BRANCH   1   2
ATOM      2  C   UNL     1      50.876 157.631  29.899  0.00  0.00    +0.260 C 
ATOM      3  C   UNL     1      52.059 157.950  29.473  0.00  0.00    +0.059 C 
BRANCH   3   4
ATOM      4  C   UNL     1      53.011 157.325  28.602  0.00  0.00    +0.061 C 
ATOM      5  C   UNL     1      54.096 158.041  28.244  0.00  0.00    +0.012 C 
ATOM      6 CL   UNL     1      52.938 155.716  27.934  0.00  0.00    -0.082 Cl
ENDBRANCH   3   4
BRANCH   2   7
ATOM      7  C   UNL     1      50.163 156.436  29.556  0.00  0.00    +0.397 C 
ATOM      8  O   UNL     1      50.602 155.356  29.164  0.00  0.00    -0.240 OA
BRANCH   7   9
ATOM      9  O   UNL     1      48.743 156.464  29.672  0.00  0.00    -0.366 OA
BRANCH   9  10
ATOM     10  N   UNL     1      47.960 155.477  29.111  0.00  0.00    -0.165 NA
ATOM     11  H   UNL     1      46.977 155.673  29.302  0.00  0.00    +0.163 HD
ATOM     12  H   UNL     1      48.211 154.574  29.514  0.00  0.00    +0.163 HD
ENDBRANCH   9  10
ENDBRANCH   7   9
ENDBRANCH   2   7
ENDBRANCH   1   2
BRANCH   1  13
ATOM     13  O   UNL     1      50.944 159.248  31.662  0.00  0.00    -0.166 OA
BRANCH  13  14
ATOM     14  C   UNL     1      50.836 160.602  31.364  0.00  0.00    +0.209 C 
ATOM     15  C   UNL     1      50.257 160.929  30.083  0.00  0.00    +0.012 C 
ATOM     16  C   UNL     1      51.105 161.675  29.399  0.00  0.00    -0.002 C 
ATOM     17  C   UNL     1      52.311 161.897  30.176  0.00  0.00    -0.001 C 
ATOM     18  C   UNL     1      53.501 162.596  29.942  0.00  0.00    -0.000 C 
ATOM     19  C   UNL     1      54.505 162.637  30.885  0.00  0.00    -0.000 C 
ATOM     20  C   UNL     1      54.371 161.988  32.098  0.00  0.00    -0.000 C 
ATOM     21  C   UNL     1      53.194 161.302  32.319  0.00  0.00    -0.001 C 
ATOM     22  C   UNL     1      52.172 161.255  31.370  0.00  0.00    +0.013 C 
ENDBRANCH  13  14
ENDBRANCH   1  13
TORSDOF 7
REMARK  Name = =
REMARK  7 active torsions:
REMARK  status: ('A' for Active; 'I' for Inactive)
REMARK    1  A    between atoms: C_1  and  O_16
REMARK    2  A    between atoms: O_16  and  O_17
REMARK    3  A    between atoms: O_17  and  C_18
REMARK    4  A    between atoms: C_18  and  C_23
REMARK    5  A    between atoms: C_19  and  C_20
REMARK    6  A    between atoms: C_23  and  O_25
REMARK    7  A    between atoms: O_25  and  N_26
REMARK                            x       y       z     vdW  Elec       q    Type
REMARK                         _______ _______ _______ _____ _____    ______ ____
ROOT
ATOM      1  P   UNL     1      49.809 161.359  32.639  0.00  0.00    +0.000 P 
ENDROOT
TORSDOF 0
REMARK  Name = =
REMARK  7 active torsions:
REMARK  status: ('A' for Active; 'I' for Inactive)
REMARK    1  A    between atoms: C_1  and  O_16
REMARK    2  A    between atoms: O_16  and  O_17
REMARK    3  A    between atoms: O_17  and  C_18
REMARK    4  A    between atoms: C_18  and  C_23
REMARK    5  A    between atoms: C_19  and  C_20
REMARK    6  A    between atoms: C_23  and  O_25
REMARK    7  A    between atoms: O_25  and  N_26
REMARK                            x       y       z     vdW  Elec       q    Type
REMARK                         _______ _______ _______ _____ _____    ______ ____
ROOT
ATOM      1  O   UNL     1      50.036 160.851  34.025  0.00  0.00    -0.038 OA
ATOM      2  O   UNL     1      50.213 162.346  33.959  0.00  0.00    -0.218 OA
ATOM      3  H   UNL     1      51.126 162.574  34.195  0.00  0.00    +0.256 HD
ENDROOT
TORSDOF 0
REMARK  Name = =
REMARK  7 active torsions:
REMARK  status: ('A' for Active; 'I' for Inactive)
REMARK    1  A    between atoms: C_1  and  O_16
REMARK    2  A    between atoms: O_16  and  O_17
REMARK    3  A    between atoms: O_17  and  C_18
REMARK    4  A    between atoms: C_18  and  C_23
REMARK    5  A    between atoms: C_19  and  C_20
REMARK    6  A    between atoms: C_23  and  O_25
REMARK    7  A    between atoms: O_25  and  N_26
REMARK                            x       y       z     vdW  Elec       q    Type
REMARK                         _______ _______ _______ _____ _____    ______ ____
ROOT
ATOM      1  O   HOH     1      48.427 162.284  32.523  0.00  0.00    -0.253 OA
ATOM      2  H   HOH     0      49.397 162.284  32.523  0.00  0.00    +0.253 HD
ENDROOT
TORSDOF 0
REMARK  Name = =
REMARK  7 active torsions:
REMARK  status: ('A' for Active; 'I' for Inactive)
REMARK    1  A    between atoms: C_1  and  O_16
REMARK    2  A    between atoms: O_16  and  O_17
REMARK    3  A    between atoms: O_17  and  C_18
REMARK    4  A    between atoms: C_18  and  C_23
REMARK    5  A    between atoms: C_19  and  C_20
REMARK    6  A    between atoms: C_23  and  O_25
REMARK    7  A    between atoms: O_25  and  N_26
REMARK                            x       y       z     vdW  Elec       q    Type
REMARK                         _______ _______ _______ _____ _____    ______ ____
ROOT
ATOM      1  O   UNL     1      48.515 160.408  32.981  0.00  0.00    -0.331 OA
ATOM      2  I   UNL     1      47.323 159.958  31.442  0.00  0.00    +0.107 I 
ATOM      3  H   UNL     1      48.190 159.968  33.782  0.00  0.00    +0.224 HD
ENDROOT
TORSDOF 0
