REMARK  Name = =
REMARK  0 active torsions:
REMARK  status: ('A' for Active; 'I' for Inactive)
REMARK                            x       y       z     vdW  Elec       q    Type
REMARK                         _______ _______ _______ _____ _____    ______ ____
ROOT
ATOM      1  C   UNL     1     -13.325 -44.446  27.483  0.00  0.00    +0.018 C 
ATOM      2  C   UNL     1     -13.940 -43.919  28.599  0.00  0.00    +0.081 C 
ATOM      3  C   UNL     1     -13.493 -44.253  29.861  0.00  0.00    +0.019 C 
ATOM      4  C   UNL     1     -12.423 -45.118  30.059  0.00  0.00    +0.002 C 
ATOM      5  C   UNL     1     -11.814 -45.641  28.941  0.00  0.00    +0.000 C 
ATOM      6  C   UNL     1     -12.247 -45.319  27.665  0.00  0.00    +0.001 C 
ATOM      7  N   UNL     1     -14.975 -43.082  28.398  0.00  0.00    -0.244 NA
ATOM      8  C   UNL     1     -15.430 -42.741  27.182  0.00  0.00    +0.099 C 
ATOM      9  C   UNL     1     -14.819 -43.264  26.056  0.00  0.00    +0.021 C 
ATOM     10  C   UNL     1     -13.760 -44.122  26.218  0.00  0.00    +0.003 C 
ENDROOT
TORSDOF 0
