REMARK  Name = =
REMARK  2 active torsions:
REMARK  status: ('A' for Active; 'I' for Inactive)
REMARK    1  A    between atoms: N_11  and  O_12
REMARK    2  A    between atoms: N_11  and  C_13
REMARK                            x       y       z     vdW  Elec       q    Type
REMARK                         _______ _______ _______ _____ _____    ______ ____
ROOT
ATOM      1  C   UNL     1     -13.263 -44.329  27.563  0.00  0.00    +0.018 C 
ATOM      2  C   UNL     1     -13.950 -44.148  28.745  0.00  0.00    +0.083 C 
ATOM      3  C   UNL     1     -13.490 -44.737  29.935  0.00  0.00    +0.019 C 
ATOM      4  C   UNL     1     -12.341 -45.500  29.904  0.00  0.00    +0.002 C 
ATOM      5  C   UNL     1     -11.678 -45.662  28.710  0.00  0.00    +0.000 C 
ATOM      6  C   UNL     1     -12.109 -45.095  27.531  0.00  0.00    +0.001 C 
ATOM      7  N   UNL     1     -15.070 -43.408  28.805  0.00  0.00    -0.227 NA
ATOM      8  C   UNL     1     -15.572 -42.809  27.706  0.00  0.00    +0.163 C 
ATOM      9  C   UNL     1     -14.879 -42.990  26.500  0.00  0.00    +0.039 C 
ATOM     10  C   UNL     1     -13.732 -43.738  26.402  0.00  0.00    +0.005 C 
ATOM     11  N   UNL     1     -16.760 -42.033  27.726  0.00  0.00    -0.225 N 
ENDROOT
BRANCH  11  12
ATOM     12  O   UNL     1     -16.813 -40.874  28.379  0.00  0.00    -0.285 OA
ATOM     13  H   UNL     1     -15.960 -40.706  28.808  0.00  0.00    +0.244 HD
ENDBRANCH  11  12
BRANCH  11  14
ATOM     14  C   UNL     1     -17.895 -42.520  27.002  0.00  0.00    +0.134 C 
ATOM     15  C   UNL     1     -19.125 -41.683  27.071  0.00  0.00    +0.029 C 
ENDBRANCH  11  14
TORSDOF 2
