REMARK  Name = =
REMARK  4 active torsions:
REMARK  status: ('A' for Active; 'I' for Inactive)
REMARK    1  A    between atoms: N_11  and  O_12
REMARK    2  A    between atoms: N_11  and  C_13
REMARK    3  A    between atoms: C_13  and  N_15
REMARK    4  A    between atoms: N_15  and  N_19
REMARK                            x       y       z     vdW  Elec       q    Type
REMARK                         _______ _______ _______ _____ _____    ______ ____
ROOT
ATOM      1  C   UNL     1     -13.455 -44.129  27.494  0.00  0.00    +0.018 C 
ATOM      2  C   UNL     1     -14.029 -44.100  28.742  0.00  0.00    +0.083 C 
ATOM      3  C   UNL     1     -13.431 -44.721  29.834  0.00  0.00    +0.019 C 
ATOM      4  C   UNL     1     -12.241 -45.365  29.610  0.00  0.00    +0.002 C 
ATOM      5  C   UNL     1     -11.636 -45.410  28.351  0.00  0.00    +0.000 C 
ATOM      6  C   UNL     1     -12.248 -44.786  27.285  0.00  0.00    +0.001 C 
ATOM      7  N   UNL     1     -15.178 -43.468  28.919  0.00  0.00    -0.226 NA
ATOM      8  C   UNL     1     -15.874 -42.819  27.949  0.00  0.00    +0.165 C 
ATOM      9  C   UNL     1     -15.285 -42.856  26.702  0.00  0.00    +0.039 C 
ATOM     10  C   UNL     1     -14.084 -43.500  26.448  0.00  0.00    +0.005 C 
ATOM     11  N   UNL     1     -17.095 -42.167  28.237  0.00  0.00    -0.207 N 
ENDROOT
BRANCH  11  12
ATOM     12  O   UNL     1     -17.532 -42.192  29.516  0.00  0.00    -0.283 OA
ATOM     13  H   UNL     1     -16.897 -42.677  30.065  0.00  0.00    +0.245 HD
ENDBRANCH  11  12
BRANCH  11  14
ATOM     14  C   UNL     1     -17.912 -41.488  27.278  0.00  0.00    +0.207 C 
ATOM     15  C   UNL     1     -18.924 -40.595  28.024  0.00  0.00    +0.051 C 
BRANCH  14  16
ATOM     16  N   UNL     1     -18.762 -42.361  26.512  0.00  0.00    -0.143 N 
ATOM     17  C   UNL     1     -18.617 -42.512  25.116  0.00  0.00    +0.319 C 
ATOM     18  O   UNL     1     -17.724 -41.879  24.467  0.00  0.00    -0.251 OA
ATOM     19  N   UNL     1     -19.447 -43.370  24.345  0.00  0.00    -0.312 N 
ATOM     20  H   UNL     1     -20.159 -43.890  24.783  0.00  0.00    +0.147 HD
ATOM     21  H   UNL     1     -19.310 -43.444  23.373  0.00  0.00    +0.147 HD
BRANCH  16  22
ATOM     22  N   UNL     1     -19.751 -43.074  27.176  0.00  0.00    +0.056 NA
ATOM     23  O   UNL     1     -20.868 -43.164  26.628  0.00  0.00    -0.078 OA
ENDBRANCH  16  22
ENDBRANCH  14  16
ENDBRANCH  11  14
TORSDOF 4
