REMARK  Name = =
REMARK  6 active torsions:
REMARK  status: ('A' for Active; 'I' for Inactive)
REMARK    1  A    between atoms: N_1  and  C_12
REMARK    2  A    between atoms: N_1  and  N_26
REMARK    3  A    between atoms: N_4  and  N_5
REMARK    4  A    between atoms: N_7  and  N_8
REMARK    5  A    between atoms: C_12  and  N_24
REMARK    6  A    between atoms: N_24  and  O_25
REMARK                            x       y       z     vdW  Elec       q    Type
REMARK                         _______ _______ _______ _____ _____    ______ ____
ROOT
ATOM      1  N   UNL     1     -18.358 -41.831  24.580  0.00  0.00    -0.107 N 
ATOM      2  C   UNL     1     -19.096 -41.025  23.673  0.00  0.00    +0.343 C 
ATOM      3  O   UNL     1     -18.574 -40.120  22.975  0.00  0.00    -0.249 OA
ATOM      4  N   UNL     1     -20.508 -41.202  23.500  0.00  0.00    -0.217 N 
ATOM      5  H   UNL     1     -20.974 -41.899  24.016  0.00  0.00    +0.174 HD
ENDROOT
BRANCH   4   6
ATOM      6  N   UNL     1     -21.231 -40.407  22.617  0.00  0.00    -0.243 N 
ATOM      7  C   UNL     1     -22.615 -40.610  22.453  0.00  0.00    +0.196 C 
ATOM      8  N   UNL     1     -23.098 -41.753  22.227  0.00  0.00    -0.159 NA
ATOM      9  H   UNL     1     -20.774 -39.701  22.105  0.00  0.00    +0.172 HD
BRANCH   8  10
ATOM     10  N   UNL     1     -22.392 -42.914  22.109  0.00  0.00    -0.189 N 
ATOM     11  C   UNL     1     -23.131 -44.135  22.047  0.00  0.00    +0.317 C 
ATOM     12  O   UNL     1     -24.407 -44.058  22.111  0.00  0.00    -0.251 OA
ATOM     13  N   UNL     1     -22.556 -45.421  21.920  0.00  0.00    -0.312 N 
ATOM     14  H   UNL     1     -21.408 -42.911  22.068  0.00  0.00    +0.179 HD
ATOM     15  H   UNL     1     -21.578 -45.520  21.868  0.00  0.00    +0.147 HD
ATOM     16  H   UNL     1     -23.134 -46.217  21.884  0.00  0.00    +0.147 HD
ENDBRANCH   8  10
ENDBRANCH   4   6
BRANCH   1  17
ATOM     17  C   UNL     1     -16.908 -41.646  24.735  0.00  0.00    +0.213 C 
ATOM     18  C   UNL     1     -16.237 -42.365  23.630  0.00  0.00    +0.052 C 
BRANCH  17  29
ATOM     19  C   UNL     1     -13.264 -44.500  27.133  0.00  0.00    +0.018 C 
ATOM     20  C   UNL     1     -14.100 -43.900  28.072  0.00  0.00    +0.083 C 
ATOM     21  C   UNL     1     -13.813 -44.145  29.405  0.00  0.00    +0.019 C 
ATOM     22  C   UNL     1     -12.763 -44.935  29.828  0.00  0.00    +0.002 C 
ATOM     23  C   UNL     1     -11.965 -45.507  28.865  0.00  0.00    +0.000 C 
ATOM     24  C   UNL     1     -12.200 -45.300  27.523  0.00  0.00    +0.001 C 
ATOM     25  N   UNL     1     -15.130 -43.123  27.673  0.00  0.00    -0.226 NA
ATOM     26  C   UNL     1     -15.433 -42.865  26.402  0.00  0.00    +0.165 C 
ATOM     27  C   UNL     1     -14.624 -43.443  25.435  0.00  0.00    +0.039 C 
ATOM     28  C   UNL     1     -13.550 -44.252  25.813  0.00  0.00    +0.005 C 
ATOM     29  N   UNL     1     -16.550 -42.039  26.068  0.00  0.00    -0.206 N 
BRANCH  29  30
ATOM     30  O   UNL     1     -17.313 -41.568  27.104  0.00  0.00    -0.283 OA
ATOM     31  H   UNL     1     -18.035 -41.024  26.752  0.00  0.00    +0.245 HD
ENDBRANCH  29  30
ENDBRANCH  17  29
ENDBRANCH   1  17
BRANCH   1  32
ATOM     32  N   UNL     1     -19.035 -42.819  25.277  0.00  0.00    +0.055 NA
ATOM     33  O   UNL     1     -19.742 -42.576  26.231  0.00  0.00    -0.126 OA
ENDBRANCH   1  32
TORSDOF 6
