REMARK  Name = =
REMARK  0 active torsions:
REMARK  status: ('A' for Active; 'I' for Inactive)
REMARK                            x       y       z     vdW  Elec       q    Type
REMARK                         _______ _______ _______ _____ _____    ______ ____
ROOT
ATOM      1  N   UNL     1      51.908 155.658  27.212  0.00  0.00    -0.329 N 
ATOM      2  C   UNL     1      52.260 154.275  27.068  0.00  0.00    +0.076 C 
ATOM      3  C   UNL     1      51.793 153.390  28.164  0.00  0.00    +0.096 C 
ATOM      4  N   UNL     1      50.903 153.972  29.103  0.00  0.00    -0.233 NA
ATOM      5  C   UNL     1      51.179 155.295  29.515  0.00  0.00    +0.133 C 
ATOM      6  C   UNL     1      52.115 156.038  28.614  0.00  0.00    +0.111 C 
ATOM      7  H   UNL     1      51.584 156.249  26.495  0.00  0.00    +0.147 HD
ENDROOT
TORSDOF 0
