REMARK  Name = =
REMARK  1 active torsions:
REMARK  status: ('A' for Active; 'I' for Inactive)
REMARK    1  A    between atoms: N_1  and  C_12
REMARK                            x       y       z     vdW  Elec       q    Type
REMARK                         _______ _______ _______ _____ _____    ______ ____
ROOT
ATOM      1  N   UNL     1      53.563 154.058  26.016  0.00  0.00    -0.254 N 
ATOM      2  C   UNL     1      54.269 154.651  25.026  0.00  0.00    +0.169 C 
ATOM      3  N   UNL     1      54.622 153.716  24.125  0.00  0.00    -0.226 NA
ATOM      4  C   UNL     1      54.140 152.527  24.543  0.00  0.00    +0.096 C 
ATOM      5  C   UNL     1      53.480 152.750  25.725  0.00  0.00    +0.072 C 
ATOM      6  C   UNL     1      52.883 151.708  26.385  0.00  0.00    +0.016 C 
ATOM      7  C   UNL     1      52.930 150.421  25.883  0.00  0.00    +0.001 C 
ATOM      8  C   UNL     1      53.599 150.221  24.693  0.00  0.00    +0.002 C 
ATOM      9  C   UNL     1      54.204 151.251  24.015  0.00  0.00    +0.020 C 
ENDROOT
BRANCH   1  12
ATOM     10  N   UNL     1      52.454 157.036  27.843  0.00  0.00    -0.294 NA
ATOM     11  C   UNL     1      53.194 156.200  27.000  0.00  0.00    +0.107 C 
ATOM     12  C   UNL     1      53.016 154.736  27.159  0.00  0.00    +0.169 C 
ATOM     13  N   UNL     1      51.632 154.440  27.402  0.00  0.00    -0.197 NA
ATOM     14  C   UNL     1      51.312 155.033  28.703  0.00  0.00    +0.108 C 
ATOM     15  C   UNL     1      51.362 156.511  28.547  0.00  0.00    +0.088 C 
ATOM     16  H   UNL     1      53.103 157.409  28.536  0.00  0.00    +0.123 HD
ENDBRANCH   1  12
TORSDOF 1
