REMARK  Name = =
REMARK  6 active torsions:
REMARK  status: ('A' for Active; 'I' for Inactive)
REMARK    1  A    between atoms: N_1  and  C_12
REMARK    2  A    between atoms: C_7  and  O_16
REMARK    3  A    between atoms: O_16  and  P_17
REMARK    4  A    between atoms: P_17  and  C_19
REMARK    5  A    between atoms: P_17  and  O_22
REMARK    6  A    between atoms: C_19  and  O_21
REMARK                            x       y       z     vdW  Elec       q    Type
REMARK                         _______ _______ _______ _____ _____    ______ ____
ROOT
ATOM      1  N   UNL     1      51.208 152.586  27.523  0.00  0.00    -0.254 N 
ATOM      2  C   UNL     1      50.603 151.579  28.170  0.00  0.00    +0.169 C 
ATOM      3  N   UNL     1      51.109 150.447  27.689  0.00  0.00    -0.226 NA
ATOM      4  C   UNL     1      52.027 150.696  26.745  0.00  0.00    +0.097 C 
ATOM      5  C   UNL     1      52.086 152.070  26.643  0.00  0.00    +0.075 C 
ATOM      6  C   UNL     1      52.971 152.644  25.725  0.00  0.00    +0.054 C 
ATOM      7  C   UNL     1      53.786 151.877  24.919  0.00  0.00    +0.149 C 
ATOM      8  C   UNL     1      53.709 150.519  25.039  0.00  0.00    +0.039 C 
ATOM      9  C   UNL     1      52.844 149.926  25.939  0.00  0.00    +0.024 C 
ENDROOT
BRANCH   1  12
ATOM     10  N   UNL     1      51.416 155.910  29.076  0.00  0.00    -0.294 NA
ATOM     11  C   UNL     1      51.636 154.486  28.983  0.00  0.00    +0.107 C 
ATOM     12  C   UNL     1      51.008 154.020  27.683  0.00  0.00    +0.169 C 
ATOM     13  N   UNL     1      51.500 154.724  26.539  0.00  0.00    -0.197 NA
ATOM     14  C   UNL     1      52.414 155.785  26.836  0.00  0.00    +0.108 C 
ATOM     15  C   UNL     1      51.985 156.649  27.991  0.00  0.00    +0.088 C 
ATOM     16  H   UNL     1      51.830 156.244  29.946  0.00  0.00    +0.123 HD
ENDBRANCH   1  12
BRANCH   7  17
ATOM     17  O   UNL     1      54.623 152.548  24.047  0.00  0.00    -0.416 OA
BRANCH  17  18
ATOM     18  P   UNL     1      55.935 153.507  24.501  0.00  0.00    +0.486 P 
ATOM     19  O   UNL     1      55.423 154.924  24.761  0.00  0.00    -0.233 OA
BRANCH  18  20
ATOM     20  C   UNL     1      56.665 152.927  26.011  0.00  0.00    +0.431 C 
ATOM     21  O   UNL     1      55.926 152.817  27.035  0.00  0.00    -0.235 OA
BRANCH  20  22
ATOM     22  O   UNL     1      58.004 152.584  26.138  0.00  0.00    -0.471 OA
ATOM     23  H   UNL     1      58.578 152.654  25.400  0.00  0.00    +0.296 HD
ENDBRANCH  20  22
ENDBRANCH  18  20
BRANCH  18  24
ATOM     24  O   UNL     1      57.126 153.627  23.324  0.00  0.00    -0.307 OA
ATOM     25  H   UNL     1      56.732 153.944  22.496  0.00  0.00    +0.221 HD
ENDBRANCH  18  24
ENDBRANCH  17  18
ENDBRANCH   7  17
TORSDOF 6
