REMARK  Name = =
REMARK  11 active torsions:
REMARK  status: ('A' for Active; 'I' for Inactive)
REMARK    1  A    between atoms: N_1  and  N_23
REMARK    2  A    between atoms: C_3  and  N_7
REMARK    3  A    between atoms: C_13  and  O_16
REMARK    4  A    between atoms: O_16  and  P_17
REMARK    5  A    between atoms: P_17  and  C_19
REMARK    6  A    between atoms: P_17  and  O_22
REMARK    7  A    between atoms: C_19  and  O_21
REMARK    8  A    between atoms: N_23  and  S_24
REMARK    9  A    between atoms: N_23  and  C_31
REMARK   10  A    between atoms: S_24  and  N_27
REMARK   11  A    between atoms: C_28  and  O_30
REMARK                            x       y       z     vdW  Elec       q    Type
REMARK                         _______ _______ _______ _____ _____    ______ ____
ROOT
ATOM      1  N   UNL     1      51.060 155.607  29.336  0.00  0.00    -0.194 NA
ATOM      2  C   UNL     1      51.535 154.762  28.314  0.00  0.00    +0.129 C 
ATOM      3  C   UNL     1      51.290 153.315  28.776  0.00  0.00    +0.170 C 
ATOM      4  N   UNL     1      51.693 153.181  30.129  0.00  0.00    -0.197 NA
ATOM      5  C   UNL     1      50.658 153.814  30.958  0.00  0.00    +0.109 C 
ATOM      6  C   UNL     1      50.127 155.064  30.249  0.00  0.00    +0.109 C 
ENDROOT
BRANCH   3   7
ATOM      7  N   UNL     1      51.784 152.345  27.860  0.00  0.00    -0.254 N 
ATOM      8  C   UNL     1      51.307 151.066  27.863  0.00  0.00    +0.169 C 
ATOM      9  N   UNL     1      51.950 150.379  26.901  0.00  0.00    -0.226 NA
ATOM     10  C   UNL     1      52.821 151.194  26.291  0.00  0.00    +0.097 C 
ATOM     11  C   UNL     1      52.718 152.428  26.891  0.00  0.00    +0.075 C 
ATOM     12  C   UNL     1      53.490 153.482  26.484  0.00  0.00    +0.054 C 
ATOM     13  C   UNL     1      54.408 153.321  25.437  0.00  0.00    +0.149 C 
ATOM     14  C   UNL     1      54.528 152.093  24.821  0.00  0.00    +0.039 C 
ATOM     15  C   UNL     1      53.721 151.039  25.265  0.00  0.00    +0.024 C 
BRANCH  13  16
ATOM     16  O   UNL     1      55.183 154.373  25.026  0.00  0.00    -0.416 OA
BRANCH  16  17
ATOM     17  P   UNL     1      54.648 155.559  23.928  0.00  0.00    +0.486 P 
ATOM     18  O   UNL     1      53.122 155.648  23.967  0.00  0.00    -0.233 OA
BRANCH  17  19
ATOM     19  C   UNL     1      55.292 157.178  24.305  0.00  0.00    +0.431 C 
ATOM     20  O   UNL     1      56.034 157.782  23.506  0.00  0.00    -0.235 OA
BRANCH  19  21
ATOM     21  O   UNL     1      54.959 157.761  25.498  0.00  0.00    -0.471 OA
ATOM     22  H   UNL     1      54.401 157.309  26.101  0.00  0.00    +0.296 HD
ENDBRANCH  19  21
ENDBRANCH  17  19
BRANCH  17  23
ATOM     23  O   UNL     1      55.127 155.186  22.352  0.00  0.00    -0.307 OA
ATOM     24  H   UNL     1      54.811 155.875  21.746  0.00  0.00    +0.221 HD
ENDBRANCH  17  23
ENDBRANCH  16  17
ENDBRANCH  13  16
ENDBRANCH   3   7
BRANCH   1  25
ATOM     25  N   UNL     1      51.216 156.925  29.261  0.00  0.00    -0.085 NA
BRANCH  25  26
ATOM     26  S   UNL     1      49.876 157.905  29.641  0.00  0.00    +0.130 S 
ATOM     27  O   UNL     1      48.628 157.076  29.763  0.00  0.00    -0.137 OA
ATOM     28  O   UNL     1      49.691 159.039  28.681  0.00  0.00    -0.137 OA
BRANCH  26  29
ATOM     29  N   UNL     1      50.179 158.629  31.195  0.00  0.00    -0.140 N 
ATOM     30  C   UNL     1      49.245 159.523  31.785  0.00  0.00    +0.418 C 
ATOM     31  O   UNL     1      48.170 159.788  31.154  0.00  0.00    -0.225 OA
ATOM     32  H   UNL     1      51.012 158.415  31.674  0.00  0.00    +0.181 HD
BRANCH  30  33
ATOM     33  O   UNL     1      49.491 160.101  33.026  0.00  0.00    -0.465 OA
ATOM     34  H   UNL     1      50.283 159.903  33.486  0.00  0.00    +0.297 HD
ENDBRANCH  30  33
ENDBRANCH  26  29
ENDBRANCH  25  26
BRANCH  25  35
ATOM     35  C   UNL     1      52.002 157.455  28.200  0.00  0.00    +0.097 C 
ATOM     36  C   UNL     1      53.357 156.951  27.883  0.00  0.00    +0.021 C 
ATOM     37  C   UNL     1      53.242 158.224  28.654  0.00  0.00    +0.021 C 
ENDBRANCH  25  35
ENDBRANCH   1  25
TORSDOF 11
