REMARK  Name = =
REMARK  9 active torsions:
REMARK  status: ('A' for Active; 'I' for Inactive)
REMARK    1  A    between atoms: N_1  and  S_23
REMARK    2  A    between atoms: C_2  and  C_7
REMARK    3  A    between atoms: C_4  and  C_17
REMARK    4  A    between atoms: C_9  and  O_16
REMARK    5  A    between atoms: C_10  and  C_13
REMARK    6  A    between atoms: C_13  and  O_15
REMARK    7  A    between atoms: S_23  and  S_24
REMARK    8  A    between atoms: S_23  and  S_25
REMARK    9  A    between atoms: S_25  and  N_26
REMARK                            x       y       z     vdW  Elec       q    Type
REMARK                         _______ _______ _______ _____ _____    ______ ____
ROOT
ATOM      1  N   UNL     1     -22.248 -43.607  25.297  0.00  0.00    -0.223 NA
ATOM      2  C   UNL     1     -23.526 -44.170  25.551  0.00  0.00    +0.095 C 
ATOM      3  C   UNL     1     -23.327 -45.569  26.154  0.00  0.00    +0.047 C 
ATOM      4  C   UNL     1     -22.785 -46.393  25.039  0.00  0.00    -0.023 C 
ATOM      5  C   UNL     1     -21.670 -45.855  24.507  0.00  0.00    -0.012 C 
ATOM      6  C   UNL     1     -21.222 -44.583  25.127  0.00  0.00    +0.109 C 
ENDROOT
BRANCH   2   7
ATOM      7  C   UNL     1     -24.373 -43.421  26.465  0.00  0.00    -0.004 C 
ATOM      8  C   UNL     1     -24.693 -43.903  27.712  0.00  0.00    +0.034 C 
ATOM      9  C   UNL     1     -25.508 -43.173  28.581  0.00  0.00    +0.140 C 
ATOM     10  C   UNL     1     -26.013 -41.944  28.202  0.00  0.00    +0.109 C 
ATOM     11  C   UNL     1     -25.691 -41.468  26.958  0.00  0.00    +0.009 C 
ATOM     12  C   UNL     1     -24.887 -42.198  26.115  0.00  0.00    -0.003 C 
BRANCH  10  13
ATOM     13  C   UNL     1     -26.871 -41.183  29.123  0.00  0.00    +0.341 C 
ATOM     14  O   UNL     1     -26.408 -40.882  30.241  0.00  0.00    -0.245 OA
BRANCH  13  15
ATOM     15  O   UNL     1     -28.133 -40.833  28.725  0.00  0.00    -0.477 OA
ATOM     16  H   UNL     1     -28.442 -41.080  27.875  0.00  0.00    +0.295 HD
ENDBRANCH  13  15
ENDBRANCH  10  13
BRANCH   9  17
ATOM     17  O   UNL     1     -25.840 -43.649  29.842  0.00  0.00    -0.505 OA
ATOM     18  H   UNL     1     -25.514 -44.479  30.130  0.00  0.00    +0.292 HD
ENDBRANCH   9  17
ENDBRANCH   2   7
BRANCH   4  19
ATOM     19  C   UNL     1     -23.358 -47.623  24.561  0.00  0.00    -0.004 C 
ATOM     20  C   UNL     1     -24.725 -47.775  24.503  0.00  0.00    -0.000 C 
ATOM     21  C   UNL     1     -25.339 -48.946  24.046  0.00  0.00    -0.000 C 
ATOM     22  C   UNL     1     -24.572 -50.005  23.632  0.00  0.00    -0.000 C 
ATOM     23  C   UNL     1     -23.207 -49.871  23.681  0.00  0.00    -0.000 C 
ATOM     24  C   UNL     1     -22.609 -48.696  24.141  0.00  0.00    -0.000 C 
ENDBRANCH   4  19
BRANCH   1  25
ATOM     25  S   UNL     1     -21.897 -42.151  25.246  0.00  0.00    -0.080 S 
ATOM     26  H   UNL     1     -23.141 -41.616  25.374  0.00  0.00    +0.120 HD
BRANCH  25  27
ATOM     27  S   UNL     1     -20.769 -41.369  26.360  0.00  0.00    -0.108 S 
ATOM     28  H   UNL     1     -19.534 -41.919  26.215  0.00  0.00    +0.114 HD
ENDBRANCH  25  27
BRANCH  25  29
ATOM     29  S   UNL     1     -20.791 -42.005  23.896  0.00  0.00    +0.039 S 
BRANCH  29  30
ATOM     30  N   UNL     1     -21.291 -41.431  22.425  0.00  0.00    -0.112 N 
ATOM     31  N   UNL     1     -20.653 -40.578  21.606  0.00  0.00    -0.041 NA
ATOM     32  N   UNL     1     -21.362 -40.358  20.528  0.00  0.00    -0.024 NA
ATOM     33  N   UNL     1     -22.476 -41.042  20.585  0.00  0.00    -0.107 NA
ATOM     34  C   UNL     1     -22.445 -41.709  21.750  0.00  0.00    +0.222 C 
ENDBRANCH  29  30
ENDBRANCH  25  29
ENDBRANCH   1  25
TORSDOF 9
