REMARK  Name = =
REMARK  1 active torsions:
REMARK  status: ('A' for Active; 'I' for Inactive)
REMARK    1  A    between atoms: C_4  and  O_11
REMARK                            x       y       z     vdW  Elec       q    Type
REMARK                         _______ _______ _______ _____ _____    ______ ____
ROOT
ATOM      1  C   UNL     1     -11.724 -42.993  28.075  0.00  0.00    +0.135 C 
ATOM      2  C   UNL     1     -12.459 -43.760  28.945  0.00  0.00    +0.015 C 
ATOM      3  C   UNL     1     -11.888 -44.330  30.059  0.00  0.00    +0.035 C 
ATOM      4  C   UNL     1     -10.525 -44.143  30.339  0.00  0.00    +0.134 C 
ATOM      5  C   UNL     1      -9.777 -43.387  29.488  0.00  0.00    +0.040 C 
ATOM      6  C   UNL     1     -10.372 -42.830  28.384  0.00  0.00    +0.040 C 
ATOM      7  C   UNL     1     -13.895 -43.973  28.677  0.00  0.00    +0.033 C 
ATOM      8  C   UNL     1     -14.280 -43.762  27.249  0.00  0.00    +0.052 C 
ATOM      9  C   UNL     1     -13.668 -42.510  26.661  0.00  0.00    +0.206 C 
ATOM     10  O   UNL     1     -12.290 -42.408  26.940  0.00  0.00    -0.476 OA
ENDROOT
BRANCH   4  11
ATOM     11  O   UNL     1      -9.935 -44.711  31.458  0.00  0.00    -0.506 OA
ATOM     12  H   UNL     1     -10.448 -45.231  32.045  0.00  0.00    +0.292 HD
ENDBRANCH   4  11
TORSDOF 1
