REMARK  Name = =
REMARK  0 active torsions:
REMARK  status: ('A' for Active; 'I' for Inactive)
REMARK                            x       y       z     vdW  Elec       q    Type
REMARK                         _______ _______ _______ _____ _____    ______ ____
ROOT
ATOM      1  C   UNL     1     -13.605 -44.239  27.479  0.00  0.00    +0.301 C 
ATOM      2  O   UNL     1     -12.757 -45.135  27.192  0.00  0.00    -0.253 OA
ATOM      3  N   UNL     1     -13.906 -43.940  28.836  0.00  0.00    -0.313 N 
ATOM      4  N   UNL     1     -14.284 -43.500  26.477  0.00  0.00    -0.264 N 
ATOM      5  C   UNL     1     -15.174 -42.565  27.126  0.00  0.00    +0.095 C 
ATOM      6  C   UNL     1     -16.494 -42.421  26.400  0.00  0.00    +0.022 C 
ATOM      7  C   UNL     1     -16.194 -42.538  24.916  0.00  0.00    +0.002 C 
ATOM      8  C   UNL     1     -15.129 -41.513  24.602  0.00  0.00    +0.002 C 
ATOM      9  C   UNL     1     -13.816 -42.210  24.433  0.00  0.00    +0.022 C 
ATOM     10  C   UNL     1     -13.284 -42.848  25.665  0.00  0.00    +0.095 C 
ATOM     11  H   UNL     1     -13.455 -44.432  29.560  0.00  0.00    +0.146 HD
ATOM     12  H   UNL     1     -14.565 -43.241  29.052  0.00  0.00    +0.146 HD
ENDROOT
TORSDOF 0
