REMARK  Name = =
REMARK  6 active torsions:
REMARK  status: ('A' for Active; 'I' for Inactive)
REMARK    1  A    between atoms: O_2  and  O_19
REMARK    2  A    between atoms: P_15  and  O_17
REMARK    3  A    between atoms: P_15  and  O_18
REMARK    4  A    between atoms: O_19  and  P_20
REMARK    5  A    between atoms: P_20  and  O_22
REMARK    6  A    between atoms: P_20  and  O_23
REMARK                            x       y       z     vdW  Elec       q    Type
REMARK                         _______ _______ _______ _____ _____    ______ ____
ROOT
ATOM      1  P   UNL     1     -11.507 -43.273  29.437  0.00  0.00    -0.067 P 
ATOM      2  H   UNL     1     -10.127 -43.273  29.437  0.00  0.00    +0.067 HD
ENDROOT
TORSDOF 0
REMARK  Name = =
REMARK  6 active torsions:
REMARK  status: ('A' for Active; 'I' for Inactive)
REMARK    1  A    between atoms: O_2  and  O_19
REMARK    2  A    between atoms: P_15  and  O_17
REMARK    3  A    between atoms: P_15  and  O_18
REMARK    4  A    between atoms: O_19  and  P_20
REMARK    5  A    between atoms: P_20  and  O_22
REMARK    6  A    between atoms: P_20  and  O_23
REMARK                            x       y       z     vdW  Elec       q    Type
REMARK                         _______ _______ _______ _____ _____    ______ ____
ROOT
ATOM      1  P   UNL     1      -9.049 -42.349  28.939  0.00  0.00    +0.501 P 
ATOM      2  O   UNL     1      -7.891 -42.427  29.923  0.00  0.00    -0.225 OA
ENDROOT
BRANCH   1   3
ATOM      3  O   UNL     1      -8.757 -41.001  27.956  0.00  0.00    -0.301 OA
ATOM      4  H   UNL     1      -8.704 -40.204  28.507  0.00  0.00    +0.222 HD
ENDBRANCH   1   3
BRANCH   1   5
ATOM      5  O   UNL     1      -9.142 -43.733  27.997  0.00  0.00    -0.301 OA
ATOM      6  H   UNL     1      -9.309 -44.501  28.566  0.00  0.00    +0.222 HD
ENDBRANCH   1   5
BRANCH   1   7
ATOM      7  O   UNL     1     -10.471 -42.051  29.796  0.00  0.00    -0.093 OA
BRANCH   7   8
ATOM      8  O   UNL     1     -11.431 -41.801  29.681  0.00  0.00    -0.023 OA
ATOM      9  O   UNL     1     -11.887 -42.082  30.526  0.00  0.00    -0.002 OA
ENDBRANCH   7   8
ENDBRANCH   1   7
TORSDOF 4
REMARK  Name = =
REMARK  6 active torsions:
REMARK  status: ('A' for Active; 'I' for Inactive)
REMARK    1  A    between atoms: O_2  and  O_19
REMARK    2  A    between atoms: P_15  and  O_17
REMARK    3  A    between atoms: P_15  and  O_18
REMARK    4  A    between atoms: O_19  and  P_20
REMARK    5  A    between atoms: P_20  and  O_22
REMARK    6  A    between atoms: P_20  and  O_23
REMARK                            x       y       z     vdW  Elec       q    Type
REMARK                         _______ _______ _______ _____ _____    ______ ____
ROOT
ATOM      1  N   UNL     1     -13.038 -43.713  28.722  0.00  0.00    -0.264 N 
ATOM      2  C   UNL     1     -13.761 -42.507  28.529  0.00  0.00    +0.095 C 
ATOM      3  C   UNL     1     -15.000 -42.560  27.724  0.00  0.00    +0.022 C 
ATOM      4  C   UNL     1     -14.774 -42.459  26.232  0.00  0.00    +0.002 C 
ATOM      5  C   UNL     1     -14.083 -43.659  25.672  0.00  0.00    +0.002 C 
ATOM      6  C   UNL     1     -12.679 -43.665  26.285  0.00  0.00    +0.022 C 
ATOM      7  C   UNL     1     -12.742 -44.462  27.536  0.00  0.00    +0.095 C 
ATOM      8  C   UNL     1     -13.628 -44.582  29.687  0.00  0.00    +0.301 C 
ATOM      9  O   UNL     1     -14.542 -44.292  30.475  0.00  0.00    -0.253 OA
ATOM     10  N   UNL     1     -13.125 -45.902  29.751  0.00  0.00    -0.313 N 
ATOM     11  H   UNL     1     -12.400 -46.182  29.147  0.00  0.00    +0.146 HD
ATOM     12  H   UNL     1     -13.500 -46.541  30.399  0.00  0.00    +0.146 HD
ENDROOT
TORSDOF 0
REMARK  Name = =
REMARK  6 active torsions:
REMARK  status: ('A' for Active; 'I' for Inactive)
REMARK    1  A    between atoms: O_2  and  O_19
REMARK    2  A    between atoms: P_15  and  O_17
REMARK    3  A    between atoms: P_15  and  O_18
REMARK    4  A    between atoms: O_19  and  P_20
REMARK    5  A    between atoms: P_20  and  O_22
REMARK    6  A    between atoms: P_20  and  O_23
REMARK                            x       y       z     vdW  Elec       q    Type
REMARK                         _______ _______ _______ _____ _____    ______ ____
ROOT
ATOM      1  O   HOH     1     -10.752 -44.221  30.592  0.00  0.00    -0.253 OA
ATOM      2  H   HOH     0      -9.782 -44.221  30.592  0.00  0.00    +0.253 HD
ENDROOT
TORSDOF 0
REMARK  Name = =
REMARK  6 active torsions:
REMARK  status: ('A' for Active; 'I' for Inactive)
REMARK    1  A    between atoms: O_2  and  O_19
REMARK    2  A    between atoms: P_15  and  O_17
REMARK    3  A    between atoms: P_15  and  O_18
REMARK    4  A    between atoms: O_19  and  P_20
REMARK    5  A    between atoms: P_20  and  O_22
REMARK    6  A    between atoms: P_20  and  O_23
REMARK                            x       y       z     vdW  Elec       q    Type
REMARK                         _______ _______ _______ _____ _____    ______ ____
ROOT
ATOM      1  P   UNL     1     -12.159 -42.579  32.084  0.00  0.00    +0.359 P 
ATOM      2  O   UNL     1     -11.218 -41.769  32.986  0.00  0.00    -0.145 OA
ENDROOT
BRANCH   1   3
ATOM      3  O   UNL     1     -11.952 -44.220  32.347  0.00  0.00    -0.326 OA
ATOM      4  H   UNL     1     -12.553 -44.718  31.771  0.00  0.00    +0.219 HD
ENDBRANCH   1   3
BRANCH   1   5
ATOM      5  O   UNL     1     -13.737 -42.122  32.535  0.00  0.00    -0.326 OA
ATOM      6  H   UNL     1     -14.381 -42.606  31.994  0.00  0.00    +0.219 HD
ENDBRANCH   1   5
TORSDOF 2
