MODEL 1
REMARK VINA RESULT:    -9.358      0.000      0.000
REMARK INTER + INTRA:         -12.870
REMARK INTER:                 -12.640
REMARK INTRA:                  -0.229
REMARK UNBOUND:                -0.229
REMARK  Name = =
REMARK  6 active torsions:
REMARK  status: ('A' for Active; 'I' for Inactive)
REMARK    1  A    between atoms: C_1  and  O_8
REMARK    2  A    between atoms: C_2  and  C_9
REMARK    3  A    between atoms: C_4  and  O_11
REMARK    4  A    between atoms: C_5  and  O_22
REMARK    5  A    between atoms: O_11  and  C_12
REMARK    6  A    between atoms: O_22  and  O_23
REMARK                            x       y       z     vdW  Elec       q    Type
REMARK                         _______ _______ _______ _____ _____    ______ ____
ROOT
ATOM      1  C   UNL     1      49.720 160.706  31.588  0.00  0.00    +0.145 C 
ATOM      2  C   UNL     1      49.203 159.518  31.079  0.00  0.00    +0.079 C 
ATOM      3  C   UNL     1      49.985 158.687  30.307  0.00  0.00    +0.047 C 
ATOM      4  C   UNL     1      51.287 158.990  30.007  0.00  0.00    +0.183 C 
ATOM      5  C   UNL     1      51.800 160.169  30.511  0.00  0.00    +0.220 C 
ATOM      6  C   UNL     1      51.028 161.010  31.287  0.00  0.00    +0.081 C 
ENDROOT
BRANCH   1   8
ATOM      7  C   UNL     1      49.015 161.444  33.772  0.00  0.00    +0.252 C 
ATOM      8  O   UNL     1      48.920 161.535  32.367  0.00  0.00    -0.471 OA
ENDBRANCH   1   8
BRANCH   2   9
ATOM      9  C   UNL     1      47.821 159.167  31.380  0.00  0.00    +0.237 C 
ATOM     10  O   UNL     1      46.893 159.732  30.750  0.00  0.00    -0.283 OA
ENDBRANCH   2   9
BRANCH   4  11
ATOM     11  O   UNL     1      52.072 158.194  29.252  0.00  0.00    -0.450 OA
BRANCH  11  12
ATOM     12  C   UNL     1      52.008 156.864  28.986  0.00  0.00    +0.145 C 
ATOM     13  C   UNL     1      52.476 156.237  27.856  0.00  0.00    +0.035 C 
ATOM     14  C   UNL     1      52.382 154.875  27.641  0.00  0.00    +0.003 C 
ATOM     15  C   UNL     1      51.781 154.111  28.628  0.00  0.00    +0.000 C 
ATOM     16  C   UNL     1      51.296 154.685  29.782  0.00  0.00    +0.003 C 
ATOM     17  C   UNL     1      51.409 156.054  29.957  0.00  0.00    +0.037 C 
ATOM     18  C   UNL     1      52.873 154.257  26.490  0.00  0.00    +0.000 C 
ATOM     19  C   UNL     1      53.469 155.070  25.563  0.00  0.00    +0.000 C 
ATOM     20  C   UNL     1      53.586 156.436  25.737  0.00  0.00    +0.000 C 
ATOM     21  C   UNL     1      53.087 157.026  26.890  0.00  0.00    +0.003 C 
ENDBRANCH  11  12
ENDBRANCH   4  11
BRANCH   5  22
ATOM     22  O   UNL     1      53.112 160.578  30.270  0.00  0.00    -0.330 OA
BRANCH  22  23
ATOM     23  O   UNL     1      53.352 161.886  30.281  0.00  0.00    -0.170 OA
ATOM     24  C   UNL     1      54.521 162.199  30.990  0.00  0.00    +0.232 C 
ENDBRANCH  22  23
ENDBRANCH   5  22
TORSDOF 6
ENDMDL
