REMARK  Name = =
REMARK  6 active torsions:
REMARK  status: ('A' for Active; 'I' for Inactive)
REMARK    1  A    between atoms: C_1  and  O_8
REMARK    2  A    between atoms: C_2  and  C_9
REMARK    3  A    between atoms: C_4  and  O_11
REMARK    4  A    between atoms: C_5  and  O_22
REMARK    5  A    between atoms: O_11  and  C_12
REMARK    6  A    between atoms: O_22  and  O_23
REMARK                            x       y       z     vdW  Elec       q    Type
REMARK                         _______ _______ _______ _____ _____    ______ ____
ROOT
ATOM      1  C   UNL     1      55.489 154.677  24.320  0.00  0.00    +0.145 C 
ATOM      2  C   UNL     1      54.733 153.798  23.550  0.00  0.00    +0.079 C 
ATOM      3  C   UNL     1      54.449 152.530  24.009  0.00  0.00    +0.047 C 
ATOM      4  C   UNL     1      54.893 152.084  25.225  0.00  0.00    +0.183 C 
ATOM      5  C   UNL     1      55.644 152.955  25.989  0.00  0.00    +0.220 C 
ATOM      6  C   UNL     1      55.935 154.228  25.542  0.00  0.00    +0.081 C 
ENDROOT
BRANCH   1   8
ATOM      7  C   UNL     1      54.954 157.027  24.265  0.00  0.00    +0.252 C 
ATOM      8  O   UNL     1      55.768 155.954  23.845  0.00  0.00    -0.471 OA
ENDBRANCH   1   8
BRANCH   2   9
ATOM      9  C   UNL     1      54.245 154.243  22.251  0.00  0.00    +0.237 C 
ATOM     10  O   UNL     1      53.860 153.389  21.414  0.00  0.00    -0.283 OA
ENDBRANCH   2   9
BRANCH   4  11
ATOM     11  O   UNL     1      54.630 150.847  25.695  0.00  0.00    -0.450 OA
BRANCH  11  12
ATOM     12  C   UNL     1      53.460 150.173  25.839  0.00  0.00    +0.145 C 
ATOM     13  C   UNL     1      53.083 149.042  25.154  0.00  0.00    +0.035 C 
ATOM     14  C   UNL     1      51.875 148.399  25.344  0.00  0.00    +0.003 C 
ATOM     15  C   UNL     1      51.005 148.933  26.282  0.00  0.00    +0.000 C 
ATOM     16  C   UNL     1      51.331 150.062  26.999  0.00  0.00    +0.003 C 
ATOM     17  C   UNL     1      52.552 150.677  26.777  0.00  0.00    +0.037 C 
ATOM     18  C   UNL     1      51.516 147.246  24.645  0.00  0.00    +0.000 C 
ATOM     19  C   UNL     1      52.429 146.764  23.745  0.00  0.00    +0.000 C 
ATOM     20  C   UNL     1      53.649 147.374  23.524  0.00  0.00    +0.000 C 
ATOM     21  C   UNL     1      53.981 148.521  24.232  0.00  0.00    +0.003 C 
ENDBRANCH  11  12
ENDBRANCH   4  11
BRANCH   5  22
ATOM     22  O   UNL     1      56.148 152.608  27.243  0.00  0.00    -0.330 OA
BRANCH  22  23
ATOM     23  O   UNL     1      55.286 152.575  28.256  0.00  0.00    -0.170 OA
ATOM     24  C   UNL     1      55.935 152.605  29.498  0.00  0.00    +0.232 C 
ENDBRANCH  22  23
ENDBRANCH   5  22
TORSDOF 6
