MODEL 1
REMARK VINA RESULT:   -10.304      0.000      0.000
REMARK INTER + INTRA:         -10.841
REMARK INTER:                 -13.015
REMARK INTRA:                   2.174
REMARK UNBOUND:                 2.174
REMARK  Name = =
REMARK  6 active torsions:
REMARK  status: ('A' for Active; 'I' for Inactive)
REMARK    1  A    between atoms: C_1  and  N_21
REMARK    2  A    between atoms: C_7  and  O_45
REMARK    3  A    between atoms: C_10  and  O_43
REMARK    4  A    between atoms: C_18  and  O_44
REMARK    5  A    between atoms: C_24  and  N_28
REMARK    6  A    between atoms: C_24  and  C_37
REMARK                            x       y       z     vdW  Elec       q    Type
REMARK                         _______ _______ _______ _____ _____    ______ ____
ROOT
ATOM      1  C   UNL     1       3.292  -5.859  26.222  0.00  0.00    +0.124 C 
ATOM      2  C   UNL     1       4.611  -6.223  26.838  0.00  0.00    +0.027 C 
ATOM      3  C   UNL     1       5.141  -5.205  27.789  0.00  0.00    +0.007 C 
ATOM      4  C   UNL     1       5.009  -3.795  27.315  0.00  0.00    +0.029 C 
ATOM      5  C   UNL     1       4.272  -3.631  26.044  0.00  0.00    +0.012 A 
ATOM      6  C   UNL     1       3.444  -4.578  25.483  0.00  0.00    +0.030 A 
ATOM      7  C   UNL     1       2.775  -4.387  24.301  0.00  0.00    +0.134 A 
ATOM      8  C   UNL     1       2.968  -3.152  23.661  0.00  0.00    +0.078 A 
ATOM      9  C   UNL     1       3.782  -2.192  24.191  0.00  0.00    +0.078 A 
ATOM     10  C   UNL     1       4.445  -2.414  25.387  0.00  0.00    +0.133 A 
ATOM     11  C   UNL     1       3.929  -0.933  23.460  0.00  0.00    +0.202 C 
ATOM     12  O   UNL     1       4.681  -0.077  23.974  0.00  0.00    -0.286 OA
ATOM     13  C   UNL     1       3.230  -0.704  22.203  0.00  0.00    +0.076 C 
ATOM     14  C   UNL     1       2.396  -1.685  21.658  0.00  0.00    +0.045 C 
ATOM     15  C   UNL     1       1.711  -1.526  20.474  0.00  0.00    +0.003 C 
ATOM     16  C   UNL     1       1.862  -0.335  19.802  0.00  0.00    +0.003 C 
ATOM     17  C   UNL     1       2.661   0.664  20.280  0.00  0.00    +0.037 C 
ATOM     18  C   UNL     1       3.352   0.482  21.490  0.00  0.00    +0.137 C 
ATOM     19  C   UNL     1       2.258  -2.942  22.401  0.00  0.00    +0.199 C 
ATOM     20  O   UNL     1       1.502  -3.837  21.909  0.00  0.00    -0.286 OA
ENDROOT
BRANCH   1  21
ATOM     21  N   UNL     1       2.240  -5.671  27.168  0.00  0.00    -0.178 N 
ATOM     22  N   UNL     1       1.650  -4.451  27.511  0.00  0.00    -0.176 NA
ATOM     23  C   UNL     1       0.718  -4.290  28.373  0.00  0.00    +0.116 C 
ATOM     24  C   UNL     1       0.161  -5.436  29.119  0.00  0.00    +0.139 C 
ATOM     25  C   UNL     1       0.297  -6.675  28.307  0.00  0.00    +0.118 C 
ATOM     26  C   UNL     1       1.720  -6.796  27.864  0.00  0.00    +0.247 C 
ATOM     27  O   UNL     1       2.382  -7.829  28.105  0.00  0.00    -0.273 OA
BRANCH  24  28
ATOM     28  N   UNL     1       0.892  -5.518  30.387  0.00  0.00    -0.229 N 
ATOM     29  C   UNL     1       0.984  -6.659  31.091  0.00  0.00    +0.335 A 
ATOM     30  O   UNL     1       0.443  -7.723  30.699  0.00  0.00    -0.246 OA
ATOM     31  N   UNL     1       1.660  -6.735  32.260  0.00  0.00    -0.260 N 
ATOM     32  C   UNL     1       2.271  -5.645  32.755  0.00  0.00    +0.332 A 
ATOM     33  O   UNL     1       2.909  -5.704  33.850  0.00  0.00    -0.247 OA
ATOM     34  N   UNL     1       2.194  -4.514  32.075  0.00  0.00    -0.260 N 
ATOM     35  C   UNL     1       1.515  -4.453  30.910  0.00  0.00    +0.335 A 
ATOM     36  O   UNL     1       1.497  -3.348  30.344  0.00  0.00    -0.246 OA
ATOM     37  H   UNL     1       1.705  -7.589  32.748  0.00  0.00    +0.175 HD
ATOM     38  H   UNL     1       2.637  -3.706  32.423  0.00  0.00    +0.175 HD
ENDBRANCH  24  28
BRANCH  24  39
ATOM     39  C   UNL     1      -1.295  -5.177  29.463  0.00  0.00    -0.019 C 
ATOM     40  C   UNL     1      -1.922  -5.907  30.342  0.00  0.00    -0.027 C 
ATOM     41  C   UNL     1      -3.350  -5.643  30.671  0.00  0.00    +0.051 C 
ATOM     42  C   UNL     1      -3.756  -4.246  30.411  0.00  0.00    -0.026 C 
ATOM     43  C   UNL     1      -3.119  -3.521  29.530  0.00  0.00    -0.026 C 
ATOM     44  C   UNL     1      -1.982  -4.066  28.767  0.00  0.00    +0.049 C 
ENDBRANCH  24  39
ENDBRANCH   1  21
BRANCH  10  45
ATOM     45  O   UNL     1       5.256  -1.413  25.888  0.00  0.00    -0.506 OA
ATOM     46  H   UNL     1       5.344  -1.300  26.814  0.00  0.00    +0.292 HD
ENDBRANCH  10  45
BRANCH  18  47
ATOM     47  O   UNL     1       4.145   1.492  21.950  0.00  0.00    -0.505 OA
ATOM     48  H   UNL     1       4.975   1.295  22.338  0.00  0.00    +0.292 HD
ENDBRANCH  18  47
BRANCH   7  49
ATOM     49  O   UNL     1       1.943  -5.331  23.734  0.00  0.00    -0.506 OA
ATOM     50  H   UNL     1       1.505  -5.145  22.926  0.00  0.00    +0.292 HD
ENDBRANCH   7  49
TORSDOF 6
ENDMDL
