REMARK  Name = =
REMARK  6 active torsions:
REMARK  status: ('A' for Active; 'I' for Inactive)
REMARK    1  A    between atoms: C_1  and  N_21
REMARK    2  A    between atoms: C_7  and  O_45
REMARK    3  A    between atoms: C_10  and  O_43
REMARK    4  A    between atoms: C_18  and  O_44
REMARK    5  A    between atoms: C_24  and  N_28
REMARK    6  A    between atoms: C_24  and  C_37
REMARK                            x       y       z     vdW  Elec       q    Type
REMARK                         _______ _______ _______ _____ _____    ______ ____
ROOT
ATOM      1  C   UNL     1       2.123  -8.309  27.872  0.00  0.00    +0.124 C 
ATOM      2  C   UNL     1       3.540  -8.197  28.353  0.00  0.00    +0.027 C 
ATOM      3  C   UNL     1       4.273  -7.014  27.818  0.00  0.00    +0.007 C 
ATOM      4  C   UNL     1       4.056  -6.765  26.361  0.00  0.00    +0.029 C 
ATOM      5  C   UNL     1       3.064  -7.652  25.718  0.00  0.00    +0.012 A 
ATOM      6  C   UNL     1       2.125  -8.405  26.389  0.00  0.00    +0.030 A 
ATOM      7  C   UNL     1       1.218  -9.216  25.755  0.00  0.00    +0.134 A 
ATOM      8  C   UNL     1       1.281  -9.254  24.352  0.00  0.00    +0.078 A 
ATOM      9  C   UNL     1       2.200  -8.520  23.658  0.00  0.00    +0.078 A 
ATOM     10  C   UNL     1       3.103  -7.709  24.326  0.00  0.00    +0.133 A 
ATOM     11  C   UNL     1       2.198  -8.617  22.198  0.00  0.00    +0.202 C 
ATOM     12  O   UNL     1       3.052  -7.932  21.595  0.00  0.00    -0.286 OA
ATOM     13  C   UNL     1       1.246  -9.471  21.500  0.00  0.00    +0.076 C 
ATOM     14  C   UNL     1       0.305 -10.223  22.208  0.00  0.00    +0.045 C 
ATOM     15  C   UNL     1      -0.618 -11.047  21.603  0.00  0.00    +0.003 C 
ATOM     16  C   UNL     1      -0.604 -11.125  20.230  0.00  0.00    +0.003 C 
ATOM     17  C   UNL     1       0.289 -10.416  19.479  0.00  0.00    +0.037 C 
ATOM     18  C   UNL     1       1.223  -9.581  20.115  0.00  0.00    +0.137 C 
ATOM     19  C   UNL     1       0.318 -10.116  23.671  0.00  0.00    +0.199 C 
ATOM     20  O   UNL     1      -0.535 -10.799  24.319  0.00  0.00    -0.286 OA
ENDROOT
BRANCH   1  21
ATOM     21  N   UNL     1       1.302  -7.194  28.216  0.00  0.00    -0.178 N 
ATOM     22  N   UNL     1       1.729  -6.020  28.843  0.00  0.00    -0.176 NA
ATOM     23  C   UNL     1       0.982  -5.032  29.163  0.00  0.00    +0.116 C 
ATOM     24  C   UNL     1      -0.469  -5.049  28.887  0.00  0.00    +0.139 C 
ATOM     25  C   UNL     1      -0.742  -5.912  27.706  0.00  0.00    +0.118 C 
ATOM     26  C   UNL     1      -0.090  -7.239  27.930  0.00  0.00    +0.247 C 
ATOM     27  O   UNL     1      -0.750  -8.298  27.862  0.00  0.00    -0.273 OA
BRANCH  24  28
ATOM     28  N   UNL     1      -1.130  -5.539  30.100  0.00  0.00    -0.229 N 
ATOM     29  C   UNL     1      -0.440  -5.976  31.167  0.00  0.00    +0.335 A 
ATOM     30  O   UNL     1       0.816  -5.990  31.182  0.00  0.00    -0.246 OA
ATOM     31  N   UNL     1      -1.050  -6.427  32.287  0.00  0.00    -0.260 N 
ATOM     32  C   UNL     1      -2.392  -6.448  32.360  0.00  0.00    +0.332 A 
ATOM     33  O   UNL     1      -2.976  -6.868  33.405  0.00  0.00    -0.247 OA
ATOM     34  N   UNL     1      -3.088  -6.020  31.320  0.00  0.00    -0.260 N 
ATOM     35  C   UNL     1      -2.465  -5.573  30.209  0.00  0.00    +0.335 A 
ATOM     36  O   UNL     1      -3.202  -5.192  29.285  0.00  0.00    -0.246 OA
ATOM     37  H   UNL     1      -0.511  -6.740  33.049  0.00  0.00    +0.175 HD
ATOM     38  H   UNL     1      -4.072  -6.027  31.357  0.00  0.00    +0.175 HD
ENDBRANCH  24  28
BRANCH  24  39
ATOM     39  C   UNL     1      -0.971  -3.637  28.647  0.00  0.00    -0.019 C 
ATOM     40  C   UNL     1      -1.047  -3.142  27.443  0.00  0.00    -0.027 C 
ATOM     41  C   UNL     1      -1.541  -1.755  27.220  0.00  0.00    +0.051 C 
ATOM     42  C   UNL     1      -2.432  -1.277  28.298  0.00  0.00    -0.026 C 
ATOM     43  C   UNL     1      -2.351  -1.782  29.501  0.00  0.00    -0.026 C 
ATOM     44  C   UNL     1      -1.375  -2.837  29.825  0.00  0.00    +0.049 C 
ENDBRANCH  24  39
ENDBRANCH   1  21
BRANCH  10  45
ATOM     45  O   UNL     1       4.013  -6.982  23.582  0.00  0.00    -0.506 OA
ATOM     46  H   UNL     1       4.010  -7.045  22.647  0.00  0.00    +0.292 HD
ENDBRANCH  10  45
BRANCH  18  47
ATOM     47  O   UNL     1       2.107  -8.881  19.347  0.00  0.00    -0.505 OA
ATOM     48  H   UNL     1       2.083  -8.962  18.414  0.00  0.00    +0.292 HD
ENDBRANCH  18  47
BRANCH   7  49
ATOM     49  O   UNL     1       0.274  -9.971  26.420  0.00  0.00    -0.506 OA
ATOM     50  H   UNL     1       0.230  -9.948  27.356  0.00  0.00    +0.292 HD
ENDBRANCH   7  49
TORSDOF 6
