MODEL 1
REMARK VINA RESULT:   -10.095      0.000      0.000
REMARK INTER + INTRA:         -14.129
REMARK INTER:                 -14.226
REMARK INTRA:                   0.097
REMARK UNBOUND:                 0.097
REMARK  Name = =
REMARK  7 active torsions:
REMARK  status: ('A' for Active; 'I' for Inactive)
REMARK    1  A    between atoms: N_1  and  S_33
REMARK    2  A    between atoms: C_5  and  C_11
REMARK    3  A    between atoms: C_6  and  S_23
REMARK    4  A    between atoms: C_7  and  C_28
REMARK    5  A    between atoms: C_18  and  C_21
REMARK    6  A    between atoms: S_33  and  O_35
REMARK    7  A    between atoms: O_35  and  N_36
REMARK                            x       y       z     vdW  Elec       q    Type
REMARK                         _______ _______ _______ _____ _____    ______ ____
ROOT
ATOM      1  N   UNL     1      -3.849  -2.997  31.164  0.00  0.00    -0.195 N 
ATOM      2  C   UNL     1      -2.895  -3.801  30.695  0.00  0.00    +0.097 A 
ATOM      3  C   UNL     1      -2.164  -3.066  29.761  0.00  0.00    +0.077 A 
ATOM      4  C   UNL     1      -1.082  -3.584  29.080  0.00  0.00    +0.015 C 
ATOM      5  C   UNL     1      -0.639  -4.900  29.278  0.00  0.00    -0.012 C 
ATOM      6  C   UNL     1      -1.372  -5.672  30.209  0.00  0.00    +0.008 C 
ATOM      7  C   UNL     1      -2.460  -5.105  30.878  0.00  0.00    +0.060 C 
ATOM      8  N   UNL     1      -2.723  -1.838  29.688  0.00  0.00    -0.305 N 
ATOM      9  C   UNL     1      -3.754  -1.814  30.550  0.00  0.00    +0.340 A 
ATOM     10  O   UNL     1      -4.452  -0.788  30.678  0.00  0.00    -0.246 OA
ATOM     11  H   UNL     1      -2.429  -1.098  29.110  0.00  0.00    +0.170 HD
ENDROOT
BRANCH   5  12
ATOM     12  C   UNL     1       0.635  -5.234  28.654  0.00  0.00    +0.052 C 
ATOM     13  C   UNL     1       1.545  -5.938  29.722  0.00  0.00    +0.056 C 
ATOM     14  C   UNL     1       2.404  -5.001  30.459  0.00  0.00    +0.206 C 
ATOM     15  O   UNL     1       2.211  -3.601  30.043  0.00  0.00    -0.476 OA
ATOM     16  C   UNL     1       2.322  -3.478  28.628  0.00  0.00    +0.135 C 
ATOM     17  C   UNL     1       1.481  -4.356  27.881  0.00  0.00    +0.015 C 
ATOM     18  C   UNL     1       1.643  -4.246  26.538  0.00  0.00    -0.004 C 
ATOM     19  C   UNL     1       2.485  -3.421  25.832  0.00  0.00    -0.003 C 
ATOM     20  C   UNL     1       3.291  -2.549  26.609  0.00  0.00    +0.000 C 
ATOM     21  C   UNL     1       3.148  -2.641  27.974  0.00  0.00    +0.036 C 
BRANCH  19  22
ATOM     22  C   UNL     1       2.717  -3.566  24.471  0.00  0.00    +0.136 C 
ATOM     23  N   UNL     1       2.920  -3.712  23.241  0.00  0.00    -0.126 NA
ENDBRANCH  19  22
ENDBRANCH   5  12
BRANCH   6  24
ATOM     24  S   UNL     1      -0.922  -7.359  30.451  0.00  0.00    -0.192 S 
ATOM     25  C   UNL     1      -0.282  -7.834  32.079  0.00  0.00    +0.059 C 
ATOM     26  C   UNL     1      -1.460  -8.573  32.600  0.00  0.00    +0.080 C 
ATOM     27  N   UNL     1      -2.130  -9.301  31.616  0.00  0.00    -0.289 NA
ATOM     28  C   UNL     1      -2.047  -8.709  30.332  0.00  0.00    +0.111 C 
ATOM     29  H   UNL     1      -0.089  -7.249  29.382  0.00  0.00    +0.089 HD
ATOM     30  H   UNL     1      -3.113  -9.371  31.877  0.00  0.00    +0.124 HD
ENDBRANCH   6  24
BRANCH   7  31
ATOM     31  C   UNL     1      -3.283  -5.904  31.765  0.00  0.00    +0.188 C 
ATOM     32  N   UNL     1      -3.278  -5.990  33.059  0.00  0.00    -0.217 NA
ATOM     33  C   UNL     1      -4.202  -6.833  33.519  0.00  0.00    +0.304 C 
ATOM     34  O   UNL     1      -4.786  -7.273  32.444  0.00  0.00    -0.208 OA
ATOM     35  N   UNL     1      -4.308  -6.777  31.339  0.00  0.00    -0.110 NA
ENDBRANCH   7  31
BRANCH   1  36
ATOM     36  S   UNL     1      -4.972  -3.300  32.497  0.00  0.00    +0.224 S 
ATOM     37  O   UNL     1      -4.290  -3.336  33.859  0.00  0.00    -0.107 OA
BRANCH  36  38
ATOM     38  O   UNL     1      -6.053  -1.923  32.552  0.00  0.00    -0.166 OA
BRANCH  38  39
ATOM     39  N   UNL     1      -7.338  -2.306  32.508  0.00  0.00    -0.145 N 
ATOM     40  C   UNL     1      -7.984  -3.112  33.560  0.00  0.00    +0.152 C 
ATOM     41  C   UNL     1      -9.351  -3.314  33.078  0.00  0.00    +0.003 C 
ATOM     42  C   UNL     1      -9.551  -2.723  31.937  0.00  0.00    +0.057 C 
ATOM     43  C   UNL     1      -8.307  -2.066  31.533  0.00  0.00    +0.272 C 
ATOM     44  O   UNL     1      -8.280  -1.420  30.442  0.00  0.00    -0.268 OA
ENDBRANCH  38  39
ENDBRANCH  36  38
ENDBRANCH   1  36
TORSDOF 7
ENDMDL
