REMARK  Name = =
REMARK  0 active torsions:
REMARK  status: ('A' for Active; 'I' for Inactive)
REMARK                            x       y       z     vdW  Elec       q    Type
REMARK                         _______ _______ _______ _____ _____    ______ ____
ROOT
ATOM      1  C   UNL     1      49.134 156.576  22.136  0.00  0.00    +0.271 C 
ATOM      2  O   UNL     1      50.052 157.251  22.969  0.00  0.00    -0.327 OA
ATOM      3  C   UNL     1      49.164 158.232  23.471  0.00  0.00    +0.145 C 
ATOM      4  C   UNL     1      48.544 158.861  22.182  0.00  0.00    +0.038 C 
ATOM      5  C   UNL     1      48.628 157.725  21.263  0.00  0.00    +0.069 C 
ATOM      6  C   UNL     1      49.404 155.527  21.399  0.00  0.00    +0.234 C 
ATOM      7  C   UNL     1      49.691 154.470  20.631  0.00  0.00    -0.067 C 
ATOM      8  C   UNL     1      49.970 153.402  19.883  0.00  0.00    +0.018 C 
ATOM      9  C   UNL     1      51.127 153.516  19.067  0.00  0.00    +0.040 C 
ATOM     10  O   UNL     1      48.072 156.270  23.119  0.00  0.00    -0.201 OA
ATOM     11  N   UNL     1      47.825 154.855  23.074  0.00  0.00    +0.130 NA
ATOM     12  O   UNL     1      48.385 154.243  22.086  0.00  0.00    -0.351 OA
ENDROOT
TORSDOF 0
