REMARK  Name = =
REMARK  7 active torsions:
REMARK  status: ('A' for Active; 'I' for Inactive)
REMARK    1  A    between atoms: N_1  and  O_20
REMARK    2  A    between atoms: C_12  and  O_19
REMARK    3  A    between atoms: O_20  and  C_21
REMARK    4  A    between atoms: C_21  and  C_23
REMARK    5  A    between atoms: C_25  and  O_31
REMARK    6  A    between atoms: C_26  and  O_30
REMARK    7  A    between atoms: C_27  and  O_29
REMARK                            x       y       z     vdW  Elec       q    Type
REMARK                         _______ _______ _______ _____ _____    ______ ____
ROOT
ATOM      1  N   UNL     1     -14.137 -43.385  29.328  0.00  0.00    -0.118 NA
ATOM      2  C   UNL     1     -12.782 -42.950  28.948  0.00  0.00    +0.104 C 
ATOM      3  C   UNL     1     -12.043 -42.748  30.196  0.00  0.00    +0.047 C 
ATOM      4  C   UNL     1     -11.846 -44.001  30.943  0.00  0.00    +0.065 C 
ATOM      5  C   UNL     1     -10.954 -43.944  32.137  0.00  0.00    +0.174 C 
ATOM      6  O   UNL     1     -10.381 -45.303  32.086  0.00  0.00    -0.476 OA
ATOM      7  C   UNL     1     -10.279 -45.659  30.735  0.00  0.00    +0.168 C 
ATOM      8  C   UNL     1     -11.138 -44.902  30.024  0.00  0.00    +0.014 C 
ATOM      9  C   UNL     1     -11.318 -44.956  28.682  0.00  0.00    -0.021 C 
ATOM     10  C   UNL     1     -10.555 -45.868  27.990  0.00  0.00    -0.001 C 
ATOM     11  C   UNL     1      -9.639 -46.695  28.658  0.00  0.00    +0.039 C 
ATOM     12  C   UNL     1      -9.513 -46.574  30.050  0.00  0.00    +0.167 C 
ATOM     13  C   UNL     1     -12.271 -44.051  28.004  0.00  0.00    +0.046 C 
ATOM     14  C   UNL     1      -9.846 -42.948  31.964  0.00  0.00    +0.070 C 
ATOM     15  C   UNL     1     -10.179 -41.705  31.267  0.00  0.00    -0.027 C 
ATOM     16  C   UNL     1     -11.211 -41.622  30.442  0.00  0.00    -0.029 C 
ATOM     17  C   UNL     1     -13.246 -44.531  31.264  0.00  0.00    +0.029 C 
ATOM     18  C   UNL     1     -14.220 -43.505  30.801  0.00  0.00    +0.114 C 
ENDROOT
BRANCH  12  19
ATOM     19  O   UNL     1      -8.606 -47.399  30.688  0.00  0.00    -0.503 OA
ATOM     20  H   UNL     1      -8.100 -48.011  30.191  0.00  0.00    +0.292 HD
ENDBRANCH  12  19
BRANCH   1  21
ATOM     21  O   UNL     1     -15.100 -42.495  28.993  0.00  0.00    -0.361 OA
BRANCH  21  22
ATOM     22  C   UNL     1     -16.219 -42.775  28.191  0.00  0.00    +0.359 C 
ATOM     23  O   UNL     1     -17.235 -43.196  28.792  0.00  0.00    -0.243 OA
BRANCH  22  24
ATOM     24  C   UNL     1     -16.183 -42.576  26.756  0.00  0.00    +0.084 C 
ATOM     25  C   UNL     1     -17.305 -42.102  26.125  0.00  0.00    +0.046 C 
ATOM     26  C   UNL     1     -17.340 -41.900  24.764  0.00  0.00    +0.171 C 
ATOM     27  C   UNL     1     -16.199 -42.188  24.000  0.00  0.00    +0.202 C 
ATOM     28  C   UNL     1     -15.059 -42.663  24.592  0.00  0.00    +0.171 C 
ATOM     29  C   UNL     1     -15.092 -42.842  25.964  0.00  0.00    +0.046 C 
BRANCH  28  30
ATOM     30  O   UNL     1     -13.909 -42.959  23.859  0.00  0.00    -0.503 OA
ATOM     31  H   UNL     1     -13.900 -42.833  22.931  0.00  0.00    +0.292 HD
ENDBRANCH  28  30
BRANCH  27  32
ATOM     32  O   UNL     1     -16.289 -41.970  22.644  0.00  0.00    -0.501 OA
ATOM     33  H   UNL     1     -15.554 -42.147  22.091  0.00  0.00    +0.292 HD
ENDBRANCH  27  32
BRANCH  26  34
ATOM     34  O   UNL     1     -18.481 -41.414  24.112  0.00  0.00    -0.503 OA
ATOM     35  H   UNL     1     -19.253 -41.216  24.604  0.00  0.00    +0.292 HD
ENDBRANCH  26  34
ENDBRANCH  22  24
ENDBRANCH  21  22
ENDBRANCH   1  21
TORSDOF 7
