REMARK  Name = =
REMARK  6 active torsions:
REMARK  status: ('A' for Active; 'I' for Inactive)
REMARK    1  A    between atoms: C_1  and  S_3
REMARK    2  A    between atoms: C_1  and  C_17
REMARK    3  A    between atoms: C_2  and  C_31
REMARK    4  A    between atoms: C_4  and  C_10
REMARK    5  A    between atoms: C_10  and  O_16
REMARK    6  A    between atoms: C_17  and  C_23
REMARK                            x       y       z     vdW  Elec       q    Type
REMARK                         _______ _______ _______ _____ _____    ______ ____
ROOT
ATOM      1  C   UNL     1      60.922 165.282  38.788  0.00  0.00    +0.027 C 
ATOM      2  C   UNL     1      60.799 165.234  37.540  0.00  0.00    +0.004 C 
ENDROOT
BRANCH   1   3
ATOM      3  S   UNL     1      60.289 163.942  39.889  0.00  0.00    -0.073 S 
ATOM      4  C   UNL     1      60.639 162.276  39.269  0.00  0.00    +0.156 C 
ATOM      5  C   UNL     1      59.368 161.858  38.682  0.00  0.00    +0.241 C 
ATOM      6  O   UNL     1      59.258 160.712  38.106  0.00  0.00    -0.274 OA
ATOM      7  N   UNL     1      58.323 162.792  38.805  0.00  0.00    -0.246 N 
ATOM      8  C   UNL     1      58.457 163.697  39.867  0.00  0.00    +0.274 C 
ATOM      9  O   UNL     1      57.656 164.241  40.639  0.00  0.00    -0.263 OA
ATOM     10  H   UNL     1      57.554 162.809  38.190  0.00  0.00    +0.158 HD
BRANCH   4  11
ATOM     11  C   UNL     1      61.182 161.402  40.327  0.00  0.00    +0.157 C 
BRANCH  11  12
ATOM     12  O   UNL     1      60.523 160.168  40.230  0.00  0.00    -0.381 OA
ATOM     13  H   UNL     1      60.858 159.568  40.914  0.00  0.00    +0.210 HD
ENDBRANCH  11  12
ENDBRANCH   4  11
ENDBRANCH   1   3
BRANCH   1  14
ATOM     14  C   UNL     1      61.665 166.303  39.541  0.00  0.00    +0.127 C 
ATOM     15  O   UNL     1      62.530 165.658  40.358  0.00  0.00    -0.349 OA
ATOM     16  C   UNL     1      62.633 165.915  41.665  0.00  0.00    +0.168 C 
ATOM     17  C   UNL     1      61.448 166.460  42.359  0.00  0.00    +0.001 C 
ATOM     18  C   UNL     1      60.542 167.073  41.654  0.00  0.00    -0.025 C 
ATOM     19  C   UNL     1      60.675 167.231  40.213  0.00  0.00    +0.058 C 
BRANCH  14  20
ATOM     20  C   UNL     1      62.406 167.217  38.545  0.00  0.00    +0.082 C 
ATOM     21  C   UNL     1      61.409 167.545  37.485  0.00  0.00    +0.157 C 
ATOM     22  O   UNL     1      61.837 167.650  36.128  0.00  0.00    -0.345 OA
ATOM     23  C   UNL     1      61.363 168.749  36.808  0.00  0.00    +0.204 C 
ATOM     24  C   UNL     1      62.469 169.699  37.209  0.00  0.00    +0.202 C 
ATOM     25  O   UNL     1      63.020 170.482  36.423  0.00  0.00    -0.289 OA
ATOM     26  C   UNL     1      62.829 169.605  38.625  0.00  0.00    +0.036 C 
ATOM     27  C   UNL     1      62.803 168.465  39.253  0.00  0.00    -0.018 C 
ENDBRANCH  14  20
ENDBRANCH   1  14
BRANCH   2  28
ATOM     28  C   UNL     1      60.119 164.343  36.619  0.00  0.00    +0.000 C 
ATOM     29  C   UNL     1      59.094 164.757  35.816  0.00  0.00    +0.000 C 
ATOM     30  C   UNL     1      58.457 163.861  34.952  0.00  0.00    +0.000 C 
ATOM     31  C   UNL     1      58.848 162.542  34.890  0.00  0.00    +0.000 C 
ATOM     32  C   UNL     1      59.882 162.134  35.704  0.00  0.00    +0.000 C 
ATOM     33  C   UNL     1      60.522 163.020  36.567  0.00  0.00    +0.000 C 
ENDBRANCH   2  28
TORSDOF 6
REMARK  Name = =
REMARK  6 active torsions:
REMARK  status: ('A' for Active; 'I' for Inactive)
REMARK    1  A    between atoms: C_1  and  S_3
REMARK    2  A    between atoms: C_1  and  C_17
REMARK    3  A    between atoms: C_2  and  C_31
REMARK    4  A    between atoms: C_4  and  C_10
REMARK    5  A    between atoms: C_10  and  O_16
REMARK    6  A    between atoms: C_17  and  C_23
REMARK                            x       y       z     vdW  Elec       q    Type
REMARK                         _______ _______ _______ _____ _____    ______ ____
ROOT
ATOM      1  P   UNL     1      60.988 161.946  42.015  0.00  0.00    +0.000 P 
ENDROOT
TORSDOF 0
REMARK  Name = =
REMARK  6 active torsions:
REMARK  status: ('A' for Active; 'I' for Inactive)
REMARK    1  A    between atoms: C_1  and  S_3
REMARK    2  A    between atoms: C_1  and  C_17
REMARK    3  A    between atoms: C_2  and  C_31
REMARK    4  A    between atoms: C_4  and  C_10
REMARK    5  A    between atoms: C_10  and  O_16
REMARK    6  A    between atoms: C_17  and  C_23
REMARK                            x       y       z     vdW  Elec       q    Type
REMARK                         _______ _______ _______ _____ _____    ______ ____
ROOT
ATOM      1  O   HOH     1      62.216 162.204  42.893  0.00  0.00    -0.253 OA
ATOM      2  H   HOH     0      63.186 162.204  42.893  0.00  0.00    +0.253 HD
ENDROOT
TORSDOF 0
REMARK  Name = =
REMARK  6 active torsions:
REMARK  status: ('A' for Active; 'I' for Inactive)
REMARK    1  A    between atoms: C_1  and  S_3
REMARK    2  A    between atoms: C_1  and  C_17
REMARK    3  A    between atoms: C_2  and  C_31
REMARK    4  A    between atoms: C_4  and  C_10
REMARK    5  A    between atoms: C_10  and  O_16
REMARK    6  A    between atoms: C_17  and  C_23
REMARK                            x       y       z     vdW  Elec       q    Type
REMARK                         _______ _______ _______ _____ _____    ______ ____
ROOT
ATOM      1  O   HOH     1      61.352 163.538  42.283  0.00  0.00    -0.410 OA
ATOM      2  H   HOH     0      62.322 163.538  42.283  0.00  0.00    +0.205 HD
ATOM      3  H   HOH     0      61.029 164.219  41.672  0.00  0.00    +0.205 HD
ENDROOT
TORSDOF 0
REMARK  Name = =
REMARK  6 active torsions:
REMARK  status: ('A' for Active; 'I' for Inactive)
REMARK    1  A    between atoms: C_1  and  S_3
REMARK    2  A    between atoms: C_1  and  C_17
REMARK    3  A    between atoms: C_2  and  C_31
REMARK    4  A    between atoms: C_4  and  C_10
REMARK    5  A    between atoms: C_10  and  O_16
REMARK    6  A    between atoms: C_17  and  C_23
REMARK                            x       y       z     vdW  Elec       q    Type
REMARK                         _______ _______ _______ _____ _____    ______ ____
ROOT
ATOM      1  O   HOH     1      59.323 162.158  41.713  0.00  0.00    -0.253 OA
ATOM      2  H   HOH     0      60.293 162.158  41.713  0.00  0.00    +0.253 HD
ENDROOT
TORSDOF 0
REMARK  Name = =
REMARK  6 active torsions:
REMARK  status: ('A' for Active; 'I' for Inactive)
REMARK    1  A    between atoms: C_1  and  S_3
REMARK    2  A    between atoms: C_1  and  C_17
REMARK    3  A    between atoms: C_2  and  C_31
REMARK    4  A    between atoms: C_4  and  C_10
REMARK    5  A    between atoms: C_10  and  O_16
REMARK    6  A    between atoms: C_17  and  C_23
REMARK                            x       y       z     vdW  Elec       q    Type
REMARK                         _______ _______ _______ _____ _____    ______ ____
ROOT
ATOM      1  O   HOH     1      60.913 160.557  42.990  0.00  0.00    -0.253 OA
ATOM      2  H   HOH     0      61.883 160.557  42.990  0.00  0.00    +0.253 HD
ENDROOT
TORSDOF 0
