MODEL 1
REMARK VINA RESULT:    -8.887      0.000      0.000
REMARK INTER + INTRA:         -11.420
REMARK INTER:                 -10.965
REMARK INTRA:                  -0.455
REMARK UNBOUND:                -0.455
REMARK  Name = =
REMARK  6 active torsions:
REMARK  status: ('A' for Active; 'I' for Inactive)
REMARK    1  A    between atoms: C_8  and  S_24
REMARK    2  A    between atoms: C_11  and  O_23
REMARK    3  A    between atoms: C_19  and  N_25
REMARK    4  A    between atoms: N_25  and  C_26
REMARK    5  A    between atoms: N_25  and  O_29
REMARK    6  A    between atoms: C_26  and  N_28
REMARK                            x       y       z     vdW  Elec       q    Type
REMARK                         _______ _______ _______ _____ _____    ______ ____
ROOT
ATOM      1  C   UNL     1      -0.537  -3.187  29.333  0.00  0.00    +0.024 A 
ATOM      2  C   UNL     1      -1.745  -3.515  29.881  0.00  0.00    +0.097 A 
ATOM      3  N   UNL     1      -1.895  -4.669  30.538  0.00  0.00    -0.247 NA
ATOM      4  C   UNL     1      -0.840  -5.520  30.661  0.00  0.00    +0.074 A 
ATOM      5  C   UNL     1       0.401  -5.260  30.141  0.00  0.00    +0.009 A 
ATOM      6  C   UNL     1       0.552  -4.051  29.455  0.00  0.00    +0.030 A 
ATOM      7  I   UNL     1       2.396  -3.515  28.606  0.00  0.00    -0.043 I 
ATOM      8  C   UNL     1       1.006  -6.525  30.633  0.00  0.00    +0.076 C 
ATOM      9  C   UNL     1      -0.322  -6.816  31.165  0.00  0.00    +0.110 C 
ATOM     10  N   UNL     1      -0.997  -7.960  30.546  0.00  0.00    -0.243 N 
ATOM     11  C   UNL     1      -1.520  -8.056  29.239  0.00  0.00    +0.402 C 
ATOM     12  O   UNL     1      -1.433  -7.078  28.457  0.00  0.00    -0.226 OA
ATOM     13  C   UNL     1      -1.044  -9.025  31.530  0.00  0.00    +0.097 C 
ATOM     14  C   UNL     1      -1.396  -8.234  32.777  0.00  0.00    +0.024 C 
ATOM     15  C   UNL     1      -0.499  -7.027  32.611  0.00  0.00    +0.025 C 
ATOM     16  C   UNL     1       2.108  -6.241  31.587  0.00  0.00    +0.016 C 
ATOM     17  C   UNL     1       1.713  -6.156  33.021  0.00  0.00    +0.001 C 
ATOM     18  C   UNL     1       0.802  -7.334  33.312  0.00  0.00    +0.002 C 
ATOM     19  C   UNL     1      -2.832  -2.638  29.766  0.00  0.00    +0.097 C 
ATOM     20  C   UNL     1      -2.639  -1.456  29.088  0.00  0.00    +0.019 C 
ATOM     21  C   UNL     1      -1.415  -1.155  28.546  0.00  0.00    +0.001 C 
ATOM     22  C   UNL     1      -0.325  -1.989  28.640  0.00  0.00    +0.002 C 
ENDROOT
BRANCH  11  23
ATOM     23  O   UNL     1      -2.136  -9.205  28.780  0.00  0.00    -0.466 OA
ATOM     24  H   UNL     1      -2.998  -9.161  28.417  0.00  0.00    +0.297 HD
ENDBRANCH  11  23
BRANCH   8  25
ATOM     25  S   UNL     1       1.496  -7.670  29.290  0.00  0.00    -0.163 S 
ATOM     26  H   UNL     1       1.043  -7.194  28.099  0.00  0.00    +0.103 HD
ENDBRANCH   8  25
BRANCH  19  27
ATOM     27  N   UNL     1      -4.084  -2.975  30.348  0.00  0.00    -0.161 N 
BRANCH  27  28
ATOM     28  C   UNL     1      -4.671  -2.267  31.418  0.00  0.00    +0.159 C 
ATOM     29  S   UNL     1      -5.220  -3.131  32.702  0.00  0.00    -0.017 S 
BRANCH  28  30
ATOM     30  N   UNL     1      -4.818  -0.849  31.464  0.00  0.00    -0.339 N 
ATOM     31  H   UNL     1      -4.701  -0.316  30.645  0.00  0.00    +0.144 HD
ATOM     32  H   UNL     1      -5.037  -0.404  32.314  0.00  0.00    +0.144 HD
ENDBRANCH  28  30
ENDBRANCH  27  28
BRANCH  27  33
ATOM     33  O   UNL     1      -4.721  -4.036  29.819  0.00  0.00    -0.288 OA
ATOM     34  H   UNL     1      -4.146  -4.815  29.869  0.00  0.00    +0.242 HD
ENDBRANCH  27  33
ENDBRANCH  19  27
TORSDOF 6
ENDMDL
