REMARK  Name = =
REMARK  13 active torsions:
REMARK  status: ('A' for Active; 'I' for Inactive)
REMARK    1  A    between atoms: C_1  and  N_13
REMARK    2  A    between atoms: C_1  and  S_18
REMARK    3  A    between atoms: S_2  and  N_3
REMARK    4  A    between atoms: N_6  and  O_7
REMARK    5  A    between atoms: N_6  and  O_8
REMARK    6  A    between atoms: O_8  and  P_9
REMARK    7  A    between atoms: P_9  and  N_11
REMARK    8  A    between atoms: P_9  and  N_12
REMARK    9  A    between atoms: N_13  and  O_14
REMARK   10  A    between atoms: O_14  and  S_15
REMARK   11  A    between atoms: S_15  and  C_16
REMARK   12  A    between atoms: S_18  and  C_27
REMARK   13  A    between atoms: C_26  and  S_30
REMARK                            x       y       z     vdW  Elec       q    Type
REMARK                         _______ _______ _______ _____ _____    ______ ____
ROOT
ATOM      1  C   UNL     1       0.742  -6.212  29.910  0.00  0.00    +0.129 C 
ATOM      2  S   UNL     1       1.973  -7.017  29.216  0.00  0.00    -0.085 S 
ATOM      3  H   UNL     1       2.228  -8.074  30.033  0.00  0.00    +0.118 HD
ENDROOT
BRANCH   2   4
ATOM      4  N   UNL     1       1.930  -7.683  27.570  0.00  0.00    -0.246 N 
ATOM      5  C   UNL     1       2.316  -6.807  26.499  0.00  0.00    +0.359 C 
ATOM      6  O   UNL     1       2.667  -5.633  26.736  0.00  0.00    -0.247 OA
ATOM      7  N   UNL     1       2.286  -7.309  25.187  0.00  0.00    -0.024 N 
ATOM      8  H   UNL     1       1.654  -8.612  27.399  0.00  0.00    +0.164 HD
BRANCH   7   9
ATOM      9  O   UNL     1       2.648  -6.470  24.184  0.00  0.00    -0.267 OA
ATOM     10  H   UNL     1       2.886  -5.606  24.555  0.00  0.00    +0.244 HD
ENDBRANCH   7   9
BRANCH   7  11
ATOM     11  O   UNL     1       1.909  -8.568  24.954  0.00  0.00    -0.165 OA
BRANCH  11  12
ATOM     12  P   UNL     1       2.607  -9.180  23.549  0.00  0.00    +0.359 P 
ATOM     13  O   UNL     1       1.751  -8.777  22.378  0.00  0.00    -0.253 OA
BRANCH  12  14
ATOM     14  N   UNL     1       2.666 -10.934  23.620  0.00  0.00    -0.245 NA
ATOM     15  H   UNL     1       1.728 -11.299  23.784  0.00  0.00    +0.129 HD
ATOM     16  H   UNL     1       3.281 -11.223  24.381  0.00  0.00    +0.129 HD
ENDBRANCH  12  14
BRANCH  12  17
ATOM     17  N   UNL     1       4.209  -8.532  23.268  0.00  0.00    -0.245 NA
ATOM     18  H   UNL     1       4.820  -8.786  24.045  0.00  0.00    +0.129 HD
ATOM     19  H   UNL     1       4.157  -7.516  23.195  0.00  0.00    +0.129 HD
ENDBRANCH  12  17
ENDBRANCH  11  12
ENDBRANCH   7  11
ENDBRANCH   2   4
BRANCH   1  20
ATOM     20  N   UNL     1       0.860  -5.716  31.211  0.00  0.00    -0.199 N 
ATOM     21  H   UNL     1       1.142  -4.784  31.360  0.00  0.00    +0.182 HD
BRANCH  20  22
ATOM     22  O   UNL     1       0.588  -6.514  32.260  0.00  0.00    -0.195 OA
BRANCH  22  23
ATOM     23  S   UNL     1       1.351  -6.017  33.703  0.00  0.00    +0.138 S 
BRANCH  23  24
ATOM     24  C   UNL     1       3.076  -5.603  33.428  0.00  0.00    +0.164 C 
ATOM     25  N   UNL     1       4.112  -5.335  33.264  0.00  0.00    -0.181 NA
ENDBRANCH  23  24
ENDBRANCH  22  23
ENDBRANCH  20  22
ENDBRANCH   1  20
BRANCH   1  26
ATOM     26  S   UNL     1      -0.731  -6.013  28.911  0.00  0.00    -0.064 S 
BRANCH  26  35
ATOM     27  C   UNL     1      -3.582  -2.886  30.714  0.00  0.00    +0.059 C 
ATOM     28  C   UNL     1      -3.553  -4.180  31.160  0.00  0.00    +0.064 C 
ATOM     29  C   UNL     1      -4.566  -4.273  32.236  0.00  0.00    +0.252 C 
ATOM     30  O   UNL     1      -4.779  -5.347  32.852  0.00  0.00    -0.270 OA
ATOM     31  N   UNL     1      -5.191  -2.985  32.405  0.00  0.00    -0.248 N 
ATOM     32  C   UNL     1      -4.575  -2.130  31.457  0.00  0.00    +0.252 C 
ATOM     33  O   UNL     1      -4.868  -0.917  31.310  0.00  0.00    -0.270 OA
ATOM     34  C   UNL     1      -2.688  -5.104  30.608  0.00  0.00    +0.032 C 
ATOM     35  C   UNL     1      -1.816  -4.779  29.589  0.00  0.00    +0.037 C 
ATOM     36  C   UNL     1      -1.861  -3.474  29.155  0.00  0.00    +0.007 C 
ATOM     37  C   UNL     1      -2.715  -2.534  29.688  0.00  0.00    +0.005 C 
ATOM     38  H   UNL     1      -5.899  -2.748  33.046  0.00  0.00    +0.158 HD
BRANCH  34  39
ATOM     39  S   UNL     1      -2.695  -6.776  31.232  0.00  0.00    -0.141 S 
ATOM     40  H   UNL     1      -3.618  -6.886  32.224  0.00  0.00    +0.107 HD
ENDBRANCH  34  39
ENDBRANCH  26  35
ENDBRANCH   1  26
TORSDOF 13
