REMARK  Name = =
REMARK  0 active torsions:
REMARK  status: ('A' for Active; 'I' for Inactive)
REMARK                            x       y       z     vdW  Elec       q    Type
REMARK                         _______ _______ _______ _____ _____    ______ ____
ROOT
ATOM      1  N   UNL     1      -4.038  -3.263  30.508  0.00  0.00    -0.032 NA
ATOM      2  N   UNL     1      -5.138  -3.350  31.109  0.00  0.00    -0.072 NA
ATOM      3  C   UNL     1      -5.541  -2.030  31.495  0.00  0.00    +0.233 C 
ATOM      4  N   UNL     1      -4.472  -1.233  30.999  0.00  0.00    -0.106 NA
ATOM      5  N   UNL     1      -3.606  -1.953  30.429  0.00  0.00    -0.023 NA
ENDROOT
TORSDOF 0
