REMARK  Name = =
REMARK  3 active torsions:
REMARK  status: ('A' for Active; 'I' for Inactive)
REMARK    1  A    between atoms: C_1  and  C_13
REMARK    2  A    between atoms: C_4  and  O_17
REMARK    3  A    between atoms: C_6  and  O_16
REMARK                            x       y       z     vdW  Elec       q    Type
REMARK                         _______ _______ _______ _____ _____    ______ ____
ROOT
ATOM      1  C   UNL     1      -5.519  -1.758  31.795  0.00  0.00    +0.094 C 
ATOM      2  C   UNL     1      -6.244  -0.566  31.604  0.00  0.00    +0.140 C 
ATOM      3  C   UNL     1      -7.558  -0.409  31.944  0.00  0.00    +0.046 C 
ATOM      4  C   UNL     1      -8.248  -1.460  32.511  0.00  0.00    +0.136 C 
ATOM      5  C   UNL     1      -7.569  -2.630  32.707  0.00  0.00    +0.073 C 
ATOM      6  C   UNL     1      -6.215  -2.797  32.358  0.00  0.00    +0.139 C 
ATOM      7  C   UNL     1      -8.311   0.854  31.738  0.00  0.00    +0.036 C 
ATOM      8  C   UNL     1      -7.555   1.776  30.809  0.00  0.00    +0.052 C 
ATOM      9  C   UNL     1      -6.084   1.818  31.127  0.00  0.00    +0.206 C 
ATOM     10  O   UNL     1      -5.569   0.506  31.036  0.00  0.00    -0.476 OA
ENDROOT
BRANCH   1  13
ATOM     11  N   UNL     1      -2.675  -3.416  31.016  0.00  0.00    -0.025 NA
ATOM     12  N   UNL     1      -3.302  -2.841  31.968  0.00  0.00    -0.124 NA
ATOM     13  C   UNL     1      -4.103  -1.822  31.394  0.00  0.00    +0.279 C 
ATOM     14  N   UNL     1      -3.855  -1.896  29.993  0.00  0.00    -0.124 NA
ATOM     15  N   UNL     1      -3.022  -2.827  29.799  0.00  0.00    -0.025 NA
ENDBRANCH   1  13
BRANCH   6  16
ATOM     16  O   UNL     1      -5.660  -4.020  32.609  0.00  0.00    -0.505 OA
ATOM     17  H   UNL     1      -4.762  -4.180  32.394  0.00  0.00    +0.292 HD
ENDBRANCH   6  16
BRANCH   4  18
ATOM     18  O   UNL     1      -9.582  -1.325  32.864  0.00  0.00    -0.506 OA
ATOM     19  H   UNL     1     -10.025  -0.512  32.719  0.00  0.00    +0.292 HD
ENDBRANCH   4  18
TORSDOF 3
