REMARK  Name = =
REMARK  4 active torsions:
REMARK  status: ('A' for Active; 'I' for Inactive)
REMARK    1  A    between atoms: C_1  and  C_13
REMARK    2  A    between atoms: C_4  and  O_22
REMARK    3  A    between atoms: C_6  and  O_21
REMARK    4  A    between atoms: C_13  and  N_16
REMARK                            x       y       z     vdW  Elec       q    Type
REMARK                         _______ _______ _______ _____ _____    ______ ____
ROOT
ATOM      1  C   UNL     1      -7.846  -0.420  31.160  0.00  0.00    +0.110 C 
ATOM      2  C   UNL     1      -6.700  -1.237  31.311  0.00  0.00    +0.142 C 
ATOM      3  C   UNL     1      -5.442  -0.744  31.325  0.00  0.00    +0.046 C 
ATOM      4  C   UNL     1      -5.227   0.615  31.189  0.00  0.00    +0.136 C 
ATOM      5  C   UNL     1      -6.305   1.432  31.041  0.00  0.00    +0.073 C 
ATOM      6  C   UNL     1      -7.617   0.909  31.027  0.00  0.00    +0.141 C 
ATOM      7  C   UNL     1      -4.259  -1.605  31.481  0.00  0.00    +0.036 C 
ATOM      8  C   UNL     1      -4.508  -3.066  31.434  0.00  0.00    +0.052 C 
ATOM      9  C   UNL     1      -5.885  -3.489  31.837  0.00  0.00    +0.206 C 
ATOM     10  O   UNL     1      -6.893  -2.597  31.448  0.00  0.00    -0.476 OA
ENDROOT
BRANCH   1  13
ATOM     11  N   UNL     1     -10.470  -1.494  32.859  0.00  0.00    -0.024 NA
ATOM     12  N   UNL     1     -10.116  -0.592  32.052  0.00  0.00    -0.107 NA
ATOM     13  C   UNL     1      -9.137  -1.072  31.155  0.00  0.00    +0.316 C 
ATOM     14  N   UNL     1      -9.004  -2.480  31.639  0.00  0.00    -0.107 NA
ATOM     15  N   UNL     1      -9.776  -2.670  32.601  0.00  0.00    -0.024 NA
BRANCH  13  16
ATOM     16  N   UNL     1      -9.698  -1.224  29.816  0.00  0.00    -0.147 N 
ATOM     17  N   UNL     1      -9.316  -0.739  28.671  0.00  0.00    -0.150 NA
ATOM     18  C   UNL     1     -10.154  -1.157  27.701  0.00  0.00    +0.219 C 
ATOM     19  N   UNL     1     -11.088  -1.931  28.283  0.00  0.00    -0.203 NA
ATOM     20  C   UNL     1     -10.797  -1.967  29.594  0.00  0.00    +0.189 C 
ENDBRANCH  13  16
ENDBRANCH   1  13
BRANCH   6  21
ATOM     21  O   UNL     1      -8.608   1.835  30.869  0.00  0.00    -0.505 OA
ATOM     22  H   UNL     1      -8.392   2.742  30.782  0.00  0.00    +0.292 HD
ENDBRANCH   6  21
BRANCH   4  23
ATOM     23  O   UNL     1      -3.918   1.135  31.203  0.00  0.00    -0.506 OA
ATOM     24  H   UNL     1      -3.186   0.559  31.306  0.00  0.00    +0.292 HD
ENDBRANCH   4  23
TORSDOF 4
