REMARK  Name = =
REMARK  5 active torsions:
REMARK  status: ('A' for Active; 'I' for Inactive)
REMARK    1  A    between atoms: C_1  and  C_28
REMARK    2  A    between atoms: C_4  and  O_37
REMARK    3  A    between atoms: C_5  and  C_11
REMARK    4  A    between atoms: C_6  and  O_36
REMARK    5  A    between atoms: C_28  and  N_31
REMARK                            x       y       z     vdW  Elec       q    Type
REMARK                         _______ _______ _______ _____ _____    ______ ____
ROOT
ATOM      1  C   UNL     1      -9.268  -0.245  30.229  0.00  0.00    +0.110 A 
ATOM      2  C   UNL     1      -9.869  -1.086  31.128  0.00  0.00    +0.142 A 
ATOM      3  C   UNL     1     -10.758  -2.010  30.641  0.00  0.00    +0.045 A 
ATOM      4  C   UNL     1     -11.063  -2.121  29.303  0.00  0.00    +0.134 A 
ATOM      5  C   UNL     1     -10.437  -1.240  28.380  0.00  0.00    +0.072 A 
ATOM      6  C   UNL     1      -9.539  -0.303  28.830  0.00  0.00    +0.139 A 
ATOM      7  C   UNL     1     -11.533  -2.900  31.584  0.00  0.00    +0.036 C 
ATOM      8  C   UNL     1     -11.637  -2.222  32.948  0.00  0.00    +0.052 C 
ATOM      9  C   UNL     1     -10.263  -1.821  33.401  0.00  0.00    +0.206 C 
ATOM     10  O   UNL     1      -9.592  -1.014  32.483  0.00  0.00    -0.476 OA
ENDROOT
BRANCH   5  11
ATOM     11  C   UNL     1     -10.799  -1.452  26.973  0.00  0.00    +0.146 C 
ATOM     12  O   UNL     1     -10.309  -0.436  26.127  0.00  0.00    -0.349 OA
ATOM     13  C   UNL     1     -11.216   0.479  25.678  0.00  0.00    +0.174 C 
ATOM     14  C   UNL     1     -12.337   0.007  24.818  0.00  0.00    +0.174 C 
ATOM     15  O   UNL     1     -12.212   0.097  23.483  0.00  0.00    -0.326 OA
ATOM     16  C   UNL     1     -12.710  -1.094  22.888  0.00  0.00    +0.264 C 
ATOM     17  O   UNL     1     -12.976  -0.945  21.569  0.00  0.00    -0.321 OA
ATOM     18  C   UNL     1     -12.023  -1.412  20.676  0.00  0.00    +0.209 C 
ATOM     19  C   UNL     1     -10.688  -1.284  21.274  0.00  0.00    +0.183 C 
ATOM     20  O   UNL     1      -9.785  -0.746  20.657  0.00  0.00    -0.293 OA
ATOM     21  C   UNL     1     -10.405  -1.796  22.620  0.00  0.00    +0.102 C 
ATOM     22  C   UNL     1     -11.746  -2.209  23.258  0.00  0.00    +0.179 C 
ATOM     23  O   UNL     1     -11.616  -2.235  24.637  0.00  0.00    -0.350 OA
ATOM     24  C   UNL     1     -12.593  -1.452  25.243  0.00  0.00    +0.148 C 
ATOM     25  C   UNL     1     -12.309  -1.389  26.766  0.00  0.00    +0.066 C 
ENDBRANCH   5  11
BRANCH   1  28
ATOM     26  N   UNL     1      -9.098   2.693  31.537  0.00  0.00    -0.024 NA
ATOM     27  N   UNL     1      -8.950   1.473  31.871  0.00  0.00    -0.107 NA
ATOM     28  C   UNL     1      -8.332   0.778  30.775  0.00  0.00    +0.316 C 
ATOM     29  N   UNL     1      -8.160   1.825  29.769  0.00  0.00    -0.107 NA
ATOM     30  N   UNL     1      -8.610   2.893  30.246  0.00  0.00    -0.024 NA
BRANCH  28  31
ATOM     31  N   UNL     1      -7.032   0.236  31.104  0.00  0.00    -0.147 N 
ATOM     32  N   UNL     1      -5.900   0.927  30.879  0.00  0.00    -0.150 NA
ATOM     33  C   UNL     1      -4.869   0.183  31.319  0.00  0.00    +0.219 C 
ATOM     34  N   UNL     1      -5.368  -0.970  31.817  0.00  0.00    -0.203 NA
ATOM     35  C   UNL     1      -6.724  -0.931  31.679  0.00  0.00    +0.189 C 
ENDBRANCH  28  31
ENDBRANCH   1  28
BRANCH   6  36
ATOM     36  O   UNL     1      -8.868   0.567  28.108  0.00  0.00    -0.506 OA
ATOM     37  H   UNL     1      -8.987   0.596  27.179  0.00  0.00    +0.292 HD
ENDBRANCH   6  36
BRANCH   4  38
ATOM     38  O   UNL     1     -11.956  -3.066  28.837  0.00  0.00    -0.506 OA
ATOM     39  H   UNL     1     -12.374  -3.652  29.437  0.00  0.00    +0.292 HD
ENDBRANCH   4  38
TORSDOF 5
