MODEL 1
REMARK VINA RESULT:    -4.827      0.000      0.000
REMARK INTER + INTRA:          -7.674
REMARK INTER:                  -6.520
REMARK INTRA:                  -1.154
REMARK UNBOUND:                -1.154
REMARK  Name = =
REMARK  6 active torsions:
REMARK  status: ('A' for Active; 'I' for Inactive)
REMARK    1  A    between atoms: C_1  and  C_8
REMARK    2  A    between atoms: C_1  and  N_19
REMARK    3  A    between atoms: C_2  and  S_10
REMARK    4  A    between atoms: S_10  and  N_15
REMARK    5  A    between atoms: C_14  and  C_17
REMARK    6  A    between atoms: N_19  and  S_20
REMARK                            x       y       z     vdW  Elec       q    Type
REMARK                         _______ _______ _______ _____ _____    ______ ____
ROOT
ATOM      1  C   UNL     1      59.187 159.894  41.182  0.00  0.00    +0.126 C 
ATOM      2  C   UNL     1      59.968 160.765  41.753  0.00  0.00    +0.079 C 
ENDROOT
BRANCH   1   8
ATOM      3  N   UNL     1      56.663 160.107  41.637  0.00  0.00    -0.275 N 
ATOM      4  C   UNL     1      55.444 159.446  42.174  0.00  0.00    +0.094 C 
ATOM      5  C   UNL     1      54.305 160.209  41.517  0.00  0.00    +0.023 C 
ATOM      6  C   UNL     1      54.860 161.611  41.535  0.00  0.00    +0.023 C 
ATOM      7  C   UNL     1      56.305 161.417  41.154  0.00  0.00    +0.094 C 
ATOM      8  C   UNL     1      57.907 159.429  41.669  0.00  0.00    +0.264 C 
ATOM      9  O   UNL     1      57.870 158.252  42.207  0.00  0.00    -0.268 OA
ENDBRANCH   1   8
BRANCH   2  10
ATOM     10  S   UNL     1      61.523 161.194  40.958  0.00  0.00    +0.014 S 
ATOM     11  N   UNL     1      60.878 162.136  39.292  0.00  0.00    -0.204 NA
ATOM     12  C   UNL     1      61.394 163.245  39.488  0.00  0.00    +0.108 C 
ATOM     13  C   UNL     1      62.178 163.563  40.616  0.00  0.00    +0.030 C 
ATOM     14  C   UNL     1      62.357 162.614  41.495  0.00  0.00    +0.059 C 
BRANCH  10  15
ATOM     15  N   UNL     1      62.402 159.819  40.374  0.00  0.00    -0.203 NA
ATOM     16  C   UNL     1      63.510 160.039  39.800  0.00  0.00    +0.129 C 
ENDBRANCH  10  15
BRANCH  14  17
ATOM     17  C   UNL     1      63.115 162.692  42.727  0.00  0.00    +0.050 C 
ATOM     18  S   UNL     1      64.564 161.960  42.846  0.00  0.00    -0.050 S 
ENDBRANCH  14  17
ENDBRANCH   2  10
BRANCH   1  19
ATOM     19  N   UNL     1      59.596 159.314  39.912  0.00  0.00    -0.217 N 
ATOM     20  H   UNL     1      60.536 159.044  39.805  0.00  0.00    +0.173 HD
BRANCH  19  21
ATOM     21  S   UNL     1      58.532 159.075  38.596  0.00  0.00    +0.033 S 
ATOM     22  O   UNL     1      58.521 160.238  37.637  0.00  0.00    -0.158 OA
ATOM     23  O   UNL     1      58.919 157.835  37.810  0.00  0.00    -0.158 OA
ATOM     24  H   UNL     1      57.294 158.941  39.143  0.00  0.00    +0.233 HD
ENDBRANCH  19  21
ENDBRANCH   1  19
TORSDOF 6
ENDMDL
