REMARK  Name = =
REMARK  6 active torsions:
REMARK  status: ('A' for Active; 'I' for Inactive)
REMARK    1  A    between atoms: C_1  and  C_8
REMARK    2  A    between atoms: C_1  and  N_19
REMARK    3  A    between atoms: C_2  and  S_10
REMARK    4  A    between atoms: S_10  and  N_15
REMARK    5  A    between atoms: C_14  and  C_17
REMARK    6  A    between atoms: N_19  and  S_20
REMARK                            x       y       z     vdW  Elec       q    Type
REMARK                         _______ _______ _______ _____ _____    ______ ____
ROOT
ATOM      1  C   UNL     1      51.863 158.441  29.586  0.00  0.00    +0.126 C 
ATOM      2  C   UNL     1      50.741 158.396  30.244  0.00  0.00    +0.079 C 
ENDROOT
BRANCH   1   8
ATOM      3  N   UNL     1      52.225 155.951  29.045  0.00  0.00    -0.275 N 
ATOM      4  C   UNL     1      53.034 154.954  28.295  0.00  0.00    +0.094 C 
ATOM      5  C   UNL     1      52.124 153.738  28.222  0.00  0.00    +0.023 C 
ATOM      6  C   UNL     1      51.480 153.788  29.584  0.00  0.00    +0.023 C 
ATOM      7  C   UNL     1      51.200 155.256  29.782  0.00  0.00    +0.094 C 
ATOM      8  C   UNL     1      52.539 157.330  28.953  0.00  0.00    +0.264 C 
ATOM      9  O   UNL     1      53.560 157.605  28.206  0.00  0.00    -0.268 OA
ENDBRANCH   1   8
BRANCH   2  10
ATOM     10  S   UNL     1      50.084 159.915  30.950  0.00  0.00    +0.014 S 
ATOM     11  N   UNL     1      49.950 161.094  29.316  0.00  0.00    -0.204 NA
ATOM     12  C   UNL     1      48.728 161.299  29.329  0.00  0.00    +0.108 C 
ATOM     13  C   UNL     1      47.849 160.771  30.296  0.00  0.00    +0.030 C 
ATOM     14  C   UNL     1      48.378 160.022  31.226  0.00  0.00    +0.059 C 
BRANCH  10  15
ATOM     15  N   UNL     1      51.203 160.732  31.992  0.00  0.00    -0.203 NA
ATOM     16  C   UNL     1      50.750 161.193  33.082  0.00  0.00    +0.129 C 
ENDBRANCH  10  15
BRANCH  14  17
ATOM     17  C   UNL     1      47.691 159.369  32.322  0.00  0.00    +0.050 C 
ATOM     18  S   UNL     1      46.081 159.534  32.496  0.00  0.00    -0.050 S 
ENDBRANCH  14  17
ENDBRANCH   2  10
BRANCH   1  19
ATOM     19  N   UNL     1      52.535 159.722  29.433  0.00  0.00    -0.217 N 
ATOM     20  H   UNL     1      52.155 160.374  28.801  0.00  0.00    +0.173 HD
BRANCH  19  21
ATOM     21  S   UNL     1      53.948 160.156  30.290  0.00  0.00    +0.033 S 
ATOM     22  O   UNL     1      55.212 159.796  29.552  0.00  0.00    -0.158 OA
ATOM     23  O   UNL     1      53.980 161.651  30.552  0.00  0.00    -0.158 OA
ATOM     24  H   UNL     1      53.901 159.456  31.455  0.00  0.00    +0.233 HD
ENDBRANCH  19  21
ENDBRANCH   1  19
TORSDOF 6
