REMARK  Name = =
REMARK  2 active torsions:
REMARK  status: ('A' for Active; 'I' for Inactive)
REMARK    1  A    between atoms: C_1  and  C_7
REMARK    2  A    between atoms: C_4  and  O_13
REMARK                            x       y       z     vdW  Elec       q    Type
REMARK                         _______ _______ _______ _____ _____    ______ ____
ROOT
ATOM      1  C   UNL     1     -10.438  -7.673  21.183  0.00  0.00    +0.005 C 
ATOM      2  C   UNL     1     -10.991  -6.459  20.812  0.00  0.00    +0.001 C 
ATOM      3  C   UNL     1     -11.998  -6.456  19.869  0.00  0.00    +0.036 C 
ATOM      4  C   UNL     1     -12.452  -7.632  19.303  0.00  0.00    +0.134 C 
ATOM      5  C   UNL     1     -11.900  -8.841  19.674  0.00  0.00    +0.036 C 
ATOM      6  C   UNL     1     -10.892  -8.854  20.617  0.00  0.00    +0.001 C 
ENDROOT
BRANCH   1   7
ATOM      7  C   UNL     1      -9.350  -7.700  22.198  0.00  0.00    +0.137 C 
ATOM      8  O   UNL     1      -9.807  -8.391  23.311  0.00  0.00    -0.352 OA
ATOM      9  C   UNL     1      -8.793  -8.393  24.293  0.00  0.00    +0.143 C 
ATOM     10  C   UNL     1      -7.780  -9.421  23.806  0.00  0.00    +0.032 C 
ATOM     11  C   UNL     1      -7.140  -8.833  22.580  0.00  0.00    +0.005 C 
ATOM     12  C   UNL     1      -8.119  -8.294  21.586  0.00  0.00    +0.034 C 
ENDBRANCH   1   7
BRANCH   4  13
ATOM     13  O   UNL     1     -13.468  -7.606  18.356  0.00  0.00    -0.506 OA
ATOM     14  H   UNL     1     -13.773  -8.405  17.974  0.00  0.00    +0.292 HD
ENDBRANCH   4  13
TORSDOF 2
