MODEL 1
REMARK VINA RESULT:    -9.408      0.000      0.000
REMARK INTER + INTRA:         -16.524
REMARK INTER:                 -13.258
REMARK INTRA:                  -3.267
REMARK UNBOUND:                -3.267
REMARK  Name = =
REMARK  8 active torsions:
REMARK  status: ('A' for Active; 'I' for Inactive)
REMARK    1  A    between atoms: C_3  and  C_14
REMARK    2  A    between atoms: C_10  and  C_32
REMARK    3  A    between atoms: C_17  and  O_24
REMARK    4  A    between atoms: C_19  and  O_25
REMARK    5  A    between atoms: O_25  and  N_26
REMARK    6  A    between atoms: C_33  and  S_38
REMARK    7  A    between atoms: S_38  and  C_39
REMARK    8  A    between atoms: C_42  and  O_46
REMARK                            x       y       z     vdW  Elec       q    Type
REMARK                         _______ _______ _______ _____ _____    ______ ____
ROOT
ATOM      1  N   UNL     1       5.689  -4.215  27.066  0.00  0.00    -0.219 NA
ATOM      2  C   UNL     1       5.080  -4.247  28.393  0.00  0.00    +0.093 C 
ATOM      3  C   UNL     1       3.740  -4.986  28.190  0.00  0.00    +0.050 C 
ATOM      4  C   UNL     1       3.738  -6.183  27.449  0.00  0.00    +0.029 C 
ATOM      5  C   UNL     1       5.291  -6.598  27.506  0.00  0.00    +0.022 C 
ATOM      6  C   UNL     1       5.942  -5.569  26.676  0.00  0.00    +0.077 C 
ATOM      7  C   UNL     1       5.577  -5.698  25.246  0.00  0.00    +0.043 C 
ATOM      8  C   UNL     1       4.295  -6.415  25.096  0.00  0.00    -0.025 C 
ATOM      9  C   UNL     1       3.399  -6.658  26.171  0.00  0.00    -0.026 C 
ATOM     10  C   UNL     1       2.318  -7.396  25.867  0.00  0.00    -0.004 C 
ATOM     11  C   UNL     1       2.072  -7.899  24.570  0.00  0.00    -0.000 C 
ATOM     12  C   UNL     1       2.961  -7.634  23.578  0.00  0.00    -0.000 C 
ATOM     13  C   UNL     1       4.068  -6.899  23.826  0.00  0.00    -0.005 C 
ENDROOT
BRANCH   3  14
ATOM     14  C   UNL     1       2.625  -4.150  28.617  0.00  0.00    +0.050 C 
ATOM     15  C   UNL     1       2.022  -3.186  27.915  0.00  0.00    +0.136 C 
ATOM     16  C   UNL     1       0.863  -2.549  28.320  0.00  0.00    +0.045 C 
ATOM     17  C   UNL     1       0.266  -2.901  29.518  0.00  0.00    +0.136 C 
ATOM     18  C   UNL     1       0.852  -3.890  30.285  0.00  0.00    +0.076 C 
ATOM     19  C   UNL     1       1.986  -4.505  29.876  0.00  0.00    +0.172 C 
ATOM     20  C   UNL     1       0.216  -1.494  27.495  0.00  0.00    +0.036 C 
ATOM     21  C   UNL     1       1.152  -0.730  26.630  0.00  0.00    +0.052 C 
ATOM     22  C   UNL     1       2.473  -1.360  26.367  0.00  0.00    +0.206 C 
ATOM     23  O   UNL     1       2.538  -2.738  26.719  0.00  0.00    -0.476 OA
BRANCH  17  24
ATOM     24  O   UNL     1      -0.902  -2.235  29.890  0.00  0.00    -0.506 OA
ATOM     25  H   UNL     1      -1.076  -2.065  30.795  0.00  0.00    +0.292 HD
ENDBRANCH  17  24
BRANCH  19  26
ATOM     26  O   UNL     1       2.580  -5.477  30.597  0.00  0.00    -0.381 OA
BRANCH  26  27
ATOM     27  N   UNL     1       2.326  -6.041  31.771  0.00  0.00    -0.123 N 
ATOM     28  C   UNL     1       1.399  -7.121  32.067  0.00  0.00    +0.137 C 
ATOM     29  C   UNL     1       0.978  -6.885  33.519  0.00  0.00    +0.035 C 
ATOM     30  C   UNL     1       1.783  -5.698  34.015  0.00  0.00    +0.090 C 
ATOM     31  C   UNL     1       2.918  -5.686  33.061  0.00  0.00    +0.257 C 
ATOM     32  O   UNL     1       4.143  -5.439  33.243  0.00  0.00    -0.272 OA
ENDBRANCH  26  27
ENDBRANCH  19  26
ENDBRANCH   3  14
BRANCH  10  33
ATOM     33  C   UNL     1       1.294  -7.765  26.805  0.00  0.00    +0.006 C 
ATOM     34  C   UNL     1       1.084  -9.008  27.312  0.00  0.00    +0.029 C 
ATOM     35  C   UNL     1      -0.000  -9.266  28.175  0.00  0.00    +0.006 C 
ATOM     36  C   UNL     1      -0.869  -8.265  28.521  0.00  0.00    +0.001 C 
ATOM     37  C   UNL     1      -0.648  -7.014  28.002  0.00  0.00    +0.000 C 
ATOM     38  C   UNL     1       0.405  -6.775  27.168  0.00  0.00    +0.000 C 
BRANCH  34  39
ATOM     39  S   UNL     1       2.151 -10.356  26.904  0.00  0.00    -0.087 S 
BRANCH  39  40
ATOM     40  C   UNL     1       1.290 -11.499  25.821  0.00  0.00    +0.030 C 
ATOM     41  C   UNL     1       0.952 -11.147  24.541  0.00  0.00    +0.016 C 
ATOM     42  C   UNL     1       0.300 -12.049  23.733  0.00  0.00    +0.069 C 
ATOM     43  C   UNL     1      -0.044 -13.312  24.138  0.00  0.00    +0.140 C 
ATOM     44  C   UNL     1       0.301 -13.664  25.439  0.00  0.00    +0.038 C 
ATOM     45  C   UNL     1       0.959 -12.766  26.262  0.00  0.00    +0.010 C 
ATOM     46 BR   UNL     1      -0.157 -11.556  21.928  0.00  0.00    -0.046 Br
BRANCH  43  47
ATOM     47  O   UNL     1      -0.701 -14.190  23.294  0.00  0.00    -0.505 OA
ATOM     48  H   UNL     1      -0.355 -15.048  23.150  0.00  0.00    +0.292 HD
ENDBRANCH  43  47
ENDBRANCH  39  40
ENDBRANCH  34  39
ENDBRANCH  10  33
TORSDOF 8
ENDMDL
