MODEL 1
REMARK VINA RESULT:    -6.838      0.000      0.000
REMARK INTER + INTRA:         -12.403
REMARK INTER:                 -11.635
REMARK INTRA:                  -0.768
REMARK UNBOUND:                -0.768
REMARK  Name = =
REMARK  13 active torsions:
REMARK  status: ('A' for Active; 'I' for Inactive)
REMARK    1  A    between atoms: C_4  and  N_8
REMARK    2  A    between atoms: C_4  and  S_14
REMARK    3  A    between atoms: S_5  and  C_17
REMARK    4  A    between atoms: C_6  and  S_22
REMARK    5  A    between atoms: C_7  and  O_25
REMARK    6  A    between atoms: N_8  and  N_12
REMARK    7  A    between atoms: S_14  and  C_15
REMARK    8  A    between atoms: C_15  and  N_16
REMARK    9  A    between atoms: C_18  and  C_19
REMARK   10  A    between atoms: C_19  and  O_21
REMARK   11  A    between atoms: S_22  and  C_23
REMARK   12  A    between atoms: O_25  and  S_26
REMARK   13  A    between atoms: S_26  and  N_29
REMARK                            x       y       z     vdW  Elec       q    Type
REMARK                         _______ _______ _______ _____ _____    ______ ____
ROOT
ATOM      1  N   UNL     1      -0.132  -5.094  29.627  0.00  0.00    -0.250 N 
ATOM      2  C   UNL     1       0.967  -4.229  29.919  0.00  0.00    +0.119 C 
ATOM      3  C   UNL     1       1.922  -5.345  29.975  0.00  0.00    +0.079 C 
ATOM      4  C   UNL     1       0.687  -6.211  30.111  0.00  0.00    +0.176 C 
ATOM      5  S   UNL     1       0.931  -3.316  28.358  0.00  0.00    -0.162 S 
ATOM      6  C   UNL     1      -1.037  -3.439  28.356  0.00  0.00    +0.095 C 
ATOM      7  C   UNL     1      -1.257  -4.455  29.102  0.00  0.00    +0.239 C 
ATOM      8  H   UNL     1       1.681  -3.686  27.285  0.00  0.00    +0.094 HD
ENDROOT
BRANCH   4   9
ATOM      9  N   UNL     1       0.291  -6.553  31.439  0.00  0.00    -0.143 N 
ATOM     10  C   UNL     1       1.180  -6.792  32.502  0.00  0.00    +0.319 C 
ATOM     11  O   UNL     1       0.751  -7.087  33.638  0.00  0.00    -0.251 OA
ATOM     12  N   UNL     1       2.572  -6.691  32.260  0.00  0.00    -0.312 N 
ATOM     13  H   UNL     1       2.900  -6.458  31.362  0.00  0.00    +0.147 HD
ATOM     14  H   UNL     1       3.212  -6.854  32.990  0.00  0.00    +0.147 HD
BRANCH   9  15
ATOM     15  N   UNL     1      -1.084  -6.663  31.703  0.00  0.00    +0.056 NA
ATOM     16  O   UNL     1      -1.673  -7.766  31.637  0.00  0.00    -0.078 OA
ENDBRANCH   9  15
ENDBRANCH   4   9
BRANCH   4  17
ATOM     17  S   UNL     1       0.796  -7.624  28.972  0.00  0.00    -0.155 S 
ATOM     18  H   UNL     1       1.505  -8.579  29.631  0.00  0.00    +0.097 HD
BRANCH  17  19
ATOM     19  C   UNL     1      -0.498  -8.378  28.359  0.00  0.00    +0.114 C 
BRANCH  19  20
ATOM     20  N   UNL     1      -1.799  -7.986  28.728  0.00  0.00    -0.313 NA
ATOM     21  H   UNL     1      -2.033  -8.393  29.634  0.00  0.00    +0.120 HD
ATOM     22  H   UNL     1      -2.464  -8.313  28.027  0.00  0.00    +0.120 HD
ENDBRANCH  19  20
ENDBRANCH  17  19
ENDBRANCH   4  17
BRANCH   5  23
ATOM     23  C   UNL     1       1.327  -1.504  28.820  0.00  0.00    +0.023 C 
ATOM     24  C   UNL     1       1.671  -0.735  27.859  0.00  0.00    +0.087 C 
BRANCH  24  25
ATOM     25  C   UNL     1       1.788  -1.107  26.471  0.00  0.00    +0.339 C 
ATOM     26  O   UNL     1       0.800  -0.926  25.675  0.00  0.00    -0.245 OA
BRANCH  25  27
ATOM     27  O   UNL     1       2.918  -1.654  25.956  0.00  0.00    -0.477 OA
ATOM     28  H   UNL     1       3.637  -1.104  25.716  0.00  0.00    +0.295 HD
ENDBRANCH  25  27
ENDBRANCH  24  25
ENDBRANCH   5  23
BRANCH   6  29
ATOM     29  S   UNL     1      -1.971  -2.279  27.441  0.00  0.00    -0.032 S 
BRANCH  29  30
ATOM     30  C   UNL     1      -2.178  -0.720  28.281  0.00  0.00    +0.271 C 
ATOM     31  O   UNL     1      -2.609  -0.672  29.400  0.00  0.00    -0.275 OA
ENDBRANCH  29  30
ENDBRANCH   6  29
BRANCH   7  32
ATOM     32  O   UNL     1      -2.620  -4.866  29.350  0.00  0.00    -0.330 OA
BRANCH  32  33
ATOM     33  S   UNL     1      -3.422  -4.226  30.711  0.00  0.00    +0.107 S 
ATOM     34  O   UNL     1      -2.615  -3.085  31.310  0.00  0.00    -0.042 OA
ATOM     35  O   UNL     1      -4.714  -3.603  30.254  0.00  0.00    -0.042 OA
BRANCH  33  36
ATOM     36  N   UNL     1      -3.715  -5.423  31.897  0.00  0.00    -0.169 N 
ATOM     37  C   UNL     1      -4.109  -4.989  33.192  0.00  0.00    +0.320 C 
ATOM     38  O   UNL     1      -4.250  -3.775  33.492  0.00  0.00    -0.263 OA
ATOM     39  H   UNL     1      -3.614  -6.380  31.689  0.00  0.00    +0.178 HD
ENDBRANCH  33  36
ENDBRANCH  32  33
ENDBRANCH   7  32
TORSDOF 13
ENDMDL
