REMARK  Name = =
REMARK  0 active torsions:
REMARK  status: ('A' for Active; 'I' for Inactive)
REMARK                            x       y       z     vdW  Elec       q    Type
REMARK                         _______ _______ _______ _____ _____    ______ ____
ROOT
ATOM      1  N   UNL     1      49.856 156.709  29.698  0.00  0.00    -0.313 N 
ATOM      2  C   UNL     1      49.740 158.013  30.280  0.00  0.00    +0.044 C 
ATOM      3  C   UNL     1      50.593 159.088  30.026  0.00  0.00    -0.008 C 
ATOM      4  C   UNL     1      50.301 160.258  30.694  0.00  0.00    -0.003 C 
ATOM      5  C   UNL     1      49.241 160.391  31.566  0.00  0.00    -0.000 C 
ATOM      6  C   UNL     1      48.411 159.299  31.798  0.00  0.00    +0.001 C 
ATOM      7  C   UNL     1      48.671 158.113  31.148  0.00  0.00    +0.014 C 
ATOM      8  C   UNL     1      51.769 159.205  29.158  0.00  0.00    +0.032 C 
ATOM      9  C   UNL     1      52.729 158.050  29.276  0.00  0.00    +0.032 C 
ATOM     10  C   UNL     1      52.171 156.775  28.793  0.00  0.00    -0.008 C 
ATOM     11  C   UNL     1      50.930 156.180  28.968  0.00  0.00    +0.044 C 
ATOM     12  C   UNL     1      50.604 154.968  28.427  0.00  0.00    +0.014 C 
ATOM     13  C   UNL     1      51.519 154.271  27.667  0.00  0.00    +0.001 C 
ATOM     14  C   UNL     1      52.752 154.833  27.477  0.00  0.00    -0.000 C 
ATOM     15  C   UNL     1      53.080 156.062  28.027  0.00  0.00    -0.003 C 
ATOM     16  H   UNL     1      49.086 156.110  29.827  0.00  0.00    +0.152 HD
ENDROOT
TORSDOF 0
