REMARK  Name = =
REMARK  0 active torsions:
REMARK  status: ('A' for Active; 'I' for Inactive)
REMARK                            x       y       z     vdW  Elec       q    Type
REMARK                         _______ _______ _______ _____ _____    ______ ____
ROOT
ATOM      1  C   UNL     1      52.071 155.930  28.474  0.00  0.00    -0.031 C 
ATOM      2  C   UNL     1      50.878 155.611  28.973  0.00  0.00    -0.031 C 
ATOM      3  C   UNL     1      50.424 156.431  30.147  0.00  0.00    +0.026 C 
ATOM      4  C   UNL     1      50.561 157.907  29.884  0.00  0.00    +0.005 C 
ATOM      5  C   UNL     1      51.849 158.229  29.214  0.00  0.00    +0.005 C 
ATOM      6  C   UNL     1      52.798 157.044  29.128  0.00  0.00    +0.026 C 
ENDROOT
TORSDOF 0
