REMARK  Name = =
REMARK  2 active torsions:
REMARK  status: ('A' for Active; 'I' for Inactive)
REMARK    1  A    between atoms: N_1  and  N_16
REMARK    2  A    between atoms: C_17  and  C_19
REMARK                            x       y       z     vdW  Elec       q    Type
REMARK                         _______ _______ _______ _____ _____    ______ ____
ROOT
ATOM      1  N   UNL     1      50.536 157.171  30.114  0.00  0.00    -0.217 N 
ATOM      2  C   UNL     1      50.198 158.393  30.735  0.00  0.00    +0.070 C 
ATOM      3  C   UNL     1      50.849 159.590  30.586  0.00  0.00    +0.015 C 
ATOM      4  C   UNL     1      50.319 160.648  31.315  0.00  0.00    +0.001 C 
ATOM      5  C   UNL     1      49.225 160.522  32.127  0.00  0.00    +0.000 C 
ATOM      6  C   UNL     1      48.603 159.301  32.245  0.00  0.00    +0.001 C 
ATOM      7  C   UNL     1      49.099 158.237  31.544  0.00  0.00    +0.016 C 
ATOM      8  C   UNL     1      51.998 160.067  29.831  0.00  0.00    +0.001 C 
ATOM      9  C   UNL     1      52.453 159.339  28.655  0.00  0.00    +0.001 C 
ATOM     10  C   UNL     1      52.304 157.904  28.528  0.00  0.00    +0.015 C 
ATOM     11  C   UNL     1      51.538 156.909  29.113  0.00  0.00    +0.070 C 
ATOM     12  C   UNL     1      51.647 155.590  28.776  0.00  0.00    +0.016 C 
ATOM     13  C   UNL     1      52.547 155.180  27.812  0.00  0.00    +0.001 C 
ATOM     14  C   UNL     1      53.332 156.123  27.198  0.00  0.00    +0.000 C 
ATOM     15  C   UNL     1      53.206 157.446  27.555  0.00  0.00    +0.001 C 
ENDROOT
BRANCH   1  16
ATOM     16  N   UNL     1      49.812 156.058  30.526  0.00  0.00    -0.225 N 
ATOM     17  C   UNL     1      48.725 155.482  29.810  0.00  0.00    +0.262 C 
ATOM     18  O   UNL     1      48.352 155.991  28.713  0.00  0.00    -0.269 OA
ATOM     19  H   UNL     1      50.071 155.636  31.377  0.00  0.00    +0.174 HD
BRANCH  17  20
ATOM     20  C   UNL     1      48.061 154.305  30.373  0.00  0.00    +0.059 C 
ATOM     21  C   UNL     1      47.088 153.691  29.736  0.00  0.00    +0.005 C 
ENDBRANCH  17  20
ENDBRANCH   1  16
TORSDOF 2
