REMARK  Name = =
REMARK  2 active torsions:
REMARK  status: ('A' for Active; 'I' for Inactive)
REMARK    1  A    between atoms: N_1  and  C_7
REMARK    2  A    between atoms: C_8  and  C_13
REMARK                            x       y       z     vdW  Elec       q    Type
REMARK                         _______ _______ _______ _____ _____    ______ ____
ROOT
ATOM      1  N   UNL     1      52.698 154.972  27.706  0.00  0.00    -0.208 N 
ATOM      2  C   UNL     1      53.279 153.659  27.849  0.00  0.00    +0.307 C 
ATOM      3  O   UNL     1      53.091 152.954  28.853  0.00  0.00    -0.252 OA
ATOM      4  N   UNL     1      54.099 153.138  26.819  0.00  0.00    -0.313 N 
ATOM      5  C   UNL     1      52.771 155.514  26.376  0.00  0.00    +0.310 C 
ATOM      6  O   UNL     1      52.071 156.430  25.910  0.00  0.00    -0.264 OA
ATOM      7  H   UNL     1      54.269 153.670  26.009  0.00  0.00    +0.146 HD
ATOM      8  H   UNL     1      54.499 152.243  26.913  0.00  0.00    +0.146 HD
ENDROOT
BRANCH   1   9
ATOM      9  C   UNL     1      51.873 155.546  28.665  0.00  0.00    +0.092 C 
ATOM     10  C   UNL     1      51.891 156.838  28.921  0.00  0.00    +0.084 C 
ATOM     11  C   UNL     1      50.898 157.344  29.987  0.00  0.00    +0.009 C 
ATOM     12  C   UNL     1      49.541 156.870  29.559  0.00  0.00    +0.001 C 
ATOM     13  C   UNL     1      49.528 155.426  29.160  0.00  0.00    +0.002 C 
ATOM     14  C   UNL     1      50.864 154.730  29.474  0.00  0.00    +0.021 C 
BRANCH  10  15
ATOM     15  C   UNL     1      52.900 157.800  28.546  0.00  0.00    +0.209 C 
ATOM     16  O   UNL     1      54.003 157.511  28.041  0.00  0.00    -0.288 OA
ENDBRANCH  10  15
ENDBRANCH   1   9
TORSDOF 2
