REMARK  Name = =
REMARK  4 active torsions:
REMARK  status: ('A' for Active; 'I' for Inactive)
REMARK    1  A    between atoms: N_1  and  C_15
REMARK    2  A    between atoms: C_5  and  C_7
REMARK    3  A    between atoms: C_10  and  O_14
REMARK    4  A    between atoms: C_16  and  C_21
REMARK                            x       y       z     vdW  Elec       q    Type
REMARK                         _______ _______ _______ _____ _____    ______ ____
ROOT
ATOM      1  N   UNL     1      52.405 155.186  27.514  0.00  0.00    -0.212 N 
ATOM      2  C   UNL     1      52.567 155.641  26.201  0.00  0.00    +0.307 C 
ATOM      3  O   UNL     1      52.077 156.761  25.847  0.00  0.00    -0.252 OA
ATOM      4  N   UNL     1      53.268 154.920  25.189  0.00  0.00    -0.313 N 
ATOM      5  C   UNL     1      52.846 153.853  27.822  0.00  0.00    +0.258 C 
ATOM      6  O   UNL     1      52.772 153.513  29.053  0.00  0.00    -0.269 OA
ATOM      7  H   UNL     1      53.671 154.046  25.397  0.00  0.00    +0.146 HD
ATOM      8  H   UNL     1      53.348 155.296  24.283  0.00  0.00    +0.146 HD
ENDROOT
BRANCH   5   9
ATOM      9  C   UNL     1      53.350 152.886  26.894  0.00  0.00    +0.082 C 
ATOM     10  C   UNL     1      52.548 151.812  26.520  0.00  0.00    +0.147 C 
ATOM     11  C   UNL     1      52.957 150.831  25.649  0.00  0.00    +0.066 C 
ATOM     12  C   UNL     1      54.216 150.888  25.105  0.00  0.00    +0.136 C 
ATOM     13  C   UNL     1      55.035 151.948  25.461  0.00  0.00    +0.037 C 
ATOM     14  C   UNL     1      54.599 152.919  26.337  0.00  0.00    +0.010 C 
ATOM     15  F   UNL     1      51.292 151.707  27.031  0.00  0.00    -0.204 F 
BRANCH  12  16
ATOM     16  O   UNL     1      54.679 149.924  24.221  0.00  0.00    -0.505 OA
ATOM     17  H   UNL     1      55.544 149.990  23.866  0.00  0.00    +0.292 HD
ENDBRANCH  12  16
ENDBRANCH   5   9
BRANCH   1  18
ATOM     18  C   UNL     1      51.887 155.987  28.540  0.00  0.00    +0.091 C 
ATOM     19  C   UNL     1      52.158 157.213  28.818  0.00  0.00    +0.084 C 
ATOM     20  C   UNL     1      51.439 157.903  29.973  0.00  0.00    +0.009 C 
ATOM     21  C   UNL     1      49.975 157.632  29.954  0.00  0.00    +0.001 C 
ATOM     22  C   UNL     1      49.626 156.239  29.563  0.00  0.00    +0.002 C 
ATOM     23  C   UNL     1      50.834 155.329  29.404  0.00  0.00    +0.021 C 
BRANCH  19  24
ATOM     24  C   UNL     1      53.318 157.929  28.349  0.00  0.00    +0.209 C 
ATOM     25  O   UNL     1      54.268 157.431  27.747  0.00  0.00    -0.288 OA
ENDBRANCH  19  24
ENDBRANCH   1  18
TORSDOF 4
