REMARK  Name = =
REMARK  4 active torsions:
REMARK  status: ('A' for Active; 'I' for Inactive)
REMARK    1  A    between atoms: N_1  and  C_15
REMARK    2  A    between atoms: C_5  and  C_7
REMARK    3  A    between atoms: C_10  and  O_14
REMARK    4  A    between atoms: C_16  and  C_21
REMARK                            x       y       z     vdW  Elec       q    Type
REMARK                         _______ _______ _______ _____ _____    ______ ____
ROOT
ATOM      1  N   UNL     1      52.381 154.361  27.838  0.00  0.00    -0.212 N 
ATOM      2  C   UNL     1      53.406 153.644  28.479  0.00  0.00    +0.307 C 
ATOM      3  O   UNL     1      54.074 152.771  27.883  0.00  0.00    -0.252 OA
ATOM      4  N   UNL     1      53.732 153.849  29.840  0.00  0.00    -0.313 N 
ATOM      5  C   UNL     1      52.075 153.904  26.491  0.00  0.00    +0.258 C 
ATOM      6  O   UNL     1      51.219 154.526  25.843  0.00  0.00    -0.269 OA
ATOM      7  H   UNL     1      53.244 154.522  30.367  0.00  0.00    +0.146 HD
ATOM      8  H   UNL     1      54.447 153.319  30.260  0.00  0.00    +0.146 HD
ENDROOT
BRANCH   5   9
ATOM      9  C   UNL     1      52.729 152.758  25.888  0.00  0.00    +0.082 C 
ATOM     10  C   UNL     1      52.474 151.494  26.376  0.00  0.00    +0.147 C 
ATOM     11  C   UNL     1      53.089 150.376  25.810  0.00  0.00    +0.066 C 
ATOM     12  C   UNL     1      53.957 150.515  24.759  0.00  0.00    +0.136 C 
ATOM     13  C   UNL     1      54.221 151.770  24.263  0.00  0.00    +0.037 C 
ATOM     14  C   UNL     1      53.606 152.878  24.831  0.00  0.00    +0.010 C 
ATOM     15  F   UNL     1      51.625 151.351  27.404  0.00  0.00    -0.204 F 
BRANCH  12  16
ATOM     16  O   UNL     1      54.578 149.390  24.187  0.00  0.00    -0.505 OA
ATOM     17  H   UNL     1      54.399 148.534  24.524  0.00  0.00    +0.292 HD
ENDBRANCH  12  16
ENDBRANCH   5   9
BRANCH   1  18
ATOM     18  C   UNL     1      51.674 155.476  28.349  0.00  0.00    +0.093 C 
ATOM     19  C   UNL     1      52.221 156.645  28.443  0.00  0.00    +0.095 C 
ATOM     20  C   UNL     1      51.360 157.758  29.054  0.00  0.00    +0.011 C 
ATOM     21  C   UNL     1      50.579 157.250  30.227  0.00  0.00    +0.001 C 
ATOM     22  C   UNL     1      49.811 156.017  29.955  0.00  0.00    +0.002 C 
ATOM     23  C   UNL     1      50.279 155.187  28.796  0.00  0.00    +0.021 C 
BRANCH  19  24
ATOM     24  C   UNL     1      53.367 157.166  27.746  0.00  0.00    +0.221 C 
ATOM     25  O   UNL     1      54.153 157.947  28.359  0.00  0.00    -0.275 OA
ATOM     26  N   UNL     1      53.678 156.887  26.409  0.00  0.00    -0.329 N 
ATOM     27  H   UNL     1      53.101 156.286  25.884  0.00  0.00    +0.145 HD
ATOM     28  H   UNL     1      54.474 157.292  25.994  0.00  0.00    +0.145 HD
ENDBRANCH  19  24
ENDBRANCH   1  18
TORSDOF 4
