REMARK  Name = =
REMARK  7 active torsions:
REMARK  status: ('A' for Active; 'I' for Inactive)
REMARK    1  A    between atoms: C_1  and  N_7
REMARK    2  A    between atoms: C_2  and  C_31
REMARK    3  A    between atoms: C_4  and  C_21
REMARK    4  A    between atoms: C_11  and  C_13
REMARK    5  A    between atoms: C_16  and  O_20
REMARK    6  A    between atoms: C_23  and  C_27
REMARK    7  A    between atoms: C_24  and  O_30
REMARK                            x       y       z     vdW  Elec       q    Type
REMARK                         _______ _______ _______ _____ _____    ______ ____
ROOT
ATOM      1  C   UNL     1      51.742 155.088  27.945  0.00  0.00    +0.040 C 
ATOM      2  C   UNL     1      52.138 156.314  27.661  0.00  0.00    +0.041 C 
ATOM      3  C   UNL     1      51.306 157.436  28.250  0.00  0.00    +0.036 C 
ATOM      4  C   UNL     1      51.157 157.252  29.733  0.00  0.00    +0.027 C 
ATOM      5  C   UNL     1      50.813 155.814  30.074  0.00  0.00    +0.011 C 
ATOM      6  C   UNL     1      50.478 155.084  28.802  0.00  0.00    +0.042 C 
ENDROOT
BRANCH   1   7
ATOM      7  N   UNL     1      52.314 153.897  27.508  0.00  0.00    -0.193 N 
ATOM      8  C   UNL     1      52.637 152.828  28.368  0.00  0.00    +0.310 C 
ATOM      9  O   UNL     1      53.150 151.763  27.889  0.00  0.00    -0.252 OA
ATOM     10  N   UNL     1      52.427 152.858  29.760  0.00  0.00    -0.313 N 
ATOM     11  C   UNL     1      52.326 153.562  26.104  0.00  0.00    +0.262 C 
ATOM     12  O   UNL     1      51.727 154.341  25.320  0.00  0.00    -0.269 OA
ATOM     13  H   UNL     1      52.034 153.656  30.181  0.00  0.00    +0.147 HD
ATOM     14  H   UNL     1      52.673 152.081  30.312  0.00  0.00    +0.147 HD
BRANCH  11  15
ATOM     15  C   UNL     1      53.000 152.364  25.589  0.00  0.00    +0.082 C 
ATOM     16  C   UNL     1      54.157 152.347  24.863  0.00  0.00    +0.147 C 
ATOM     17  C   UNL     1      54.692 151.134  24.400  0.00  0.00    +0.066 C 
ATOM     18  C   UNL     1      54.077 149.930  24.658  0.00  0.00    +0.136 C 
ATOM     19  C   UNL     1      52.911 149.952  25.390  0.00  0.00    +0.037 C 
ATOM     20  C   UNL     1      52.381 151.139  25.847  0.00  0.00    +0.010 C 
ATOM     21  F   UNL     1      54.782 153.496  24.599  0.00  0.00    -0.204 F 
BRANCH  18  22
ATOM     22  O   UNL     1      54.626 148.725  24.186  0.00  0.00    -0.505 OA
ATOM     23  H   UNL     1      55.421 148.735  23.690  0.00  0.00    +0.292 HD
ENDBRANCH  18  22
ENDBRANCH  11  15
ENDBRANCH   1   7
BRANCH   4  24
ATOM     24  C   UNL     1      50.207 158.224  30.275  0.00  0.00    -0.022 C 
ATOM     25  C   UNL     1      50.693 159.368  30.914  0.00  0.00    +0.003 C 
ATOM     26  C   UNL     1      49.829 160.288  31.425  0.00  0.00    +0.086 C 
ATOM     27  C   UNL     1      48.453 160.078  31.306  0.00  0.00    +0.138 C 
ATOM     28  C   UNL     1      47.955 158.964  30.684  0.00  0.00    +0.036 C 
ATOM     29  C   UNL     1      48.840 158.040  30.170  0.00  0.00    -0.001 C 
BRANCH  26  30
ATOM     30  C   UNL     1      50.325 161.488  32.096  0.00  0.00    +0.246 C 
ATOM     31  O   UNL     1      49.497 162.237  32.700  0.00  0.00    -0.270 OA
ATOM     32  N   UNL     1      51.712 161.784  32.053  0.00  0.00    -0.325 N 
ATOM     33  H   UNL     1      52.329 161.183  31.576  0.00  0.00    +0.145 HD
ATOM     34  H   UNL     1      52.057 162.590  32.500  0.00  0.00    +0.145 HD
ENDBRANCH  26  30
BRANCH  27  35
ATOM     35  O   UNL     1      47.599 161.034  31.838  0.00  0.00    -0.505 OA
ATOM     36  H   UNL     1      47.950 161.792  32.261  0.00  0.00    +0.292 HD
ENDBRANCH  27  35
ENDBRANCH   4  24
BRANCH   2  37
ATOM     37  C   UNL     1      53.415 156.613  27.071  0.00  0.00    +0.240 C 
ATOM     38  O   UNL     1      54.258 155.896  26.530  0.00  0.00    -0.271 OA
ATOM     39  N   UNL     1      53.793 158.020  27.114  0.00  0.00    -0.326 N 
ATOM     40  H   UNL     1      53.189 158.680  27.526  0.00  0.00    +0.145 HD
ATOM     41  H   UNL     1      54.652 158.311  26.731  0.00  0.00    +0.145 HD
ENDBRANCH   2  37
TORSDOF 7
