REMARK  Name = =
REMARK  10 active torsions:
REMARK  status: ('A' for Active; 'I' for Inactive)
REMARK    1  A    between atoms: C_1  and  N_7
REMARK    2  A    between atoms: C_2  and  C_31
REMARK    3  A    between atoms: C_4  and  C_21
REMARK    4  A    between atoms: C_11  and  C_13
REMARK    5  A    between atoms: C_16  and  O_20
REMARK    6  A    between atoms: C_23  and  C_27
REMARK    7  A    between atoms: C_24  and  O_30
REMARK    8  A    between atoms: N_33  and  O_34
REMARK    9  A    between atoms: O_34  and  S_35
REMARK   10  A    between atoms: S_35  and  O_37
REMARK                            x       y       z     vdW  Elec       q    Type
REMARK                         _______ _______ _______ _____ _____    ______ ____
ROOT
ATOM      1  C   UNL     1      52.270 155.043  27.824  0.00  0.00    +0.093 C 
ATOM      2  C   UNL     1      52.505 156.186  27.229  0.00  0.00    +0.097 C 
ATOM      3  C   UNL     1      51.697 157.389  27.766  0.00  0.00    +0.015 C 
ATOM      4  C   UNL     1      52.052 157.388  29.228  0.00  0.00    +0.023 C 
ATOM      5  C   UNL     1      51.596 156.157  29.894  0.00  0.00    +0.006 C 
ATOM      6  C   UNL     1      51.259 155.044  28.953  0.00  0.00    +0.021 C 
ENDROOT
BRANCH   1   7
ATOM      7  N   UNL     1      52.924 153.809  27.516  0.00  0.00    -0.212 N 
ATOM      8  C   UNL     1      53.932 153.210  28.272  0.00  0.00    +0.307 C 
ATOM      9  O   UNL     1      54.249 153.646  29.405  0.00  0.00    -0.252 OA
ATOM     10  N   UNL     1      54.653 152.093  27.818  0.00  0.00    -0.313 N 
ATOM     11  C   UNL     1      52.536 153.210  26.283  0.00  0.00    +0.258 C 
ATOM     12  O   UNL     1      51.700 153.829  25.541  0.00  0.00    -0.269 OA
ATOM     13  H   UNL     1      54.452 151.703  26.937  0.00  0.00    +0.146 HD
ATOM     14  H   UNL     1      55.359 151.701  28.381  0.00  0.00    +0.146 HD
BRANCH  11  15
ATOM     15  C   UNL     1      52.986 151.951  25.757  0.00  0.00    +0.082 C 
ATOM     16  C   UNL     1      52.439 150.773  26.263  0.00  0.00    +0.147 C 
ATOM     17  C   UNL     1      52.811 149.540  25.788  0.00  0.00    +0.066 C 
ATOM     18  C   UNL     1      53.766 149.445  24.765  0.00  0.00    +0.136 C 
ATOM     19  C   UNL     1      54.276 150.616  24.297  0.00  0.00    +0.037 C 
ATOM     20  C   UNL     1      53.920 151.858  24.757  0.00  0.00    +0.010 C 
ATOM     21  F   UNL     1      51.510 150.804  27.257  0.00  0.00    -0.204 F 
BRANCH  18  22
ATOM     22  O   UNL     1      54.177 148.220  24.248  0.00  0.00    -0.505 OA
ATOM     23  H   UNL     1      53.814 147.424  24.584  0.00  0.00    +0.292 HD
ENDBRANCH  18  22
ENDBRANCH  11  15
ENDBRANCH   1   7
BRANCH   4  24
ATOM     24  C   UNL     1      51.602 158.636  29.905  0.00  0.00    -0.022 C 
ATOM     25  C   UNL     1      50.304 158.823  30.284  0.00  0.00    +0.003 C 
ATOM     26  C   UNL     1      49.821 159.974  30.918  0.00  0.00    +0.086 C 
ATOM     27  C   UNL     1      50.742 160.972  31.166  0.00  0.00    +0.138 C 
ATOM     28  C   UNL     1      52.083 160.814  30.791  0.00  0.00    +0.036 C 
ATOM     29  C   UNL     1      52.490 159.667  30.175  0.00  0.00    -0.001 C 
BRANCH  26  30
ATOM     30  C   UNL     1      48.428 160.075  31.281  0.00  0.00    +0.246 C 
ATOM     31  O   UNL     1      47.963 160.906  32.060  0.00  0.00    -0.270 OA
ATOM     32  N   UNL     1      47.493 159.151  30.704  0.00  0.00    -0.325 N 
ATOM     33  H   UNL     1      47.806 158.463  30.073  0.00  0.00    +0.145 HD
ATOM     34  H   UNL     1      46.538 159.205  30.939  0.00  0.00    +0.145 HD
ENDBRANCH  26  30
BRANCH  27  35
ATOM     35  O   UNL     1      50.414 162.141  31.774  0.00  0.00    -0.505 OA
ATOM     36  H   UNL     1      49.531 162.297  32.045  0.00  0.00    +0.292 HD
ENDBRANCH  27  35
ENDBRANCH   4  24
BRANCH   2  37
ATOM     37  C   UNL     1      53.177 156.332  25.969  0.00  0.00    +0.247 C 
ATOM     38  O   UNL     1      52.799 156.979  24.954  0.00  0.00    -0.273 OA
ATOM     39  N   UNL     1      54.451 155.686  25.752  0.00  0.00    -0.168 N 
ATOM     40  H   UNL     1      54.862 155.144  26.464  0.00  0.00    +0.185 HD
BRANCH  39  41
ATOM     41  O   UNL     1      55.083 155.837  24.539  0.00  0.00    -0.115 OA
BRANCH  41  42
ATOM     42  S   UNL     1      55.341 154.268  23.938  0.00  0.00    +0.161 S 
ATOM     43  O   UNL     1      56.355 153.563  24.803  0.00  0.00    -0.135 OA
BRANCH  42  44
ATOM     44  O   UNL     1      55.801 154.300  22.302  0.00  0.00    -0.244 OA
ATOM     45  H   UNL     1      55.123 154.761  21.784  0.00  0.00    +0.245 HD
ENDBRANCH  42  44
ENDBRANCH  41  42
ENDBRANCH  39  41
ENDBRANCH   2  37
TORSDOF 10
