REMARK  Name = =
REMARK  0 active torsions:
REMARK  status: ('A' for Active; 'I' for Inactive)
REMARK                            x       y       z     vdW  Elec       q    Type
REMARK                         _______ _______ _______ _____ _____    ______ ____
ROOT
ATOM      1  C   UNL     1      52.482 156.487  28.548  0.00  0.00    +0.167 C 
ATOM      2  C   UNL     1      51.511 155.938  29.239  0.00  0.00    +0.034 C 
ATOM      3  F   UNL     1      52.515 156.429  27.178  0.00  0.00    -0.202 F 
ENDROOT
TORSDOF 0
