REMARK  Name = =
REMARK  2 active torsions:
REMARK  status: ('A' for Active; 'I' for Inactive)
REMARK    1  A    between atoms: N_1  and  O_2
REMARK    2  A    between atoms: N_1  and  C_3
REMARK                            x       y       z     vdW  Elec       q    Type
REMARK                         _______ _______ _______ _____ _____    ______ ____
ROOT
ATOM      1  N   UNL     1      51.302 154.402  27.261  0.00  0.00    -0.194 NA
ATOM      2  H   UNL     1      51.264 155.150  26.568  0.00  0.00    +0.154 HD
ENDROOT
BRANCH   1   3
ATOM      3  O   UNL     1      51.676 153.292  26.638  0.00  0.00    -0.314 OA
ATOM      4  H   UNL     1      51.720 152.562  27.276  0.00  0.00    +0.236 HD
ENDBRANCH   1   3
BRANCH   1   5
ATOM      5  C   UNL     1      52.139 154.841  28.328  0.00  0.00    +0.096 C 
ATOM      6  C   UNL     1      51.246 155.604  29.301  0.00  0.00    +0.021 C 
ENDBRANCH   1   5
TORSDOF 2
