REMARK  Name = =
REMARK  2 active torsions:
REMARK  status: ('A' for Active; 'I' for Inactive)
REMARK    1  A    between atoms: S_1  and  C_2
REMARK    2  A    between atoms: S_1  and  C_5
REMARK                            x       y       z     vdW  Elec       q    Type
REMARK                         _______ _______ _______ _____ _____    ______ ____
ROOT
ATOM      1  S   UNL     1      39.455 160.484  24.047  0.00  0.00    +0.021 S 
ENDROOT
BRANCH   1   2
ATOM      2  C   UNL     1      41.179 160.873  24.252  0.00  0.00    +0.179 C 
ATOM      3  C   UNL     1      41.983 159.892  24.667  0.00  0.00    +0.040 C 
ATOM      4  F   UNL     1      41.682 162.119  24.001  0.00  0.00    -0.196 F 
ENDBRANCH   1   2
BRANCH   1   5
ATOM      5  C   UNL     1      38.652 160.612  25.616  0.00  0.00    +0.140 C 
ATOM      6  N   UNL     1      38.111 160.688  26.639  0.00  0.00    -0.183 NA
ENDBRANCH   1   5
TORSDOF 2
