REMARK  Name = =
REMARK  3 active torsions:
REMARK  status: ('A' for Active; 'I' for Inactive)
REMARK    1  A    between atoms: C_2  and  N_12
REMARK    2  A    between atoms: N_12  and  O_13
REMARK    3  A    between atoms: N_12  and  C_14
REMARK                            x       y       z     vdW  Elec       q    Type
REMARK                         _______ _______ _______ _____ _____    ______ ____
ROOT
ATOM      1  C   UNL     1      53.362 158.048  29.377  0.00  0.00    +0.019 C 
ATOM      2  C   UNL     1      52.031 157.997  29.754  0.00  0.00    +0.083 C 
ATOM      3  C   UNL     1      51.503 159.124  30.362  0.00  0.00    +0.034 C 
ATOM      4  C   UNL     1      52.264 160.246  30.581  0.00  0.00    +0.053 C 
ATOM      5  C   UNL     1      53.591 160.282  30.198  0.00  0.00    +0.052 C 
ATOM      6  C   UNL     1      54.143 159.171  29.590  0.00  0.00    +0.006 C 
ATOM      7  C   UNL     1      54.340 161.420  30.428  0.00  0.00    +0.198 C 
ATOM      8  O   UNL     1      55.544 161.422  30.068  0.00  0.00    -0.286 OA
ATOM      9  C   UNL     1      53.720 162.480  31.036  0.00  0.00    +0.058 C 
ATOM     10  C   UNL     1      52.393 162.410  31.404  0.00  0.00    +0.065 C 
ATOM     11  N   UNL     1      51.670 161.316  31.185  0.00  0.00    -0.311 N 
ATOM     12  H   UNL     1      50.724 161.278  31.454  0.00  0.00    +0.152 HD
ENDROOT
BRANCH   2  13
ATOM     13  N   UNL     1      51.234 156.836  29.528  0.00  0.00    -0.243 N 
BRANCH  13  14
ATOM     14  O   UNL     1      50.033 156.764  30.143  0.00  0.00    -0.286 OA
ATOM     15  H   UNL     1      49.894 157.562  30.676  0.00  0.00    +0.244 HD
ENDBRANCH  13  14
BRANCH  13  16
ATOM     16  C   UNL     1      51.632 155.753  28.690  0.00  0.00    +0.132 C 
ATOM     17  C   UNL     1      51.140 154.458  29.316  0.00  0.00    +0.029 C 
ENDBRANCH  13  16
ENDBRANCH   2  13
TORSDOF 3
