REMARK  Name = =
REMARK  4 active torsions:
REMARK  status: ('A' for Active; 'I' for Inactive)
REMARK    1  A    between atoms: N_1  and  S_10
REMARK    2  A    between atoms: C_2  and  C_4
REMARK    3  A    between atoms: S_10  and  C_11
REMARK    4  A    between atoms: S_10  and  C_14
REMARK                            x       y       z     vdW  Elec       q    Type
REMARK                         _______ _______ _______ _____ _____    ______ ____
ROOT
ATOM      1  N   UNL     1      40.340 160.329  23.539  0.00  0.00    -0.258 N 
ATOM      2  C   UNL     1      40.559 160.843  24.849  0.00  0.00    +0.256 C 
ATOM      3  O   UNL     1      41.705 161.223  25.155  0.00  0.00    -0.269 OA
ATOM      4  H   UNL     1      39.427 160.033  23.318  0.00  0.00    +0.163 HD
ENDROOT
BRANCH   2   5
ATOM      5  C   UNL     1      39.423 160.905  25.797  0.00  0.00    +0.073 C 
ATOM      6  C   UNL     1      38.194 161.173  25.269  0.00  0.00    +0.103 C 
ATOM      7  N   UNL     1      37.072 161.212  25.983  0.00  0.00    -0.242 NA
ATOM      8  C   UNL     1      37.143 160.974  27.317  0.00  0.00    +0.099 C 
ATOM      9  C   UNL     1      38.354 160.705  27.889  0.00  0.00    +0.021 C 
ATOM     10  C   UNL     1      39.536 160.664  27.136  0.00  0.00    +0.008 C 
ENDBRANCH   2   5
BRANCH   1  11
ATOM     11  S   UNL     1      41.481 160.188  22.365  0.00  0.00    -0.040 S 
ATOM     12  H   UNL     1      40.835 160.204  21.168  0.00  0.00    +0.122 HD
BRANCH  11  13
ATOM     13  C   UNL     1      42.268 158.717  22.464  0.00  0.00    +0.173 C 
ATOM     14  C   UNL     1      41.767 157.638  21.820  0.00  0.00    +0.040 C 
ATOM     15  F   UNL     1      43.399 158.539  23.184  0.00  0.00    -0.197 F 
ENDBRANCH  11  13
BRANCH  11  16
ATOM     16  C   UNL     1      42.526 161.512  22.296  0.00  0.00    +0.133 C 
ATOM     17  N   UNL     1      43.245 162.417  22.254  0.00  0.00    -0.184 NA
ENDBRANCH  11  16
ENDBRANCH   1  11
TORSDOF 4
