REMARK  Name = =
REMARK  4 active torsions:
REMARK  status: ('A' for Active; 'I' for Inactive)
REMARK    1  A    between atoms: C_1  and  C_12
REMARK    2  A    between atoms: C_2  and  N_17
REMARK    3  A    between atoms: N_17  and  O_18
REMARK    4  A    between atoms: N_17  and  C_19
REMARK                            x       y       z     vdW  Elec       q    Type
REMARK                         _______ _______ _______ _____ _____    ______ ____
ROOT
ATOM      1  C   UNL     1      52.312 158.456  29.734  0.00  0.00    +0.025 C 
ATOM      2  C   UNL     1      51.163 158.976  30.217  0.00  0.00    +0.082 C 
ATOM      3  C   UNL     1      51.107 160.272  30.770  0.00  0.00    +0.034 C 
ATOM      4  C   UNL     1      52.230 161.055  30.835  0.00  0.00    +0.053 C 
ATOM      5  C   UNL     1      53.406 160.532  30.343  0.00  0.00    +0.052 C 
ATOM      6  C   UNL     1      53.469 159.266  29.801  0.00  0.00    +0.004 C 
ATOM      7  C   UNL     1      54.534 161.344  30.417  0.00  0.00    +0.198 C 
ATOM      8  O   UNL     1      55.600 160.840  29.958  0.00  0.00    -0.286 OA
ATOM      9  C   UNL     1      54.460 162.594  30.955  0.00  0.00    +0.058 C 
ATOM     10  C   UNL     1      53.278 163.102  31.443  0.00  0.00    +0.065 C 
ATOM     11  N   UNL     1      52.202 162.306  31.363  0.00  0.00    -0.311 N 
ATOM     12  H   UNL     1      51.344 162.647  31.706  0.00  0.00    +0.152 HD
ENDROOT
BRANCH   1  13
ATOM     13  C   UNL     1      52.391 157.100  29.204  0.00  0.00    +0.137 C 
ATOM     14  N   UNL     1      51.224 156.314  29.159  0.00  0.00    -0.281 NA
ATOM     15  C   UNL     1      51.482 155.307  28.147  0.00  0.00    +0.087 C 
ATOM     16  C   UNL     1      52.821 155.682  27.522  0.00  0.00    +0.087 C 
ATOM     17  N   UNL     1      52.840 157.107  27.798  0.00  0.00    -0.281 NA
ATOM     18  H   UNL     1      50.419 156.884  28.899  0.00  0.00    +0.125 HD
ATOM     19  H   UNL     1      52.194 157.618  27.197  0.00  0.00    +0.125 HD
ENDBRANCH   1  13
BRANCH   2  20
ATOM     20  N   UNL     1      49.935 158.299  30.164  0.00  0.00    -0.243 N 
BRANCH  20  21
ATOM     21  O   UNL     1      49.827 157.051  30.635  0.00  0.00    -0.286 OA
ATOM     22  H   UNL     1      50.687 156.758  30.975  0.00  0.00    +0.244 HD
ENDBRANCH  20  21
BRANCH  20  23
ATOM     23  C   UNL     1      48.792 158.970  29.599  0.00  0.00    +0.132 C 
ATOM     24  C   UNL     1      47.599 158.040  29.508  0.00  0.00    +0.029 C 
ENDBRANCH  20  23
ENDBRANCH   2  20
TORSDOF 4
