REMARK  Name = =
REMARK  5 active torsions:
REMARK  status: ('A' for Active; 'I' for Inactive)
REMARK    1  A    between atoms: N_1  and  C_10
REMARK    2  A    between atoms: N_1  and  S_12
REMARK    3  A    between atoms: C_2  and  C_4
REMARK    4  A    between atoms: S_12  and  C_13
REMARK    5  A    between atoms: S_12  and  C_16
REMARK                            x       y       z     vdW  Elec       q    Type
REMARK                         _______ _______ _______ _____ _____    ______ ____
ROOT
ATOM      1  N   UNL     1      40.496 160.888  23.315  0.00  0.00    -0.221 N 
ATOM      2  C   UNL     1      39.913 160.325  24.459  0.00  0.00    +0.260 C 
ATOM      3  O   UNL     1      40.508 159.208  24.815  0.00  0.00    -0.269 OA
ENDROOT
BRANCH   2   4
ATOM      4  C   UNL     1      38.828 160.699  25.304  0.00  0.00    +0.074 C 
ATOM      5  C   UNL     1      38.283 159.710  26.148  0.00  0.00    +0.103 C 
ATOM      6  N   UNL     1      37.311 159.973  27.022  0.00  0.00    -0.242 NA
ATOM      7  C   UNL     1      36.821 161.214  27.118  0.00  0.00    +0.099 C 
ATOM      8  C   UNL     1      37.310 162.225  26.326  0.00  0.00    +0.021 C 
ATOM      9  C   UNL     1      38.329 161.979  25.400  0.00  0.00    +0.008 C 
ENDBRANCH   2   4
BRANCH   1  10
ATOM     10  C   UNL     1      40.003 162.023  22.670  0.00  0.00    +0.173 C 
ATOM     11  S   UNL     1      40.910 162.636  21.409  0.00  0.00    -0.057 S 
ENDBRANCH   1  10
BRANCH   1  12
ATOM     12  S   UNL     1      41.893 160.177  22.635  0.00  0.00    -0.036 S 
ATOM     13  H   UNL     1      42.381 160.858  21.564  0.00  0.00    +0.123 HD
BRANCH  12  14
ATOM     14  C   UNL     1      43.005 160.113  23.991  0.00  0.00    +0.173 C 
ATOM     15  C   UNL     1      43.771 161.166  24.210  0.00  0.00    +0.040 C 
ATOM     16  F   UNL     1      43.058 159.013  24.774  0.00  0.00    -0.197 F 
ENDBRANCH  12  14
BRANCH  12  17
ATOM     17  C   UNL     1      41.540 158.610  22.116  0.00  0.00    +0.134 C 
ATOM     18  N   UNL     1      41.311 157.524  21.740  0.00  0.00    -0.184 NA
ENDBRANCH  12  17
ENDBRANCH   1  12
TORSDOF 5
