REMARK  Name = =
REMARK  6 active torsions:
REMARK  status: ('A' for Active; 'I' for Inactive)
REMARK    1  A    between atoms: N_1  and  C_10
REMARK    2  A    between atoms: N_1  and  S_18
REMARK    3  A    between atoms: C_2  and  C_4
REMARK    4  A    between atoms: C_10  and  N_12
REMARK    5  A    between atoms: S_18  and  C_19
REMARK    6  A    between atoms: S_18  and  C_22
REMARK                            x       y       z     vdW  Elec       q    Type
REMARK                         _______ _______ _______ _____ _____    ______ ____
ROOT
ATOM      1  N   UNL     1      39.612 159.861  24.468  0.00  0.00    -0.191 N 
ATOM      2  C   UNL     1      38.436 159.937  25.202  0.00  0.00    +0.264 C 
ATOM      3  O   UNL     1      37.481 159.081  24.804  0.00  0.00    -0.269 OA
ENDROOT
BRANCH   2   4
ATOM      4  C   UNL     1      37.974 160.716  26.306  0.00  0.00    +0.074 C 
ATOM      5  C   UNL     1      37.491 160.097  27.478  0.00  0.00    +0.103 C 
ATOM      6  N   UNL     1      37.016 160.793  28.522  0.00  0.00    -0.242 NA
ATOM      7  C   UNL     1      36.962 162.120  28.539  0.00  0.00    +0.099 C 
ATOM      8  C   UNL     1      37.411 162.804  27.441  0.00  0.00    +0.021 C 
ATOM      9  C   UNL     1      37.906 162.079  26.351  0.00  0.00    +0.008 C 
ENDBRANCH   2   4
BRANCH   1  10
ATOM     10  C   UNL     1      39.596 158.895  23.357  0.00  0.00    +0.181 C 
ATOM     11  S   UNL     1      41.018 158.597  22.609  0.00  0.00    -0.015 S 
BRANCH  10  12
ATOM     12  N   UNL     1      38.420 158.236  22.943  0.00  0.00    -0.120 N 
ATOM     13  N   UNL     1      37.727 158.491  21.850  0.00  0.00    -0.150 NA
ATOM     14  C   UNL     1      36.696 157.611  21.814  0.00  0.00    +0.187 C 
ATOM     15  N   UNL     1      36.738 156.800  22.888  0.00  0.00    -0.248 N 
ATOM     16  C   UNL     1      37.816 157.205  23.576  0.00  0.00    +0.333 C 
ATOM     17  O   UNL     1      38.217 156.693  24.668  0.00  0.00    -0.250 OA
ATOM     18  H   UNL     1      36.116 156.072  23.117  0.00  0.00    +0.158 HD
ENDBRANCH  10  12
ENDBRANCH   1  10
BRANCH   1  19
ATOM     19  S   UNL     1      41.115 160.620  24.620  0.00  0.00    -0.031 S 
ATOM     20  H   UNL     1      42.075 159.658  24.587  0.00  0.00    +0.123 HD
BRANCH  19  21
ATOM     21  C   UNL     1      41.443 161.639  23.302  0.00  0.00    +0.173 C 
ATOM     22  C   UNL     1      41.436 162.944  23.344  0.00  0.00    +0.040 C 
ATOM     23  F   UNL     1      41.844 161.112  22.067  0.00  0.00    -0.197 F 
ENDBRANCH  19  21
BRANCH  19  24
ATOM     24  C   UNL     1      41.275 161.390  26.131  0.00  0.00    +0.134 C 
ATOM     25  N   UNL     1      41.391 161.916  27.136  0.00  0.00    -0.184 NA
ENDBRANCH  19  24
ENDBRANCH   1  19
TORSDOF 6
