REMARK  Name = =
REMARK  6 active torsions:
REMARK  status: ('A' for Active; 'I' for Inactive)
REMARK    1  A    between atoms: C_1  and  C_12
REMARK    2  A    between atoms: C_2  and  N_19
REMARK    3  A    between atoms: C_6  and  O_17
REMARK    4  A    between atoms: O_17  and  O_18
REMARK    5  A    between atoms: N_19  and  O_20
REMARK    6  A    between atoms: N_19  and  C_21
REMARK                            x       y       z     vdW  Elec       q    Type
REMARK                         _______ _______ _______ _____ _____    ______ ____
ROOT
ATOM      1  C   UNL     1      50.478 159.520  30.826  0.00  0.00    +0.063 C 
ATOM      2  C   UNL     1      49.457 158.625  30.723  0.00  0.00    +0.085 C 
ATOM      3  C   UNL     1      49.621 157.412  30.028  0.00  0.00    +0.034 C 
ATOM      4  C   UNL     1      50.823 157.097  29.427  0.00  0.00    +0.056 C 
ATOM      5  C   UNL     1      51.862 158.003  29.528  0.00  0.00    +0.090 C 
ATOM      6  C   UNL     1      51.695 159.196  30.215  0.00  0.00    +0.187 C 
ATOM      7  C   UNL     1      53.053 157.669  28.922  0.00  0.00    +0.201 C 
ATOM      8  O   UNL     1      54.012 158.476  28.998  0.00  0.00    -0.286 OA
ATOM      9  C   UNL     1      53.232 156.489  28.238  0.00  0.00    +0.058 C 
ATOM     10  C   UNL     1      52.143 155.644  28.188  0.00  0.00    +0.065 C 
ATOM     11  N   UNL     1      50.960 155.918  28.760  0.00  0.00    -0.311 N 
ATOM     12  H   UNL     1      50.210 155.283  28.699  0.00  0.00    +0.152 HD
ENDROOT
BRANCH   1  13
ATOM     13  C   UNL     1      50.355 160.766  31.573  0.00  0.00    +0.140 C 
ATOM     14  N   UNL     1      49.334 161.670  31.176  0.00  0.00    -0.281 NA
ATOM     15  C   UNL     1      49.027 162.434  32.356  0.00  0.00    +0.087 C 
ATOM     16  C   UNL     1      49.600 161.691  33.533  0.00  0.00    +0.087 C 
ATOM     17  N   UNL     1      50.047 160.435  32.977  0.00  0.00    -0.281 NA
ATOM     18  H   UNL     1      48.510 161.161  30.855  0.00  0.00    +0.125 HD
ATOM     19  H   UNL     1      50.878 160.097  33.462  0.00  0.00    +0.125 HD
ENDBRANCH   1  13
BRANCH   6  20
ATOM     20  O   UNL     1      52.769 160.073  30.287  0.00  0.00    -0.337 OA
BRANCH  20  21
ATOM     21  O   UNL     1      52.747 161.262  29.668  0.00  0.00    -0.201 OA
ATOM     22  H   UNL     1      53.581 161.728  29.834  0.00  0.00    +0.267 HD
ENDBRANCH  20  21
ENDBRANCH   6  20
BRANCH   2  23
ATOM     23  N   UNL     1      48.194 158.905  31.280  0.00  0.00    -0.243 N 
BRANCH  23  24
ATOM     24  O   UNL     1      47.944 158.565  32.553  0.00  0.00    -0.286 OA
ATOM     25  H   UNL     1      48.729 158.142  32.935  0.00  0.00    +0.244 HD
ENDBRANCH  23  24
BRANCH  23  26
ATOM     26  C   UNL     1      47.194 159.550  30.481  0.00  0.00    +0.132 C 
ATOM     27  C   UNL     1      45.964 159.921  31.280  0.00  0.00    +0.029 C 
ENDBRANCH  23  26
ENDBRANCH   2  23
TORSDOF 6
