REMARK  Name = =
REMARK  7 active torsions:
REMARK  status: ('A' for Active; 'I' for Inactive)
REMARK    1  A    between atoms: C_1  and  C_12
REMARK    2  A    between atoms: C_2  and  N_24
REMARK    3  A    between atoms: C_6  and  O_22
REMARK    4  A    between atoms: C_12  and  C_17
REMARK    5  A    between atoms: O_22  and  O_23
REMARK    6  A    between atoms: N_24  and  O_25
REMARK    7  A    between atoms: N_24  and  C_26
REMARK                            x       y       z     vdW  Elec       q    Type
REMARK                         _______ _______ _______ _____ _____    ______ ____
ROOT
ATOM      1  C   UNL     1      61.389 163.361  38.005  0.00  0.00    +0.062 C 
ATOM      2  C   UNL     1      60.408 162.553  37.482  0.00  0.00    +0.085 C 
ATOM      3  C   UNL     1      59.651 163.044  36.403  0.00  0.00    +0.034 C 
ATOM      4  C   UNL     1      59.886 164.291  35.888  0.00  0.00    +0.056 C 
ATOM      5  C   UNL     1      60.865 165.113  36.401  0.00  0.00    +0.090 C 
ATOM      6  C   UNL     1      61.603 164.635  37.455  0.00  0.00    +0.187 C 
ATOM      7  C   UNL     1      61.095 166.371  35.874  0.00  0.00    +0.201 C 
ATOM      8  O   UNL     1      62.004 167.113  36.362  0.00  0.00    -0.286 OA
ATOM      9  C   UNL     1      60.314 166.781  34.818  0.00  0.00    +0.058 C 
ATOM     10  C   UNL     1      59.336 165.942  34.316  0.00  0.00    +0.065 C 
ATOM     11  N   UNL     1      59.132 164.730  34.842  0.00  0.00    -0.311 N 
ATOM     12  H   UNL     1      58.430 164.149  34.470  0.00  0.00    +0.152 HD
ENDROOT
BRANCH   1  13
ATOM     13  C   UNL     1      62.219 162.932  39.159  0.00  0.00    +0.136 C 
ATOM     14  N   UNL     1      62.555 164.043  40.006  0.00  0.00    -0.282 NA
ATOM     15  C   UNL     1      61.930 163.834  41.293  0.00  0.00    +0.087 C 
ATOM     16  C   UNL     1      60.702 163.049  40.885  0.00  0.00    +0.087 C 
ATOM     17  N   UNL     1      61.325 162.097  39.979  0.00  0.00    -0.282 NA
ATOM     18  H   UNL     1      62.211 164.909  39.592  0.00  0.00    +0.125 HD
ATOM     19  H   UNL     1      61.855 161.395  40.496  0.00  0.00    +0.125 HD
BRANCH  13  20
ATOM     20  C   UNL     1      63.410 162.209  38.702  0.00  0.00    +0.146 C 
ATOM     21  O   UNL     1      63.468 160.866  39.058  0.00  0.00    -0.353 OA
ATOM     22  C   UNL     1      64.726 160.447  38.639  0.00  0.00    +0.142 C 
ATOM     23  C   UNL     1      65.637 161.666  38.636  0.00  0.00    +0.035 C 
ATOM     24  C   UNL     1      64.713 162.675  39.351  0.00  0.00    +0.035 C 
ENDBRANCH  13  20
ENDBRANCH   1  13
BRANCH   6  25
ATOM     25  O   UNL     1      62.592 165.486  37.971  0.00  0.00    -0.337 OA
BRANCH  25  26
ATOM     26  O   UNL     1      62.310 166.377  38.932  0.00  0.00    -0.201 OA
ATOM     27  H   UNL     1      63.113 166.872  39.160  0.00  0.00    +0.267 HD
ENDBRANCH  25  26
ENDBRANCH   6  25
BRANCH   2  28
ATOM     28  N   UNL     1      60.103 161.256  37.967  0.00  0.00    -0.243 N 
BRANCH  28  29
ATOM     29  O   UNL     1      60.910 160.219  37.755  0.00  0.00    -0.286 OA
ATOM     30  H   UNL     1      61.695 160.514  37.267  0.00  0.00    +0.244 HD
ENDBRANCH  28  29
BRANCH  28  31
ATOM     31  C   UNL     1      58.864 161.055  38.680  0.00  0.00    +0.132 C 
ATOM     32  C   UNL     1      58.344 159.644  38.527  0.00  0.00    +0.029 C 
ENDBRANCH  28  31
ENDBRANCH   2  28
TORSDOF 7
