REMARK  Name = =
REMARK  9 active torsions:
REMARK  status: ('A' for Active; 'I' for Inactive)
REMARK    1  A    between atoms: C_1  and  C_12
REMARK    2  A    between atoms: C_2  and  N_24
REMARK    3  A    between atoms: C_6  and  O_22
REMARK    4  A    between atoms: C_12  and  C_17
REMARK    5  A    between atoms: O_22  and  O_23
REMARK    6  A    between atoms: N_24  and  C_25
REMARK    7  A    between atoms: N_24  and  O_31
REMARK    8  A    between atoms: C_27  and  C_28
REMARK    9  A    between atoms: C_28  and  O_30
REMARK                            x       y       z     vdW  Elec       q    Type
REMARK                         _______ _______ _______ _____ _____    ______ ____
ROOT
ATOM      1  C   UNL     1      61.984 164.205  38.486  0.00  0.00    +0.063 C 
ATOM      2  C   UNL     1      61.418 163.068  38.997  0.00  0.00    +0.089 C 
ATOM      3  C   UNL     1      62.256 161.940  39.095  0.00  0.00    +0.034 C 
ATOM      4  C   UNL     1      63.569 161.914  38.720  0.00  0.00    +0.056 C 
ATOM      5  C   UNL     1      64.112 163.055  38.216  0.00  0.00    +0.090 C 
ATOM      6  C   UNL     1      63.310 164.188  38.105  0.00  0.00    +0.187 C 
ATOM      7  C   UNL     1      65.421 163.082  37.827  0.00  0.00    +0.201 C 
ATOM      8  O   UNL     1      65.939 164.111  37.365  0.00  0.00    -0.286 OA
ATOM      9  C   UNL     1      66.238 161.953  37.933  0.00  0.00    +0.058 C 
ATOM     10  C   UNL     1      65.639 160.820  38.450  0.00  0.00    +0.065 C 
ATOM     11  N   UNL     1      64.340 160.822  38.827  0.00  0.00    -0.311 N 
ATOM     12  H   UNL     1      63.948 159.996  39.191  0.00  0.00    +0.152 HD
ENDROOT
BRANCH   1  13
ATOM     13  C   UNL     1      61.149 165.460  38.327  0.00  0.00    +0.136 C 
ATOM     14  N   UNL     1      60.459 165.755  39.521  0.00  0.00    -0.282 NA
ATOM     15  C   UNL     1      60.650 167.152  39.853  0.00  0.00    +0.087 C 
ATOM     16  C   UNL     1      62.050 167.385  39.341  0.00  0.00    +0.087 C 
ATOM     17  N   UNL     1      62.153 166.533  38.180  0.00  0.00    -0.282 NA
ATOM     18  H   UNL     1      60.821 165.173  40.276  0.00  0.00    +0.125 HD
ATOM     19  H   UNL     1      61.966 167.072  37.335  0.00  0.00    +0.125 HD
BRANCH  13  20
ATOM     20  C   UNL     1      60.418 165.409  37.047  0.00  0.00    +0.146 C 
ATOM     21  O   UNL     1      60.905 164.343  36.234  0.00  0.00    -0.353 OA
ATOM     22  C   UNL     1      60.089 164.479  35.108  0.00  0.00    +0.142 C 
ATOM     23  C   UNL     1      59.986 165.951  34.815  0.00  0.00    +0.035 C 
ATOM     24  C   UNL     1      60.499 166.562  36.130  0.00  0.00    +0.035 C 
ENDBRANCH  13  20
ENDBRANCH   1  13
BRANCH   6  25
ATOM     25  O   UNL     1      63.952 165.299  37.577  0.00  0.00    -0.337 OA
BRANCH  25  26
ATOM     26  O   UNL     1      63.953 165.585  36.269  0.00  0.00    -0.201 OA
ATOM     27  H   UNL     1      64.457 166.400  36.117  0.00  0.00    +0.267 HD
ENDBRANCH  25  26
ENDBRANCH   6  25
BRANCH   2  28
ATOM     28  N   UNL     1      60.110 162.940  39.469  0.00  0.00    -0.225 N 
BRANCH  28  29
ATOM     29  C   UNL     1      59.630 161.615  39.784  0.00  0.00    +0.071 C 
ATOM     30  C   UNL     1      59.435 161.282  41.204  0.00  0.00    +0.053 C 
ATOM     31  C   UNL     1      59.367 160.715  38.871  0.00  0.00    +0.097 C 
BRANCH  31  32
ATOM     32  C   UNL     1      58.887 159.382  39.118  0.00  0.00    +0.339 C 
ATOM     33  O   UNL     1      58.436 159.072  40.237  0.00  0.00    -0.245 OA
BRANCH  32  34
ATOM     34  O   UNL     1      58.923 158.439  38.117  0.00  0.00    -0.477 OA
ATOM     35  H   UNL     1      59.261 158.665  37.273  0.00  0.00    +0.295 HD
ENDBRANCH  32  34
ENDBRANCH  31  32
ENDBRANCH  28  29
BRANCH  28  36
ATOM     36  O   UNL     1      59.160 163.837  39.691  0.00  0.00    -0.282 OA
ATOM     37  H   UNL     1      59.494 164.722  39.476  0.00  0.00    +0.245 HD
ENDBRANCH  28  36
ENDBRANCH   2  28
TORSDOF 9
