REMARK  Name = =
REMARK  10 active torsions:
REMARK  status: ('A' for Active; 'I' for Inactive)
REMARK    1  A    between atoms: C_1  and  C_12
REMARK    2  A    between atoms: C_2  and  N_34
REMARK    3  A    between atoms: C_6  and  O_32
REMARK    4  A    between atoms: C_12  and  C_17
REMARK    5  A    between atoms: C_17  and  C_28
REMARK    6  A    between atoms: O_32  and  O_33
REMARK    7  A    between atoms: N_34  and  C_35
REMARK    8  A    between atoms: N_34  and  O_41
REMARK    9  A    between atoms: C_37  and  C_38
REMARK   10  A    between atoms: C_38  and  O_40
REMARK                            x       y       z     vdW  Elec       q    Type
REMARK                         _______ _______ _______ _____ _____    ______ ____
ROOT
ATOM      1  C   UNL     1      62.239 164.470  39.213  0.00  0.00    +0.063 C 
ATOM      2  C   UNL     1      60.958 164.950  39.380  0.00  0.00    +0.089 C 
ATOM      3  C   UNL     1      60.233 165.498  38.314  0.00  0.00    +0.034 C 
ATOM      4  C   UNL     1      60.752 165.590  37.073  0.00  0.00    +0.056 C 
ATOM      5  C   UNL     1      62.015 165.137  36.862  0.00  0.00    +0.090 C 
ATOM      6  C   UNL     1      62.738 164.589  37.920  0.00  0.00    +0.187 C 
ATOM      7  C   UNL     1      62.512 165.246  35.576  0.00  0.00    +0.201 C 
ATOM      8  O   UNL     1      63.682 164.828  35.368  0.00  0.00    -0.286 OA
ATOM      9  C   UNL     1      61.739 165.793  34.579  0.00  0.00    +0.058 C 
ATOM     10  C   UNL     1      60.470 166.235  34.840  0.00  0.00    +0.065 C 
ATOM     11  N   UNL     1      59.985 166.132  36.083  0.00  0.00    -0.311 N 
ATOM     12  H   UNL     1      59.074 166.447  36.283  0.00  0.00    +0.152 HD
ENDROOT
BRANCH   1  13
ATOM     13  C   UNL     1      62.925 163.706  40.256  0.00  0.00    +0.134 C 
ATOM     14  N   UNL     1      64.333 163.725  39.834  0.00  0.00    -0.282 NA
ATOM     15  C   UNL     1      65.130 164.421  40.755  0.00  0.00    +0.087 C 
ATOM     16  C   UNL     1      64.093 165.345  41.393  0.00  0.00    +0.087 C 
ATOM     17  N   UNL     1      63.043 164.292  41.552  0.00  0.00    -0.282 NA
ATOM     18  H   UNL     1      64.401 164.181  38.924  0.00  0.00    +0.125 HD
ATOM     19  H   UNL     1      63.333 163.595  42.238  0.00  0.00    +0.125 HD
BRANCH  13  20
ATOM     20  C   UNL     1      62.634 162.206  40.318  0.00  0.00    +0.127 C 
ATOM     21  O   UNL     1      63.231 161.756  41.487  0.00  0.00    -0.355 OA
ATOM     22  C   UNL     1      64.403 161.143  41.322  0.00  0.00    +0.142 C 
ATOM     23  C   UNL     1      64.515 160.672  39.927  0.00  0.00    +0.035 C 
ATOM     24  C   UNL     1      63.396 161.445  39.266  0.00  0.00    +0.033 C 
BRANCH  20  31
ATOM     25  O   UNL     1      61.852 159.546  40.125  0.00  0.00    -0.456 OA
ATOM     26  C   UNL     1      60.868 160.424  39.830  0.00  0.00    +0.231 C 
ATOM     27  O   UNL     1      59.727 159.944  40.534  0.00  0.00    -0.325 OA
ATOM     28  C   UNL     1      59.018 159.145  39.704  0.00  0.00    +0.146 C 
ATOM     29  C   UNL     1      58.903 160.036  38.483  0.00  0.00    +0.038 C 
ATOM     30  C   UNL     1      60.359 160.513  38.438  0.00  0.00    +0.073 C 
ATOM     31  C   UNL     1      61.211 161.781  40.449  0.00  0.00    +0.096 C 
ATOM     32  C   UNL     1      60.832 161.463  41.916  0.00  0.00    +0.038 C 
ATOM     33  C   UNL     1      61.144 160.096  42.363  0.00  0.00    +0.014 C 
ATOM     34  C   UNL     1      61.628 159.086  41.420  0.00  0.00    +0.170 C 
ENDBRANCH  20  31
ENDBRANCH  13  20
ENDBRANCH   1  13
BRANCH   6  35
ATOM     35  O   UNL     1      64.025 164.185  37.531  0.00  0.00    -0.337 OA
BRANCH  35  36
ATOM     36  O   UNL     1      65.100 164.981  37.555  0.00  0.00    -0.201 OA
ATOM     37  H   UNL     1      65.875 164.487  37.244  0.00  0.00    +0.267 HD
ENDBRANCH  35  36
ENDBRANCH   6  35
BRANCH   2  38
ATOM     38  N   UNL     1      60.331 165.148  40.622  0.00  0.00    -0.225 N 
BRANCH  38  39
ATOM     39  C   UNL     1      58.987 164.654  40.812  0.00  0.00    +0.071 C 
ATOM     40  C   UNL     1      57.896 165.679  40.894  0.00  0.00    +0.053 C 
ATOM     41  C   UNL     1      58.687 163.409  40.910  0.00  0.00    +0.097 C 
BRANCH  41  42
ATOM     42  C   UNL     1      57.351 162.920  41.098  0.00  0.00    +0.339 C 
ATOM     43  O   UNL     1      56.385 163.691  41.198  0.00  0.00    -0.245 OA
BRANCH  42  44
ATOM     44  O   UNL     1      57.053 161.545  41.183  0.00  0.00    -0.477 OA
ATOM     45  H   UNL     1      57.740 160.912  41.115  0.00  0.00    +0.295 HD
ENDBRANCH  42  44
ENDBRANCH  41  42
ENDBRANCH  38  39
BRANCH  38  46
ATOM     46  O   UNL     1      60.794 165.754  41.715  0.00  0.00    -0.282 OA
ATOM     47  H   UNL     1      61.696 166.072  41.551  0.00  0.00    +0.245 HD
ENDBRANCH  38  46
ENDBRANCH   2  38
TORSDOF 10
