REMARK  Name = =
REMARK  3 active torsions:
REMARK  status: ('A' for Active; 'I' for Inactive)
REMARK    1  A    between atoms: P_1  and  N_3
REMARK    2  A    between atoms: P_1  and  N_4
REMARK    3  A    between atoms: P_1  and  O_5
REMARK                            x       y       z     vdW  Elec       q    Type
REMARK                         _______ _______ _______ _____ _____    ______ ____
ROOT
ATOM      1  P   UNL     1      -3.246  -3.012  30.093  0.00  0.00    +0.335 P 
ATOM      2  O   UNL     1      -3.261  -3.348  28.610  0.00  0.00    -0.255 OA
ENDROOT
BRANCH   1   3
ATOM      3  N   UNL     1      -4.341  -4.057  30.948  0.00  0.00    -0.247 NA
ATOM      4  H   UNL     1      -4.326  -3.826  31.941  0.00  0.00    +0.129 HD
ATOM      5  H   UNL     1      -4.054  -5.028  30.820  0.00  0.00    +0.129 HD
ENDBRANCH   1   3
BRANCH   1   6
ATOM      6  N   UNL     1      -1.620  -3.292  30.661  0.00  0.00    -0.247 NA
ATOM      7  H   UNL     1      -1.566  -3.077  31.657  0.00  0.00    +0.129 HD
ATOM      8  H   UNL     1      -0.973  -2.693  30.149  0.00  0.00    +0.129 HD
ENDBRANCH   1   6
BRANCH   1   9
ATOM      9  O   UNL     1      -3.694  -1.409  30.267  0.00  0.00    -0.322 OA
ATOM     10  H   UNL     1      -3.691  -1.173  31.208  0.00  0.00    +0.220 HD
ENDBRANCH   1   9
TORSDOF 3
