REMARK  Name = =
REMARK  4 active torsions:
REMARK  status: ('A' for Active; 'I' for Inactive)
REMARK    1  A    between atoms: P_1  and  N_3
REMARK    2  A    between atoms: P_1  and  N_4
REMARK    3  A    between atoms: P_1  and  O_5
REMARK    4  A    between atoms: O_5  and  N_6
REMARK                            x       y       z     vdW  Elec       q    Type
REMARK                         _______ _______ _______ _____ _____    ______ ____
ROOT
ATOM      1  P   UNL     1     -14.105  -6.153  21.339  0.00  0.00    +0.357 P 
ATOM      2  O   UNL     1     -13.227  -6.369  20.101  0.00  0.00    -0.253 OA
ENDROOT
BRANCH   1   3
ATOM      3  N   UNL     1     -15.613  -7.002  20.961  0.00  0.00    -0.246 NA
ATOM      4  H   UNL     1     -16.262  -6.907  21.742  0.00  0.00    +0.129 HD
ATOM      5  H   UNL     1     -15.416  -7.990  20.800  0.00  0.00    +0.129 HD
ENDBRANCH   1   3
BRANCH   1   6
ATOM      6  N   UNL     1     -14.422  -4.501  21.495  0.00  0.00    -0.246 NA
ATOM      7  H   UNL     1     -13.556  -4.008  21.713  0.00  0.00    +0.129 HD
ATOM      8  H   UNL     1     -15.096  -4.354  22.247  0.00  0.00    +0.129 HD
ENDBRANCH   1   6
BRANCH   1   9
ATOM      9  O   UNL     1     -13.345  -6.905  22.604  0.00  0.00    -0.192 OA
BRANCH   9  10
ATOM     10  N   UNL     1     -13.276  -6.226  23.752  0.00  0.00    -0.160 N 
ATOM     11  C   UNL     1     -14.407  -6.115  24.593  0.00  0.00    +0.248 C 
ATOM     12  O   UNL     1     -15.248  -7.039  24.659  0.00  0.00    -0.273 OA
ATOM     13  C   UNL     1     -14.651  -4.899  25.433  0.00  0.00    +0.087 C 
ATOM     14  C   UNL     1     -13.558  -3.881  25.190  0.00  0.00    +0.011 C 
ATOM     15  C   UNL     1     -12.220  -4.560  25.206  0.00  0.00    +0.025 C 
ATOM     16  C   UNL     1     -12.038  -5.597  24.124  0.00  0.00    +0.125 C 
ENDBRANCH   9  10
ENDBRANCH   1   9
TORSDOF 4
