REMARK  Name = =
REMARK  5 active torsions:
REMARK  status: ('A' for Active; 'I' for Inactive)
REMARK    1  A    between atoms: N_1  and  O_17
REMARK    2  A    between atoms: C_7  and  C_8
REMARK    3  A    between atoms: O_17  and  P_18
REMARK    4  A    between atoms: P_18  and  N_20
REMARK    5  A    between atoms: P_18  and  N_21
REMARK                            x       y       z     vdW  Elec       q    Type
REMARK                         _______ _______ _______ _____ _____    ______ ____
ROOT
ATOM      1  N   UNL     1     -12.715  -6.730  24.332  0.00  0.00    -0.158 N 
ATOM      2  C   UNL     1     -13.998  -6.122  24.379  0.00  0.00    +0.248 C 
ATOM      3  O   UNL     1     -15.064  -6.775  24.397  0.00  0.00    -0.273 OA
ATOM      4  C   UNL     1     -14.061  -4.638  24.408  0.00  0.00    +0.087 C 
ATOM      5  C   UNL     1     -13.011  -4.166  25.395  0.00  0.00    +0.012 C 
ATOM      6  C   UNL     1     -11.650  -4.592  24.882  0.00  0.00    +0.027 C 
ATOM      7  C   UNL     1     -11.555  -6.102  24.905  0.00  0.00    +0.126 C 
ENDROOT
BRANCH   7   8
ATOM      8  C   UNL     1     -10.269  -6.575  24.395  0.00  0.00    +0.001 C 
ATOM      9  C   UNL     1      -9.466  -5.731  23.615  0.00  0.00    +0.038 C 
ATOM     10  C   UNL     1      -8.242  -6.118  23.115  0.00  0.00    +0.176 C 
ATOM     11  C   UNL     1      -7.764  -7.380  23.375  0.00  0.00    +0.176 C 
ATOM     12  C   UNL     1      -8.527  -8.233  24.137  0.00  0.00    +0.040 C 
ATOM     13  C   UNL     1      -9.770  -7.835  24.644  0.00  0.00    +0.001 C 
ATOM     14  O   UNL     1      -6.515  -7.485  22.746  0.00  0.00    -0.435 OA
ATOM     15  C   UNL     1      -6.095  -6.161  22.466  0.00  0.00    +0.429 C 
ATOM     16  O   UNL     1      -7.309  -5.413  22.323  0.00  0.00    -0.435 OA
ENDBRANCH   7   8
BRANCH   1  17
ATOM     17  O   UNL     1     -12.601  -7.921  23.731  0.00  0.00    -0.191 OA
BRANCH  17  18
ATOM     18  P   UNL     1     -12.779  -7.888  22.072  0.00  0.00    +0.357 P 
ATOM     19  O   UNL     1     -13.080  -9.293  21.596  0.00  0.00    -0.253 OA
BRANCH  18  20
ATOM     20  N   UNL     1     -14.033  -6.769  21.594  0.00  0.00    -0.246 NA
ATOM     21  H   UNL     1     -14.914  -7.038  22.032  0.00  0.00    +0.129 HD
ATOM     22  H   UNL     1     -14.138  -6.789  20.580  0.00  0.00    +0.129 HD
ENDBRANCH  18  20
BRANCH  18  23
ATOM     23  N   UNL     1     -11.247  -7.429  21.316  0.00  0.00    -0.246 NA
ATOM     24  H   UNL     1     -10.519  -8.085  21.598  0.00  0.00    +0.129 HD
ATOM     25  H   UNL     1     -10.990  -6.488  21.613  0.00  0.00    +0.129 HD
ENDBRANCH  18  23
ENDBRANCH  17  18
ENDBRANCH   1  17
TORSDOF 5
