REMARK  Name = =
REMARK  6 active torsions:
REMARK  status: ('A' for Active; 'I' for Inactive)
REMARK    1  A    between atoms: N_1  and  O_20
REMARK    2  A    between atoms: C_6  and  N_17
REMARK    3  A    between atoms: C_7  and  C_8
REMARK    4  A    between atoms: O_20  and  P_21
REMARK    5  A    between atoms: P_21  and  N_23
REMARK    6  A    between atoms: P_21  and  N_24
REMARK                            x       y       z     vdW  Elec       q    Type
REMARK                         _______ _______ _______ _____ _____    ______ ____
ROOT
ATOM      1  N   UNL     1     -12.797  -5.118  20.710  0.00  0.00    -0.156 N 
ATOM      2  C   UNL     1     -12.674  -3.717  20.904  0.00  0.00    +0.248 C 
ATOM      3  O   UNL     1     -11.821  -3.057  20.279  0.00  0.00    -0.273 OA
ATOM      4  C   UNL     1     -13.583  -3.037  21.876  0.00  0.00    +0.089 C 
ATOM      5  C   UNL     1     -14.593  -4.080  22.294  0.00  0.00    +0.028 C 
ATOM      6  C   UNL     1     -13.895  -5.258  22.890  0.00  0.00    +0.083 C 
ATOM      7  C   UNL     1     -12.999  -5.966  21.887  0.00  0.00    +0.141 C 
ENDROOT
BRANCH   7   8
ATOM      8  C   UNL     1     -11.718  -6.304  22.563  0.00  0.00    +0.003 C 
ATOM      9  C   UNL     1     -11.051  -7.511  22.391  0.00  0.00    +0.038 C 
ATOM     10  C   UNL     1      -9.893  -7.821  23.029  0.00  0.00    +0.176 C 
ATOM     11  C   UNL     1      -9.326  -6.930  23.889  0.00  0.00    +0.176 C 
ATOM     12  C   UNL     1      -9.947  -5.717  24.096  0.00  0.00    +0.040 C 
ATOM     13  C   UNL     1     -11.120  -5.417  23.442  0.00  0.00    +0.001 C 
ATOM     14  O   UNL     1      -8.165  -7.478  24.403  0.00  0.00    -0.435 OA
ATOM     15  C   UNL     1      -8.296  -8.894  24.208  0.00  0.00    +0.429 C 
ATOM     16  O   UNL     1      -9.054  -8.944  23.018  0.00  0.00    -0.435 OA
ENDBRANCH   7   8
BRANCH   6  17
ATOM     17  N   UNL     1     -14.706  -6.221  23.525  0.00  0.00    -0.270 NA
ATOM     18  C   UNL     1     -14.999  -6.254  24.921  0.00  0.00    +0.090 C 
ATOM     19  C   UNL     1     -16.065  -6.004  23.919  0.00  0.00    +0.090 C 
ENDBRANCH   6  17
BRANCH   1  20
ATOM     20  O   UNL     1     -12.734  -5.634  19.466  0.00  0.00    -0.191 OA
BRANCH  20  21
ATOM     21  P   UNL     1     -11.205  -6.065  18.957  0.00  0.00    +0.357 P 
ATOM     22  O   UNL     1     -10.906  -7.530  19.052  0.00  0.00    -0.253 OA
BRANCH  21  23
ATOM     23  N   UNL     1      -9.956  -5.215  19.837  0.00  0.00    -0.246 NA
ATOM     24  H   UNL     1      -9.997  -5.476  20.822  0.00  0.00    +0.129 HD
ATOM     25  H   UNL     1     -10.100  -4.209  19.745  0.00  0.00    +0.129 HD
ENDBRANCH  21  23
BRANCH  21  26
ATOM     26  N   UNL     1     -11.091  -5.578  17.256  0.00  0.00    -0.246 NA
ATOM     27  H   UNL     1     -11.810  -6.059  16.716  0.00  0.00    +0.129 HD
ATOM     28  H   UNL     1     -10.170  -5.825  16.893  0.00  0.00    +0.129 HD
ENDBRANCH  21  26
ENDBRANCH  20  21
ENDBRANCH   1  20
TORSDOF 6
