REMARK  Name = =
REMARK  9 active torsions:
REMARK  status: ('A' for Active; 'I' for Inactive)
REMARK    1  A    between atoms: N_1  and  O_24
REMARK    2  A    between atoms: C_5  and  C_20
REMARK    3  A    between atoms: C_6  and  N_17
REMARK    4  A    between atoms: C_7  and  C_8
REMARK    5  A    between atoms: C_20  and  C_22
REMARK    6  A    between atoms: O_24  and  P_25
REMARK    7  A    between atoms: P_25  and  N_27
REMARK    8  A    between atoms: P_25  and  N_28
REMARK    9  A    between atoms: N_28  and  C_29
REMARK                            x       y       z     vdW  Elec       q    Type
REMARK                         _______ _______ _______ _____ _____    ______ ____
ROOT
ATOM      1  N   UNL     1     -12.901  -3.816  24.253  0.00  0.00    -0.156 N 
ATOM      2  C   UNL     1     -12.053  -2.883  24.905  0.00  0.00    +0.249 C 
ATOM      3  O   UNL     1     -11.027  -2.357  24.440  0.00  0.00    -0.273 OA
ATOM      4  C   UNL     1     -12.439  -2.491  26.301  0.00  0.00    +0.096 C 
ATOM      5  C   UNL     1     -13.894  -2.184  26.233  0.00  0.00    +0.088 C 
ATOM      6  C   UNL     1     -14.753  -3.409  25.864  0.00  0.00    +0.090 C 
ATOM      7  C   UNL     1     -14.318  -3.883  24.515  0.00  0.00    +0.141 C 
ENDROOT
BRANCH   7   8
ATOM      8  C   UNL     1     -14.882  -5.142  24.051  0.00  0.00    +0.003 C 
ATOM      9  C   UNL     1     -15.425  -5.174  22.770  0.00  0.00    +0.038 C 
ATOM     10  C   UNL     1     -16.003  -6.301  22.236  0.00  0.00    +0.176 C 
ATOM     11  C   UNL     1     -16.061  -7.461  22.974  0.00  0.00    +0.176 C 
ATOM     12  C   UNL     1     -15.517  -7.413  24.243  0.00  0.00    +0.040 C 
ATOM     13  C   UNL     1     -14.940  -6.298  24.782  0.00  0.00    +0.001 C 
ATOM     14  O   UNL     1     -16.697  -8.437  22.195  0.00  0.00    -0.435 OA
ATOM     15  C   UNL     1     -17.440  -7.724  21.186  0.00  0.00    +0.429 C 
ATOM     16  O   UNL     1     -16.607  -6.568  20.989  0.00  0.00    -0.435 OA
ENDBRANCH   7   8
BRANCH   6  17
ATOM     17  N   UNL     1     -16.079  -2.887  25.900  0.00  0.00    -0.269 NA
ATOM     18  C   UNL     1     -16.986  -2.762  24.843  0.00  0.00    +0.090 C 
ATOM     19  C   UNL     1     -17.242  -3.743  25.948  0.00  0.00    +0.090 C 
ENDBRANCH   6  17
BRANCH   5  20
ATOM     20  C   UNL     1     -14.356  -1.517  27.447  0.00  0.00    +0.175 C 
ATOM     21  O   UNL     1     -14.410  -2.177  28.515  0.00  0.00    -0.291 OA
BRANCH  20  22
ATOM     22  C   UNL     1     -14.759  -0.117  27.481  0.00  0.00    +0.037 C 
ATOM     23  C   UNL     1     -15.121   0.421  28.606  0.00  0.00    +0.003 C 
ENDBRANCH  20  22
ENDBRANCH   5  20
BRANCH   1  24
ATOM     24  O   UNL     1     -12.363  -4.658  23.366  0.00  0.00    -0.189 OA
BRANCH  24  25
ATOM     25  P   UNL     1     -11.061  -5.567  23.903  0.00  0.00    +0.377 P 
ATOM     26  O   UNL     1      -9.857  -5.267  22.988  0.00  0.00    -0.249 OA
BRANCH  25  27
ATOM     27  N   UNL     1     -10.661  -5.266  25.583  0.00  0.00    -0.242 NA
ATOM     28  H   UNL     1     -10.502  -4.268  25.721  0.00  0.00    +0.129 HD
ATOM     29  H   UNL     1      -9.816  -5.782  25.829  0.00  0.00    +0.129 HD
ENDBRANCH  25  27
BRANCH  25  30
ATOM     30  N   UNL     1     -11.328  -7.285  23.695  0.00  0.00    -0.257 N 
ATOM     31  H   UNL     1     -12.235  -7.663  23.750  0.00  0.00    +0.157 HD
BRANCH  30  32
ATOM     32  C   UNL     1     -10.213  -8.117  23.447  0.00  0.00    +0.091 C 
ATOM     33  C   UNL     1      -9.242  -8.243  24.441  0.00  0.00    +0.117 C 
ATOM     34  N   UNL     1      -8.179  -9.029  24.207  0.00  0.00    -0.221 NA
ATOM     35  C   UNL     1      -7.998  -9.704  23.061  0.00  0.00    +0.199 C 
ATOM     36  N   UNL     1      -8.949  -9.568  22.113  0.00  0.00    -0.221 NA
ATOM     37  C   UNL     1     -10.043  -8.802  22.270  0.00  0.00    +0.117 C 
ENDBRANCH  30  32
ENDBRANCH  25  30
ENDBRANCH  24  25
ENDBRANCH   1  24
TORSDOF 9
