REMARK  Name = =
REMARK  11 active torsions:
REMARK  status: ('A' for Active; 'I' for Inactive)
REMARK    1  A    between atoms: C_1  and  C_30
REMARK    2  A    between atoms: C_4  and  N_28
REMARK    3  A    between atoms: C_5  and  N_23
REMARK    4  A    between atoms: C_6  and  N_7
REMARK    5  A    between atoms: C_6  and  N_40
REMARK    6  A    between atoms: C_9  and  C_13
REMARK    7  A    between atoms: C_15  and  C_19
REMARK    8  A    between atoms: C_16  and  O_22
REMARK    9  A    between atoms: C_29  and  O_31
REMARK   10  A    between atoms: O_31  and  C_32
REMARK   11  A    between atoms: C_32  and  C_34
REMARK                            x       y       z     vdW  Elec       q    Type
REMARK                         _______ _______ _______ _____ _____    ______ ____
ROOT
ATOM      1  C   UNL     1       4.155  -9.440  24.936  0.00  0.00    +0.020 C 
ATOM      2  C   UNL     1       5.132 -10.272  25.231  0.00  0.00    +0.000 C 
ATOM      3  C   UNL     1       4.911 -11.554  25.793  0.00  0.00    +0.011 C 
ATOM      4  C   UNL     1       3.681 -11.995  26.053  0.00  0.00    +0.037 C 
ATOM      5  C   UNL     1       2.543 -11.145  25.731  0.00  0.00    +0.136 C 
ATOM      6  C   UNL     1       2.748  -9.818  25.164  0.00  0.00    +0.210 C 
ENDROOT
BRANCH   6   7
ATOM      7  N   UNL     1       2.157  -8.720  25.855  0.00  0.00    -0.247 NA
ATOM      8  C   UNL     1       2.446  -8.484  27.189  0.00  0.00    +0.094 C 
ATOM      9  C   UNL     1       1.347  -8.553  28.204  0.00  0.00    +0.093 C 
ATOM     10  N   UNL     1       0.139  -9.180  27.807  0.00  0.00    -0.293 NA
ATOM     11  C   UNL     1      -0.222  -9.097  26.433  0.00  0.00    +0.086 C 
ATOM     12  C   UNL     1       0.800  -8.527  25.513  0.00  0.00    +0.091 C 
ATOM     13  H   UNL     1      -0.616  -8.759  28.348  0.00  0.00    +0.124 HD
BRANCH   9  14
ATOM     14  C   UNL     1       1.110  -7.237  28.888  0.00  0.00    -0.006 C 
ATOM     15  C   UNL     1       0.905  -6.102  28.136  0.00  0.00    +0.005 C 
ATOM     16  C   UNL     1       0.682  -4.866  28.688  0.00  0.00    +0.086 C 
ATOM     17  C   UNL     1       0.660  -4.751  30.077  0.00  0.00    +0.138 C 
ATOM     18  C   UNL     1       0.863  -5.872  30.853  0.00  0.00    +0.036 C 
ATOM     19  C   UNL     1       1.088  -7.116  30.258  0.00  0.00    +0.000 C 
BRANCH  16  20
ATOM     20  C   UNL     1       0.467  -3.659  27.890  0.00  0.00    +0.246 C 
ATOM     21  O   UNL     1       0.645  -3.753  26.650  0.00  0.00    -0.270 OA
ATOM     22  N   UNL     1       0.079  -2.437  28.453  0.00  0.00    -0.325 N 
ATOM     23  H   UNL     1      -0.060  -2.365  29.425  0.00  0.00    +0.145 HD
ATOM     24  H   UNL     1      -0.055  -1.650  27.877  0.00  0.00    +0.145 HD
ENDBRANCH  16  20
BRANCH  17  25
ATOM     25  O   UNL     1       0.432  -3.485  30.647  0.00  0.00    -0.505 OA
ATOM     26  H   UNL     1       0.297  -2.740  30.095  0.00  0.00    +0.292 HD
ENDBRANCH  17  25
ENDBRANCH   9  14
ENDBRANCH   6   7
BRANCH   5  27
ATOM     27  N   UNL     1       1.543 -11.950  25.002  0.00  0.00    -0.266 NA
ATOM     28  C   UNL     1       0.487 -12.449  25.804  0.00  0.00    +0.073 C 
ATOM     29  C   UNL     1       0.314 -13.907  25.582  0.00  0.00    +0.019 C 
ATOM     30  C   UNL     1       1.207 -14.198  24.424  0.00  0.00    +0.019 C 
ATOM     31  C   UNL     1       2.179 -13.058  24.381  0.00  0.00    +0.073 C 
ENDBRANCH   5  27
BRANCH   4  32
ATOM     32  N   UNL     1       3.583 -13.319  26.633  0.00  0.00    -0.359 N 
ATOM     33  H   UNL     1       4.400 -13.835  26.823  0.00  0.00    +0.142 HD
ATOM     34  H   UNL     1       2.700 -13.703  26.837  0.00  0.00    +0.142 HD
ENDBRANCH   4  32
BRANCH   1  36
ATOM     35  C   UNL     1       3.709  -7.118  24.244  0.00  0.00    +0.183 C 
ATOM     36  C   UNL     1       4.500  -8.118  24.352  0.00  0.00    +0.040 C 
BRANCH  35  37
ATOM     37  O   UNL     1       4.186  -5.911  23.659  0.00  0.00    -0.421 OA
BRANCH  37  38
ATOM     38  C   UNL     1       4.508  -4.818  24.446  0.00  0.00    +0.321 C 
ATOM     39  O   UNL     1       4.567  -5.045  25.691  0.00  0.00    -0.250 OA
BRANCH  38  40
ATOM     40  C   UNL     1       4.769  -3.476  23.922  0.00  0.00    +0.099 C 
ATOM     41  C   UNL     1       5.118  -2.494  25.050  0.00  0.00    +0.011 C 
ATOM     42  C   UNL     1       5.771  -1.309  24.386  0.00  0.00    +0.001 C 
ATOM     43  C   UNL     1       4.911  -0.799  23.259  0.00  0.00    +0.000 C 
ATOM     44  C   UNL     1       3.551  -1.413  23.279  0.00  0.00    +0.001 C 
ATOM     45  C   UNL     1       3.612  -2.923  23.107  0.00  0.00    +0.011 C 
ENDBRANCH  38  40
ENDBRANCH  37  38
ENDBRANCH  35  37
ENDBRANCH   1  36
BRANCH   6  46
ATOM     46  N   UNL     1       2.145  -9.809  23.829  0.00  0.00    -0.039 NA
ATOM     47  O   UNL     1       2.787 -10.133  22.850  0.00  0.00    -0.147 OA
ENDBRANCH   6  46
TORSDOF 11
