MODEL 1
REMARK VINA RESULT:    -7.386      0.000      0.000
REMARK INTER + INTRA:         -12.388
REMARK INTER:                 -10.625
REMARK INTRA:                  -1.763
REMARK UNBOUND:                -1.763
REMARK  Name = =
REMARK  9 active torsions:
REMARK  status: ('A' for Active; 'I' for Inactive)
REMARK    1  A    between atoms: C_2  and  O_33
REMARK    2  A    between atoms: C_6  and  C_17
REMARK    3  A    between atoms: C_25  and  O_29
REMARK    4  A    between atoms: O_29  and  S_30
REMARK    5  A    between atoms: S_30  and  O_32
REMARK    6  A    between atoms: O_33  and  C_34
REMARK    7  A    between atoms: N_36  and  P_37
REMARK    8  A    between atoms: P_37  and  O_39
REMARK    9  A    between atoms: P_37  and  O_40
REMARK                            x       y       z     vdW  Elec       q    Type
REMARK                         _______ _______ _______ _____ _____    ______ ____
ROOT
ATOM      1  O   UNL     1      59.521 163.904  37.171  0.00  0.00    -0.407 OA
ATOM      2  C   UNL     1      59.789 164.383  35.895  0.00  0.00    +0.553 C 
ATOM      3  O   UNL     1      61.193 164.550  35.905  0.00  0.00    -0.407 OA
ATOM      4  C   UNL     1      61.702 163.927  37.031  0.00  0.00    +0.180 C 
ATOM      5  C   UNL     1      60.674 163.513  37.838  0.00  0.00    +0.180 C 
ATOM      6  C   UNL     1      60.888 162.839  39.074  0.00  0.00    +0.036 C 
ATOM      7  C   UNL     1      62.178 162.604  39.448  0.00  0.00    -0.023 C 
ATOM      8  C   UNL     1      63.240 163.020  38.639  0.00  0.00    -0.023 C 
ATOM      9  C   UNL     1      62.984 163.664  37.463  0.00  0.00    +0.036 C 
ATOM     10  C   UNL     1      64.619 162.751  39.083  0.00  0.00    +0.029 C 
ATOM     11  C   UNL     1      64.732 161.324  39.564  0.00  0.00    +0.037 C 
ATOM     12  C   UNL     1      65.999 161.190  40.347  0.00  0.00    +0.143 C 
ATOM     13  O   UNL     1      65.609 161.372  41.665  0.00  0.00    -0.354 OA
ATOM     14  C   UNL     1      64.399 160.684  41.795  0.00  0.00    +0.143 C 
ATOM     15  C   UNL     1      63.681 160.883  40.486  0.00  0.00    +0.037 C 
ATOM     16  C   UNL     1      62.485 161.816  40.651  0.00  0.00    +0.029 C 
ENDROOT
BRANCH   6  17
ATOM     17  C   UNL     1      59.666 162.403  39.754  0.00  0.00    +0.045 C 
ATOM     18  C   UNL     1      59.301 161.129  39.507  0.00  0.00    +0.045 C 
ATOM     19  C   UNL     1      58.104 160.580  40.110  0.00  0.00    +0.196 C 
ATOM     20  O   UNL     1      57.781 159.386  39.874  0.00  0.00    -0.287 OA
ATOM     21  C   UNL     1      57.282 161.405  40.983  0.00  0.00    +0.045 C 
ATOM     22  C   UNL     1      57.616 162.706  41.250  0.00  0.00    +0.042 C 
ATOM     23  C   UNL     1      56.875 163.549  42.072  0.00  0.00    +0.006 C 
ATOM     24  C   UNL     1      55.736 162.972  42.625  0.00  0.00    +0.040 C 
ATOM     25  C   UNL     1      55.352 161.673  42.393  0.00  0.00    +0.174 C 
ATOM     26  C   UNL     1      56.131 160.879  41.563  0.00  0.00    +0.043 C 
ATOM     27  C   UNL     1      58.849 163.235  40.618  0.00  0.00    +0.196 C 
ATOM     28  O   UNL     1      59.128 164.433  40.867  0.00  0.00    -0.287 OA
BRANCH  25  29
ATOM     29  O   UNL     1      54.208 161.126  42.960  0.00  0.00    -0.336 OA
BRANCH  29  30
ATOM     30  S   UNL     1      53.333 159.834  42.253  0.00  0.00    +0.191 S 
ATOM     31  O   UNL     1      51.843 159.920  42.556  0.00  0.00    -0.125 OA
BRANCH  30  32
ATOM     32  O   UNL     1      53.980 158.340  42.773  0.00  0.00    -0.236 OA
ATOM     33  H   UNL     1      53.849 158.246  43.729  0.00  0.00    +0.246 HD
ENDBRANCH  30  32
ENDBRANCH  29  30
ENDBRANCH  25  29
ENDBRANCH   6  17
BRANCH   2  34
ATOM     34  O   UNL     1      59.237 165.661  35.651  0.00  0.00    -0.364 OA
BRANCH  34  35
ATOM     35  C   UNL     1      59.995 166.567  34.907  0.00  0.00    +0.415 C 
ATOM     36  O   UNL     1      59.725 166.695  33.689  0.00  0.00    -0.226 OA
ATOM     37  N   UNL     1      61.033 167.332  35.455  0.00  0.00    -0.188 N 
ATOM     38  H   UNL     1      61.251 167.238  36.411  0.00  0.00    +0.164 HD
BRANCH  37  39
ATOM     39  P   UNL     1      61.950 168.455  34.468  0.00  0.00    +0.426 P 
ATOM     40  O   UNL     1      62.354 169.671  35.270  0.00  0.00    -0.237 OA
BRANCH  39  41
ATOM     41  O   UNL     1      63.363 167.690  33.943  0.00  0.00    -0.310 OA
ATOM     42  H   UNL     1      63.298 166.737  34.115  0.00  0.00    +0.221 HD
ENDBRANCH  39  41
BRANCH  39  43
ATOM     43  O   UNL     1      61.089 168.992  33.137  0.00  0.00    -0.310 OA
ATOM     44  H   UNL     1      60.689 169.853  33.337  0.00  0.00    +0.221 HD
ENDBRANCH  39  43
ENDBRANCH  37  39
ENDBRANCH  34  35
ENDBRANCH   2  34
TORSDOF 9
ENDMDL
