REMARK  Name = =
REMARK  9 active torsions:
REMARK  status: ('A' for Active; 'I' for Inactive)
REMARK    1  A    between atoms: C_2  and  O_33
REMARK    2  A    between atoms: C_6  and  C_17
REMARK    3  A    between atoms: C_25  and  O_29
REMARK    4  A    between atoms: O_29  and  S_30
REMARK    5  A    between atoms: S_30  and  O_32
REMARK    6  A    between atoms: O_33  and  C_34
REMARK    7  A    between atoms: N_36  and  P_37
REMARK    8  A    between atoms: P_37  and  O_39
REMARK    9  A    between atoms: P_37  and  O_40
REMARK                            x       y       z     vdW  Elec       q    Type
REMARK                         _______ _______ _______ _____ _____    ______ ____
ROOT
ATOM      1  O   UNL     1      54.772 155.279  23.540  0.00  0.00    -0.407 OA
ATOM      2  C   UNL     1      55.299 155.099  22.267  0.00  0.00    +0.553 C 
ATOM      3  O   UNL     1      55.531 153.705  22.212  0.00  0.00    -0.407 OA
ATOM      4  C   UNL     1      54.901 153.111  23.292  0.00  0.00    +0.180 C 
ATOM      5  C   UNL     1      54.417 154.076  24.136  0.00  0.00    +0.180 C 
ATOM      6  C   UNL     1      53.719 153.769  25.338  0.00  0.00    +0.036 C 
ATOM      7  C   UNL     1      53.534 152.452  25.640  0.00  0.00    -0.023 C 
ATOM      8  C   UNL     1      54.022 151.453  24.792  0.00  0.00    -0.023 C 
ATOM      9  C   UNL     1      54.686 151.798  23.651  0.00  0.00    +0.036 C 
ATOM     10  C   UNL     1      53.805 150.042  25.158  0.00  0.00    +0.029 C 
ATOM     11  C   UNL     1      52.372 149.840  25.589  0.00  0.00    +0.037 C 
ATOM     12  C   UNL     1      52.275 148.530  26.303  0.00  0.00    +0.143 C 
ATOM     13  O   UNL     1      52.401 148.859  27.643  0.00  0.00    -0.354 OA
ATOM     14  C   UNL     1      51.654 150.028  27.813  0.00  0.00    +0.143 C 
ATOM     15  C   UNL     1      51.856 150.821  26.548  0.00  0.00    +0.037 C 
ATOM     16  C   UNL     1      52.727 152.048  26.801  0.00  0.00    +0.029 C 
ENDROOT
BRANCH   6  17
ATOM     17  C   UNL     1      53.207 154.933  26.065  0.00  0.00    +0.045 C 
ATOM     18  C   UNL     1      53.086 156.056  25.329  0.00  0.00    +0.045 C 
ATOM     19  C   UNL     1      52.602 157.280  25.933  0.00  0.00    +0.196 C 
ATOM     20  O   UNL     1      52.489 158.318  25.229  0.00  0.00    -0.287 OA
ATOM     21  C   UNL     1      52.250 157.307  27.345  0.00  0.00    +0.045 C 
ATOM     22  C   UNL     1      52.368 156.189  28.127  0.00  0.00    +0.042 C 
ATOM     23  C   UNL     1      52.051 156.146  29.481  0.00  0.00    +0.006 C 
ATOM     24  C   UNL     1      51.592 157.348  30.011  0.00  0.00    +0.040 C 
ATOM     25  C   UNL     1      51.453 158.500  29.275  0.00  0.00    +0.174 C 
ATOM     26  C   UNL     1      51.785 158.483  27.928  0.00  0.00    +0.043 C 
ATOM     27  C   UNL     1      52.864 154.953  27.475  0.00  0.00    +0.196 C 
ATOM     28  O   UNL     1      52.976 153.944  28.214  0.00  0.00    -0.287 OA
BRANCH  25  29
ATOM     29  O   UNL     1      50.991 159.685  29.834  0.00  0.00    -0.336 OA
BRANCH  29  30
ATOM     30  S   UNL     1      52.005 160.796  30.655  0.00  0.00    +0.191 S 
ATOM     31  O   UNL     1      52.514 161.895  29.731  0.00  0.00    -0.125 OA
BRANCH  30  32
ATOM     32  O   UNL     1      53.303 159.964  31.392  0.00  0.00    -0.236 OA
ATOM     33  H   UNL     1      52.954 159.271  31.974  0.00  0.00    +0.246 HD
ENDBRANCH  30  32
ENDBRANCH  29  30
ENDBRANCH  25  29
ENDBRANCH   6  17
BRANCH   2  34
ATOM     34  O   UNL     1      56.556 155.720  22.091  0.00  0.00    -0.364 OA
BRANCH  34  35
ATOM     35  C   UNL     1      57.024 155.885  20.786  0.00  0.00    +0.415 C 
ATOM     36  O   UNL     1      56.231 155.645  19.844  0.00  0.00    -0.226 OA
ATOM     37  N   UNL     1      58.327 156.303  20.484  0.00  0.00    -0.188 N 
ATOM     38  H   UNL     1      58.956 156.494  21.217  0.00  0.00    +0.164 HD
BRANCH  37  39
ATOM     39  P   UNL     1      58.857 156.492  18.823  0.00  0.00    +0.426 P 
ATOM     40  O   UNL     1      60.285 156.984  18.766  0.00  0.00    -0.237 OA
BRANCH  39  41
ATOM     41  O   UNL     1      58.798 154.987  18.057  0.00  0.00    -0.310 OA
ATOM     42  H   UNL     1      59.343 154.352  18.549  0.00  0.00    +0.221 HD
ENDBRANCH  39  41
BRANCH  39  43
ATOM     43  O   UNL     1      57.915 157.580  17.968  0.00  0.00    -0.310 OA
ATOM     44  H   UNL     1      57.945 158.446  18.404  0.00  0.00    +0.221 HD
ENDBRANCH  39  43
ENDBRANCH  37  39
ENDBRANCH  34  35
ENDBRANCH   2  34
TORSDOF 9
