REMARK  Name = =
REMARK  2 active torsions:
REMARK  status: ('A' for Active; 'I' for Inactive)
REMARK    1  A    between atoms: O_1  and  C_2
REMARK    2  A    between atoms: O_1  and  N_5
REMARK                            x       y       z     vdW  Elec       q    Type
REMARK                         _______ _______ _______ _____ _____    ______ ____
ROOT
ATOM      1  O   UNL     1      48.709 160.524  31.674  0.00  0.00    -0.331 OA
ENDROOT
BRANCH   1   2
ATOM      2  C   UNL     1      48.699 159.911  30.430  0.00  0.00    +0.420 C 
ATOM      3  O   UNL     1      48.371 158.740  30.326  0.00  0.00    -0.225 OA
ATOM      4  N   UNL     1      49.079 160.679  29.255  0.00  0.00    -0.293 N 
ATOM      5  H   UNL     1      49.342 161.623  29.348  0.00  0.00    +0.148 HD
ATOM      6  H   UNL     1      49.073 160.255  28.367  0.00  0.00    +0.148 HD
ENDBRANCH   1   2
BRANCH   1   7
ATOM      7  N   UNL     1      49.801 160.365  32.487  0.00  0.00    -0.135 N 
ATOM      8  C   UNL     1      51.066 160.950  32.187  0.00  0.00    +0.333 C 
ATOM      9  O   UNL     1      51.226 161.630  31.175  0.00  0.00    -0.262 OA
ATOM     10  H   UNL     1      49.709 159.828  33.307  0.00  0.00    +0.196 HD
ENDBRANCH   1   7
TORSDOF 2
