REMARK  Name = =
REMARK  3 active torsions:
REMARK  status: ('A' for Active; 'I' for Inactive)
REMARK    1  A    between atoms: C_1  and  O_10
REMARK    2  A    between atoms: N_3  and  N_4
REMARK    3  A    between atoms: O_10  and  N_11
REMARK                            x       y       z     vdW  Elec       q    Type
REMARK                         _______ _______ _______ _____ _____    ______ ____
ROOT
ATOM      1  C   UNL     1      50.698 161.444  31.178  0.00  0.00    +0.437 C 
ATOM      2  O   UNL     1      50.746 161.762  32.391  0.00  0.00    -0.223 OA
ATOM      3  N   UNL     1      51.908 161.610  30.406  0.00  0.00    -0.211 N 
ATOM      4  H   UNL     1      51.911 161.373  29.451  0.00  0.00    +0.173 HD
ENDROOT
BRANCH   3   5
ATOM      5  N   UNL     1      53.060 162.097  30.991  0.00  0.00    -0.198 NA
ATOM      6  C   UNL     1      53.738 161.087  31.746  0.00  0.00    +0.124 C 
ATOM      7  C   UNL     1      55.000 161.604  32.394  0.00  0.00    +0.161 C 
ATOM      8  O   UNL     1      55.680 162.530  31.621  0.00  0.00    -0.351 OA
ATOM      9  C   UNL     1      55.347 162.459  30.288  0.00  0.00    +0.161 C 
ATOM     10  C   UNL     1      53.896 162.888  30.144  0.00  0.00    +0.124 C 
ENDBRANCH   3   5
BRANCH   1  11
ATOM     11  O   UNL     1      49.530 160.953  30.602  0.00  0.00    -0.330 OA
BRANCH  11  12
ATOM     12  N   UNL     1      48.381 160.782  31.368  0.00  0.00    -0.135 N 
ATOM     13  C   UNL     1      47.870 159.491  31.594  0.00  0.00    +0.333 C 
ATOM     14  O   UNL     1      48.484 158.525  31.084  0.00  0.00    -0.262 OA
ATOM     15  H   UNL     1      47.925 161.565  31.752  0.00  0.00    +0.196 HD
ENDBRANCH  11  12
ENDBRANCH   1  11
TORSDOF 3
