REMARK  Name = =
REMARK  6 active torsions:
REMARK  status: ('A' for Active; 'I' for Inactive)
REMARK    1  A    between atoms: N_1  and  N_18
REMARK    2  A    between atoms: C_6  and  C_7
REMARK    3  A    between atoms: C_10  and  O_13
REMARK    4  A    between atoms: O_13  and  C_14
REMARK    5  A    between atoms: C_16  and  O_19
REMARK    6  A    between atoms: O_19  and  N_20
REMARK                            x       y       z     vdW  Elec       q    Type
REMARK                         _______ _______ _______ _____ _____    ______ ____
ROOT
ATOM      1  N   UNL     1      51.079 160.022  31.086  0.00  0.00    -0.195 NA
ATOM      2  C   UNL     1      50.236 160.114  32.236  0.00  0.00    +0.124 C 
ATOM      3  C   UNL     1      49.139 161.150  32.101  0.00  0.00    +0.161 C 
ATOM      4  O   UNL     1      48.658 161.095  30.813  0.00  0.00    -0.350 OA
ATOM      5  C   UNL     1      48.821 159.852  30.200  0.00  0.00    +0.164 C 
ATOM      6  C   UNL     1      50.294 159.615  29.936  0.00  0.00    +0.128 C 
ENDROOT
BRANCH   6   7
ATOM      7  C   UNL     1      50.538 158.235  29.504  0.00  0.00    -0.004 C 
ATOM      8  C   UNL     1      49.625 157.213  29.653  0.00  0.00    +0.000 C 
ATOM      9  C   UNL     1      49.851 155.919  29.247  0.00  0.00    +0.037 C 
ATOM     10  C   UNL     1      51.047 155.590  28.654  0.00  0.00    +0.149 C 
ATOM     11  C   UNL     1      51.979 156.593  28.493  0.00  0.00    +0.037 C 
ATOM     12  C   UNL     1      51.733 157.889  28.908  0.00  0.00    +0.000 C 
BRANCH  10  13
ATOM     13  O   UNL     1      51.362 154.324  28.216  0.00  0.00    -0.417 OA
BRANCH  13  14
ATOM     14  C   UNL     1      51.923 153.380  29.072  0.00  0.00    +0.423 C 
ATOM     15  O   UNL     1      51.993 153.695  30.285  0.00  0.00    -0.237 OA
ENDBRANCH  13  14
ENDBRANCH  10  13
ENDBRANCH   6   7
BRANCH   1  18
ATOM     16  C   UNL     1      52.875 161.691  31.487  0.00  0.00    +0.437 C 
ATOM     17  O   UNL     1      53.280 161.091  32.490  0.00  0.00    -0.223 OA
ATOM     18  N   UNL     1      51.764 161.172  30.759  0.00  0.00    -0.210 N 
ATOM     19  H   UNL     1      51.465 161.672  29.965  0.00  0.00    +0.173 HD
BRANCH  16  20
ATOM     20  O   UNL     1      53.524 162.859  31.104  0.00  0.00    -0.330 OA
BRANCH  20  21
ATOM     21  N   UNL     1      54.851 163.113  31.369  0.00  0.00    -0.135 N 
ATOM     22  C   UNL     1      55.907 162.393  30.727  0.00  0.00    +0.333 C 
ATOM     23  O   UNL     1      55.551 161.502  29.895  0.00  0.00    -0.262 OA
ATOM     24  H   UNL     1      55.081 163.813  32.022  0.00  0.00    +0.196 HD
ENDBRANCH  20  21
ENDBRANCH  16  20
ENDBRANCH   1  18
TORSDOF 6
