MODEL 1
REMARK VINA RESULT:    -5.899      0.000      0.000
REMARK INTER + INTRA:         -10.416
REMARK INTER:                  -9.519
REMARK INTRA:                  -0.897
REMARK UNBOUND:                -0.897
REMARK  Name = =
REMARK  12 active torsions:
REMARK  status: ('A' for Active; 'I' for Inactive)
REMARK    1  A    between atoms: C_1  and  C_2
REMARK    2  A    between atoms: C_1  and  S_8
REMARK    3  A    between atoms: C_1  and  O_17
REMARK    4  A    between atoms: S_8  and  N_9
REMARK    5  A    between atoms: S_8  and  P_13
REMARK    6  A    between atoms: N_9  and  N_10
REMARK    7  A    between atoms: P_13  and  O_15
REMARK    8  A    between atoms: P_13  and  O_16
REMARK    9  A    between atoms: O_17  and  S_18
REMARK   10  A    between atoms: C_19  and  N_26
REMARK   11  A    between atoms: N_26  and  S_27
REMARK   12  A    between atoms: S_27  and  N_30
REMARK                            x       y       z     vdW  Elec       q    Type
REMARK                         _______ _______ _______ _____ _____    ______ ____
ROOT
ATOM      1  C   UNL     1      60.570 164.851  37.550  0.00  0.00    +0.199 C 
ENDROOT
BRANCH   1   2
ATOM      2  C   UNL     1      60.807 166.107  38.344  0.00  0.00    +0.016 C 
ATOM      3  C   UNL     1      62.016 166.306  38.964  0.00  0.00    -0.001 C 
ATOM      4  C   UNL     1      62.227 167.483  39.697  0.00  0.00    -0.000 C 
ATOM      5  C   UNL     1      61.240 168.428  39.795  0.00  0.00    -0.000 C 
ATOM      6  C   UNL     1      60.030 168.232  39.174  0.00  0.00    -0.000 C 
ATOM      7  C   UNL     1      59.842 167.069  38.460  0.00  0.00    -0.001 C 
ENDBRANCH   1   2
BRANCH   1   8
ATOM      8  S   UNL     1      60.377 165.199  35.868  0.00  0.00    -0.074 S 
ATOM      9  H   UNL     1      59.405 166.129  35.666  0.00  0.00    +0.110 HD
BRANCH   8  10
ATOM     10  N   UNL     1      60.115 163.625  35.177  0.00  0.00    -0.194 NA
ATOM     11  H   UNL     1      60.832 162.983  35.515  0.00  0.00    +0.157 HD
BRANCH  10  12
ATOM     12  N   UNL     1      58.861 163.152  35.546  0.00  0.00    -0.234 N 
ATOM     13  C   UNL     1      58.236 162.151  34.758  0.00  0.00    +0.314 C 
ATOM     14  O   UNL     1      58.856 161.733  33.747  0.00  0.00    -0.264 OA
ATOM     15  H   UNL     1      58.412 163.508  36.347  0.00  0.00    +0.170 HD
ENDBRANCH  10  12
ENDBRANCH   8  10
BRANCH   8  16
ATOM     16  P   UNL     1      61.906 165.791  35.137  0.00  0.00    +0.221 P 
ATOM     17  S   UNL     1      61.985 167.531  35.239  0.00  0.00    +0.002 S 
BRANCH  16  18
ATOM     18  O   UNL     1      61.985 165.415  33.483  0.00  0.00    -0.340 OA
ATOM     19  H   UNL     1      62.905 165.231  33.237  0.00  0.00    +0.218 HD
ENDBRANCH  16  18
BRANCH  16  20
ATOM     20  O   UNL     1      63.323 165.203  35.843  0.00  0.00    -0.340 OA
ATOM     21  H   UNL     1      63.871 165.948  36.135  0.00  0.00    +0.218 HD
ENDBRANCH  16  20
ENDBRANCH   8  16
ENDBRANCH   1   8
BRANCH   1  22
ATOM     22  O   UNL     1      59.456 164.215  38.071  0.00  0.00    -0.308 OA
BRANCH  22  23
ATOM     23  S   UNL     1      60.031 163.590  39.674  0.00  0.00    -0.096 S 
ATOM     24  C   UNL     1      60.041 161.743  39.660  0.00  0.00    +0.176 C 
ATOM     25  N   UNL     1      58.586 161.629  39.596  0.00  0.00    -0.260 N 
ATOM     26  C   UNL     1      57.940 162.440  40.527  0.00  0.00    +0.107 C 
ATOM     27  C   UNL     1      58.514 163.571  40.760  0.00  0.00    +0.085 C 
ATOM     28  C   UNL     1      58.806 160.694  38.544  0.00  0.00    +0.231 C 
ATOM     29  O   UNL     1      58.179 159.782  37.948  0.00  0.00    -0.275 OA
ATOM     30  C   UNL     1      60.222 161.189  38.319  0.00  0.00    +0.131 C 
ATOM     31  H   UNL     1      61.171 164.264  39.987  0.00  0.00    +0.113 HD
BRANCH  24  32
ATOM     32  N   UNL     1      60.674 161.274  40.805  0.00  0.00    -0.146 NA
ATOM     33  H   UNL     1      60.029 161.414  41.583  0.00  0.00    +0.152 HD
BRANCH  32  34
ATOM     34  S   UNL     1      61.177 159.654  40.862  0.00  0.00    +0.095 S 
ATOM     35  O   UNL     1      60.215 158.676  40.321  0.00  0.00    -0.141 OA
ATOM     36  O   UNL     1      62.446 159.566  40.011  0.00  0.00    -0.141 OA
BRANCH  34  37
ATOM     37  N   UNL     1      61.564 159.151  42.483  0.00  0.00    -0.193 NA
ATOM     38  H   UNL     1      61.521 159.956  43.108  0.00  0.00    +0.145 HD
ATOM     39  H   UNL     1      62.505 158.757  42.501  0.00  0.00    +0.145 HD
ENDBRANCH  34  37
ENDBRANCH  32  34
ENDBRANCH  24  32
ENDBRANCH  22  23
ENDBRANCH   1  22
TORSDOF 12
ENDMDL
