REMARK  Name = =
REMARK  12 active torsions:
REMARK  status: ('A' for Active; 'I' for Inactive)
REMARK    1  A    between atoms: C_1  and  C_2
REMARK    2  A    between atoms: C_1  and  S_8
REMARK    3  A    between atoms: C_1  and  O_17
REMARK    4  A    between atoms: S_8  and  N_9
REMARK    5  A    between atoms: S_8  and  P_13
REMARK    6  A    between atoms: N_9  and  N_10
REMARK    7  A    between atoms: P_13  and  O_15
REMARK    8  A    between atoms: P_13  and  O_16
REMARK    9  A    between atoms: O_17  and  S_18
REMARK   10  A    between atoms: C_19  and  N_26
REMARK   11  A    between atoms: N_26  and  S_27
REMARK   12  A    between atoms: S_27  and  N_30
REMARK                            x       y       z     vdW  Elec       q    Type
REMARK                         _______ _______ _______ _____ _____    ______ ____
ROOT
ATOM      1  C   UNL     1      51.231 159.452  30.594  0.00  0.00    +0.199 C 
ENDROOT
BRANCH   1   2
ATOM      2  C   UNL     1      49.732 159.522  30.700  0.00  0.00    +0.016 C 
ATOM      3  C   UNL     1      48.993 159.994  29.643  0.00  0.00    -0.001 C 
ATOM      4  C   UNL     1      47.596 160.049  29.752  0.00  0.00    -0.000 C 
ATOM      5  C   UNL     1      46.970 159.637  30.899  0.00  0.00    -0.000 C 
ATOM      6  C   UNL     1      47.707 159.163  31.957  0.00  0.00    -0.000 C 
ATOM      7  C   UNL     1      49.078 159.117  31.831  0.00  0.00    -0.001 C 
ENDBRANCH   1   2
BRANCH   1   8
ATOM      8  S   UNL     1      51.938 161.029  30.643  0.00  0.00    -0.074 S 
ATOM      9  H   UNL     1      51.890 161.628  29.423  0.00  0.00    +0.110 HD
BRANCH   8  10
ATOM     10  N   UNL     1      53.516 160.723  31.307  0.00  0.00    -0.194 NA
ATOM     11  H   UNL     1      53.549 159.773  31.677  0.00  0.00    +0.157 HD
BRANCH  10  12
ATOM     12  N   UNL     1      54.479 160.866  30.315  0.00  0.00    -0.234 N 
ATOM     13  C   UNL     1      55.356 161.981  30.353  0.00  0.00    +0.314 C 
ATOM     14  O   UNL     1      55.218 162.800  31.298  0.00  0.00    -0.264 OA
ATOM     15  H   UNL     1      54.552 160.200  29.593  0.00  0.00    +0.170 HD
ENDBRANCH  10  12
ENDBRANCH   8  10
BRANCH   8  16
ATOM     16  P   UNL     1      51.115 162.083  31.840  0.00  0.00    +0.221 P 
ATOM     17  S   UNL     1      52.010 163.566  32.048  0.00  0.00    +0.002 S 
BRANCH  16  18
ATOM     18  O   UNL     1      51.060 161.351  33.372  0.00  0.00    -0.340 OA
ATOM     19  H   UNL     1      51.954 161.080  33.633  0.00  0.00    +0.218 HD
ENDBRANCH  16  18
BRANCH  16  20
ATOM     20  O   UNL     1      49.533 162.527  31.451  0.00  0.00    -0.340 OA
ATOM     21  H   UNL     1      49.521 162.951  30.579  0.00  0.00    +0.218 HD
ENDBRANCH  16  20
ENDBRANCH   8  16
ENDBRANCH   1   8
BRANCH   1  22
ATOM     22  O   UNL     1      51.550 158.786  29.422  0.00  0.00    -0.308 OA
BRANCH  22  23
ATOM     23  S   UNL     1      51.902 157.095  29.975  0.00  0.00    -0.096 S 
ATOM     24  C   UNL     1      52.732 156.152  28.620  0.00  0.00    +0.176 C 
ATOM     25  N   UNL     1      51.552 156.139  27.760  0.00  0.00    -0.260 N 
ATOM     26  C   UNL     1      50.395 155.757  28.438  0.00  0.00    +0.107 C 
ATOM     27  C   UNL     1      50.325 156.146  29.665  0.00  0.00    +0.085 C 
ATOM     28  C   UNL     1      52.429 156.557  26.719  0.00  0.00    +0.231 C 
ATOM     29  O   UNL     1      52.451 156.592  25.463  0.00  0.00    -0.275 OA
ATOM     30  C   UNL     1      53.483 157.015  27.709  0.00  0.00    +0.131 C 
ATOM     31  H   UNL     1      52.499 157.182  31.194  0.00  0.00    +0.113 HD
BRANCH  24  32
ATOM     32  N   UNL     1      53.184 154.933  29.113  0.00  0.00    -0.146 NA
ATOM     33  H   UNL     1      52.608 154.706  29.924  0.00  0.00    +0.152 HD
BRANCH  32  34
ATOM     34  S   UNL     1      53.165 153.576  28.094  0.00  0.00    +0.095 S 
ATOM     35  O   UNL     1      53.157 153.872  26.650  0.00  0.00    -0.141 OA
ATOM     36  O   UNL     1      54.446 152.794  28.393  0.00  0.00    -0.141 OA
BRANCH  34  37
ATOM     37  N   UNL     1      51.801 152.543  28.415  0.00  0.00    -0.193 NA
ATOM     38  H   UNL     1      51.773 152.316  29.409  0.00  0.00    +0.145 HD
ATOM     39  H   UNL     1      51.890 151.684  27.872  0.00  0.00    +0.145 HD
ENDBRANCH  34  37
ENDBRANCH  32  34
ENDBRANCH  24  32
ENDBRANCH  22  23
ENDBRANCH   1  22
TORSDOF 12
