REMARK  Name = =
REMARK  5 active torsions:
REMARK  status: ('A' for Active; 'I' for Inactive)
REMARK    1  A    between atoms: C_1  and  C_17
REMARK    2  A    between atoms: C_1  and  C_28
REMARK    3  A    between atoms: C_20  and  N_23
REMARK    4  A    between atoms: N_23  and  O_27
REMARK    5  A    between atoms: C_29  and  C_30
REMARK                            x       y       z     vdW  Elec       q    Type
REMARK                         _______ _______ _______ _____ _____    ______ ____
ROOT
ATOM      1  C   UNL     1      -9.780  -2.856  20.523  0.00  0.00    +0.049 C 
ATOM      2  C   UNL     1     -10.818  -3.727  19.917  0.00  0.00    +0.007 C 
ATOM      3  C   UNL     1     -12.117  -3.914  20.557  0.00  0.00    +0.008 C 
ATOM      4  C   UNL     1     -13.281  -3.080  20.263  0.00  0.00    +0.065 C 
ATOM      5  C   UNL     1     -13.980  -3.352  18.958  0.00  0.00    +0.151 C 
ATOM      6  O   UNL     1     -14.846  -4.175  18.804  0.00  0.00    -0.296 OA
ATOM      7  C   UNL     1     -13.537  -2.522  17.813  0.00  0.00    +0.065 C 
ATOM      8  C   UNL     1     -14.555  -2.171  16.793  0.00  0.00    +0.012 C 
ATOM      9  C   UNL     1     -14.216  -0.767  16.280  0.00  0.00    +0.048 C 
ATOM     10  C   UNL     1     -12.722  -0.502  16.284  0.00  0.00    +0.208 C 
ATOM     11  O   UNL     1     -12.392   0.394  17.283  0.00  0.00    -0.448 OA
ATOM     12  C   UNL     1     -11.232   0.961  17.681  0.00  0.00    +0.317 C 
ATOM     13  O   UNL     1     -11.099   2.233  17.647  0.00  0.00    -0.250 OA
ATOM     14  C   UNL     1     -10.064   0.198  18.172  0.00  0.00    +0.110 C 
ATOM     15  C   UNL     1     -10.527  -0.988  18.991  0.00  0.00    +0.012 C 
ATOM     16  C   UNL     1      -9.613  -1.466  20.037  0.00  0.00    +0.008 C 
ENDROOT
BRANCH   1  17
ATOM     17  C   UNL     1      -9.848  -2.813  22.026  0.00  0.00    +0.132 C 
ATOM     18  N   UNL     1     -10.069  -4.061  22.665  0.00  0.00    -0.278 NA
ATOM     19  C   UNL     1      -9.801  -3.966  24.081  0.00  0.00    +0.116 C 
ATOM     20  C   UNL     1     -10.503  -2.856  24.763  0.00  0.00    +0.090 C 
ATOM     21  C   UNL     1     -10.955  -1.858  23.997  0.00  0.00    +0.073 C 
ATOM     22  N   UNL     1     -10.767  -1.859  22.581  0.00  0.00    -0.320 N 
ATOM     23  H   UNL     1      -9.452  -4.761  22.254  0.00  0.00    +0.125 HD
ATOM     24  H   UNL     1     -11.252  -1.226  22.004  0.00  0.00    +0.148 HD
BRANCH  20  25
ATOM     25  N   UNL     1     -10.718  -2.796  26.153  0.00  0.00    -0.136 N 
ATOM     26  C   UNL     1     -11.834  -3.403  26.746  0.00  0.00    +0.327 C 
ATOM     27  O   UNL     1     -12.715  -4.047  26.138  0.00  0.00    -0.250 OA
ATOM     28  N   UNL     1     -11.980  -3.277  28.174  0.00  0.00    -0.311 N 
ATOM     29  H   UNL     1     -11.310  -2.778  28.695  0.00  0.00    +0.147 HD
ATOM     30  H   UNL     1     -12.750  -3.690  28.628  0.00  0.00    +0.147 HD
BRANCH  25  31
ATOM     31  O   UNL     1      -9.822  -2.134  26.942  0.00  0.00    -0.287 OA
ATOM     32  H   UNL     1      -9.111  -1.772  26.390  0.00  0.00    +0.242 HD
ENDBRANCH  25  31
ENDBRANCH  20  25
ENDBRANCH   1  17
BRANCH   1  33
ATOM     33  C   UNL     1      -8.453  -3.541  20.238  0.00  0.00    -0.020 C 
ATOM     34  C   UNL     1      -8.206  -4.199  19.142  0.00  0.00    +0.041 C 
BRANCH  34  35
ATOM     35  C   UNL     1      -6.924  -4.832  18.927  0.00  0.00    +0.234 C 
ATOM     36  O   UNL     1      -6.621  -5.394  17.839  0.00  0.00    -0.283 OA
ENDBRANCH  34  35
ENDBRANCH   1  33
TORSDOF 5
