REMARK  Name = =
REMARK  0 active torsions:
REMARK  status: ('A' for Active; 'I' for Inactive)
REMARK                            x       y       z     vdW  Elec       q    Type
REMARK                         _______ _______ _______ _____ _____    ______ ____
ROOT
ATOM      1  N   UNL     1      52.875 156.168  27.962  0.00  0.00    -0.052 NA
ATOM      2  O   UNL     1      52.544 154.933  27.747  0.00  0.00    -0.327 OA
ATOM      3  C   UNL     1      52.529 154.714  26.458  0.00  0.00    +0.316 C 
ATOM      4  N   UNL     1      52.864 155.849  25.835  0.00  0.00    -0.180 NA
ATOM      5  C   UNL     1      53.082 156.767  26.782  0.00  0.00    +0.243 C 
ENDROOT
TORSDOF 0
