REMARK  Name = =
REMARK  0 active torsions:
REMARK  status: ('A' for Active; 'I' for Inactive)
REMARK                            x       y       z     vdW  Elec       q    Type
REMARK                         _______ _______ _______ _____ _____    ______ ____
ROOT
ATOM      1  C   UNL     1      -4.752  -3.394  31.351  0.00  0.00    +0.000 C 
ATOM      2  C   UNL     1      -4.081  -4.517  30.967  0.00  0.00    +0.000 C 
ATOM      3  C   UNL     1      -3.864  -5.593  31.814  0.00  0.00    +0.000 C 
ATOM      4  C   UNL     1      -4.361  -5.500  33.097  0.00  0.00    +0.000 C 
ATOM      5  C   UNL     1      -5.044  -4.354  33.479  0.00  0.00    +0.000 C 
ATOM      6  C   UNL     1      -5.255  -3.287  32.632  0.00  0.00    +0.000 C 
ATOM      7  C   UNL     1      -4.167  -6.557  33.978  0.00  0.00    +0.000 C 
ATOM      8  C   UNL     1      -3.485  -7.685  33.571  0.00  0.00    +0.000 C 
ATOM      9  C   UNL     1      -2.979  -7.801  32.292  0.00  0.00    +0.000 C 
ATOM     10  C   UNL     1      -3.186  -6.732  31.434  0.00  0.00    +0.000 C 
ENDROOT
TORSDOF 0
