REMARK  Name = =
REMARK  0 active torsions:
REMARK  status: ('A' for Active; 'I' for Inactive)
REMARK                            x       y       z     vdW  Elec       q    Type
REMARK                         _______ _______ _______ _____ _____    ______ ____
ROOT
ATOM      1  N   UNL     1      -3.778  -3.918  30.858  0.00  0.00    -0.284 N 
ATOM      2  C   UNL     1      -2.790  -3.927  29.834  0.00  0.00    +0.047 C 
ATOM      3  C   UNL     1      -2.064  -5.086  29.876  0.00  0.00    +0.000 C 
ATOM      4  C   UNL     1      -1.023  -5.325  28.953  0.00  0.00    -0.003 C 
ATOM      5  C   UNL     1      -0.725  -4.388  27.995  0.00  0.00    -0.000 C 
ATOM      6  C   UNL     1      -1.469  -3.225  27.969  0.00  0.00    +0.001 C 
ATOM      7  C   UNL     1      -2.486  -2.973  28.856  0.00  0.00    +0.014 C 
ATOM      8  C   UNL     1      -2.579  -5.910  30.983  0.00  0.00    +0.113 C 
ATOM      9  C   UNL     1      -3.667  -5.127  31.578  0.00  0.00    +0.231 C 
ATOM     10  O   UNL     1      -4.382  -5.499  32.581  0.00  0.00    -0.274 OA
ATOM     11  H   UNL     1      -4.424  -3.196  31.033  0.00  0.00    +0.155 HD
ENDROOT
TORSDOF 0
