REMARK  Name = =
REMARK  1 active torsions:
REMARK  status: ('A' for Active; 'I' for Inactive)
REMARK    1  A    between atoms: C_7  and  C_11
REMARK                            x       y       z     vdW  Elec       q    Type
REMARK                         _______ _______ _______ _____ _____    ______ ____
ROOT
ATOM      1  N   UNL     1      -3.398  -3.990  30.936  0.00  0.00    -0.284 N 
ATOM      2  C   UNL     1      -2.442  -4.668  30.127  0.00  0.00    +0.043 C 
ATOM      3  C   UNL     1      -2.239  -5.937  30.670  0.00  0.00    +0.000 C 
ATOM      4  C   UNL     1      -1.412  -6.796  30.004  0.00  0.00    -0.003 C 
ATOM      5  C   UNL     1      -0.772  -6.409  28.810  0.00  0.00    -0.001 C 
ATOM      6  C   UNL     1      -0.996  -5.129  28.299  0.00  0.00    -0.003 C 
ATOM      7  C   UNL     1      -1.837  -4.265  28.966  0.00  0.00    -0.009 C 
ATOM      8  C   UNL     1      -2.868  -5.967  32.058  0.00  0.00    +0.113 C 
ATOM      9  C   UNL     1      -3.827  -4.861  31.998  0.00  0.00    +0.231 C 
ATOM     10  O   UNL     1      -4.849  -4.610  32.678  0.00  0.00    -0.274 OA
ATOM     11  H   UNL     1      -3.716  -3.069  30.791  0.00  0.00    +0.155 HD
ENDROOT
BRANCH   7  12
ATOM     12  C   UNL     1      -2.174  -2.913  28.390  0.00  0.00    +0.024 C 
ATOM     13  C   UNL     1      -0.822  -2.148  28.160  0.00  0.00    +0.005 C 
ATOM     14  C   UNL     1      -1.684  -2.541  27.021  0.00  0.00    +0.005 C 
ENDBRANCH   7  12
TORSDOF 1
