REMARK  Name = =
REMARK  2 active torsions:
REMARK  status: ('A' for Active; 'I' for Inactive)
REMARK    1  A    between atoms: C_1  and  C_11
REMARK    2  A    between atoms: C_11  and  O_13
REMARK                            x       y       z     vdW  Elec       q    Type
REMARK                         _______ _______ _______ _____ _____    ______ ____
ROOT
ATOM      1  C   UNL     1      -4.139  -3.566  31.596  0.00  0.00    +0.075 C 
ATOM      2  C   UNL     1      -3.362  -4.534  31.012  0.00  0.00    +0.006 C 
ATOM      3  C   UNL     1      -3.229  -5.809  31.533  0.00  0.00    +0.000 C 
ATOM      4  C   UNL     1      -3.901  -6.140  32.693  0.00  0.00    +0.000 C 
ATOM      5  C   UNL     1      -4.688  -5.169  33.290  0.00  0.00    +0.000 C 
ATOM      6  C   UNL     1      -4.812  -3.890  32.754  0.00  0.00    +0.006 C 
ATOM      7  C   UNL     1      -3.773  -7.410  33.220  0.00  0.00    +0.000 C 
ATOM      8  C   UNL     1      -2.996  -8.395  32.644  0.00  0.00    +0.000 C 
ATOM      9  C   UNL     1      -2.328  -8.054  31.486  0.00  0.00    +0.000 C 
ATOM     10  C   UNL     1      -2.448  -6.782  30.947  0.00  0.00    +0.000 C 
ENDROOT
BRANCH   1  11
ATOM     11  C   UNL     1      -4.260  -2.224  31.022  0.00  0.00    +0.338 C 
ATOM     12  O   UNL     1      -5.254  -1.516  31.318  0.00  0.00    -0.245 OA
BRANCH  11  13
ATOM     13  O   UNL     1      -3.325  -1.696  30.161  0.00  0.00    -0.477 OA
ATOM     14  H   UNL     1      -2.572  -2.200  29.921  0.00  0.00    +0.295 HD
ENDBRANCH  11  13
ENDBRANCH   1  11
TORSDOF 2
