REMARK  Name = =
REMARK  3 active torsions:
REMARK  status: ('A' for Active; 'I' for Inactive)
REMARK    1  A    between atoms: C_1  and  C_17
REMARK    2  A    between atoms: C_2  and  C_11
REMARK    3  A    between atoms: C_17  and  O_19
REMARK                            x       y       z     vdW  Elec       q    Type
REMARK                         _______ _______ _______ _____ _____    ______ ____
ROOT
ATOM      1  C   UNL     1      -4.061  -4.301  31.911  0.00  0.00    +0.072 C 
ATOM      2  C   UNL     1      -3.019  -4.956  31.229  0.00  0.00    -0.016 C 
ATOM      3  C   UNL     1      -2.630  -6.150  31.786  0.00  0.00    -0.004 C 
ATOM      4  C   UNL     1      -3.221  -6.684  32.924  0.00  0.00    -0.000 C 
ATOM      5  C   UNL     1      -4.239  -6.022  33.558  0.00  0.00    +0.000 C 
ATOM      6  C   UNL     1      -4.661  -4.826  33.049  0.00  0.00    +0.006 C 
ATOM      7  C   UNL     1      -2.725  -7.854  33.487  0.00  0.00    -0.000 C 
ATOM      8  C   UNL     1      -1.636  -8.536  32.972  0.00  0.00    -0.000 C 
ATOM      9  C   UNL     1      -1.039  -8.000  31.851  0.00  0.00    -0.000 C 
ATOM     10  C   UNL     1      -1.545  -6.826  31.285  0.00  0.00    -0.000 C 
ENDROOT
BRANCH   2  11
ATOM     11  C   UNL     1      -2.468  -4.360  30.009  0.00  0.00    +0.030 C 
ATOM     12  C   UNL     1      -2.107  -5.208  28.856  0.00  0.00    +0.069 C 
ATOM     13  C   UNL     1      -0.805  -4.706  28.314  0.00  0.00    +0.151 C 
ATOM     14  O   UNL     1      -0.125  -5.176  27.438  0.00  0.00    -0.296 OA
ATOM     15  C   UNL     1      -0.432  -3.470  29.050  0.00  0.00    +0.065 C 
ATOM     16  C   UNL     1      -1.296  -3.419  30.284  0.00  0.00    +0.013 C 
ENDBRANCH   2  11
BRANCH   1  17
ATOM     17  C   UNL     1      -4.499  -3.016  31.385  0.00  0.00    +0.338 C 
ATOM     18  O   UNL     1      -5.040  -2.845  30.288  0.00  0.00    -0.245 OA
BRANCH  17  19
ATOM     19  O   UNL     1      -4.256  -1.917  32.243  0.00  0.00    -0.477 OA
ATOM     20  H   UNL     1      -3.845  -2.053  33.074  0.00  0.00    +0.295 HD
ENDBRANCH  17  19
ENDBRANCH   1  17
TORSDOF 3
