REMARK  Name = =
REMARK  5 active torsions:
REMARK  status: ('A' for Active; 'I' for Inactive)
REMARK    1  A    between atoms: C_1  and  C_8
REMARK    2  A    between atoms: C_2  and  C_20
REMARK    3  A    between atoms: C_7  and  C_17
REMARK    4  A    between atoms: C_17  and  O_19
REMARK    5  A    between atoms: C_23  and  O_27
REMARK                            x       y       z     vdW  Elec       q    Type
REMARK                         _______ _______ _______ _____ _____    ______ ____
ROOT
ATOM      1  C   UNL     1      -3.330  -5.599  32.145  0.00  0.00    +0.056 C 
ATOM      2  C   UNL     1      -2.835  -6.982  32.011  0.00  0.00    +0.092 C 
ATOM      3  C   UNL     1      -2.310  -7.457  33.314  0.00  0.00    +0.177 C 
ATOM      4  O   UNL     1      -1.817  -8.533  33.564  0.00  0.00    -0.291 OA
ATOM      5  C   UNL     1      -2.472  -6.371  34.329  0.00  0.00    +0.034 C 
ATOM      6  C   UNL     1      -3.075  -5.200  33.616  0.00  0.00    -0.018 C 
ENDROOT
BRANCH   1   8
ATOM      7  C   UNL     1      -3.873  -3.572  30.828  0.00  0.00    +0.072 C 
ATOM      8  C   UNL     1      -2.922  -4.540  31.226  0.00  0.00    -0.011 C 
ATOM      9  C   UNL     1      -1.694  -4.316  30.653  0.00  0.00    -0.003 C 
ATOM     10  C   UNL     1      -1.394  -3.286  29.774  0.00  0.00    -0.000 C 
ATOM     11  C   UNL     1      -2.362  -2.399  29.430  0.00  0.00    +0.000 C 
ATOM     12  C   UNL     1      -3.590  -2.543  29.957  0.00  0.00    +0.006 C 
ATOM     13  C   UNL     1      -0.107  -3.064  29.319  0.00  0.00    -0.000 C 
ATOM     14  C   UNL     1       0.943  -3.872  29.749  0.00  0.00    -0.000 C 
ATOM     15  C   UNL     1       0.665  -4.886  30.626  0.00  0.00    -0.000 C 
ATOM     16  C   UNL     1      -0.648  -5.089  31.061  0.00  0.00    -0.000 C 
BRANCH   7  17
ATOM     17  C   UNL     1      -5.199  -3.513  31.423  0.00  0.00    +0.338 C 
ATOM     18  O   UNL     1      -5.303  -3.719  32.682  0.00  0.00    -0.245 OA
BRANCH  17  19
ATOM     19  O   UNL     1      -6.379  -3.262  30.754  0.00  0.00    -0.477 OA
ATOM     20  H   UNL     1      -6.369  -3.103  29.831  0.00  0.00    +0.295 HD
ENDBRANCH  17  19
ENDBRANCH   7  17
ENDBRANCH   1   8
BRANCH   2  21
ATOM     21  C   UNL     1      -2.274  -7.514  30.795  0.00  0.00    -0.014 C 
ATOM     22  C   UNL     1      -0.966  -7.334  30.401  0.00  0.00    +0.006 C 
ATOM     23  C   UNL     1      -0.425  -7.844  29.277  0.00  0.00    +0.068 C 
ATOM     24  C   UNL     1      -1.197  -8.607  28.426  0.00  0.00    +0.140 C 
ATOM     25  C   UNL     1      -2.532  -8.834  28.754  0.00  0.00    +0.037 C 
ATOM     26  C   UNL     1      -3.024  -8.288  29.918  0.00  0.00    -0.001 C 
ATOM     27 BR   UNL     1       1.399  -7.571  28.764  0.00  0.00    -0.046 Br
BRANCH  24  28
ATOM     28  O   UNL     1      -0.686  -9.170  27.244  0.00  0.00    -0.505 OA
ATOM     29  H   UNL     1      -1.242  -9.683  26.691  0.00  0.00    +0.292 HD
ENDBRANCH  24  28
ENDBRANCH   2  21
TORSDOF 5
