REMARK  Name = =
REMARK  7 active torsions:
REMARK  status: ('A' for Active; 'I' for Inactive)
REMARK    1  A    between atoms: C_1  and  C_30
REMARK    2  A    between atoms: C_2  and  C_11
REMARK    3  A    between atoms: C_8  and  C_25
REMARK    4  A    between atoms: C_12  and  C_17
REMARK    5  A    between atoms: C_20  and  O_24
REMARK    6  A    between atoms: C_25  and  C_27
REMARK    7  A    between atoms: C_30  and  O_32
REMARK                            x       y       z     vdW  Elec       q    Type
REMARK                         _______ _______ _______ _____ _____    ______ ____
ROOT
ATOM      1  C   UNL     1      -2.705  -7.719  31.115  0.00  0.00    +0.072 C 
ATOM      2  C   UNL     1      -1.939  -6.675  30.510  0.00  0.00    -0.016 C 
ATOM      3  C   UNL     1      -1.192  -6.899  29.375  0.00  0.00    -0.004 C 
ATOM      4  C   UNL     1      -1.214  -8.191  28.817  0.00  0.00    -0.001 C 
ATOM      5  C   UNL     1      -1.950  -9.217  29.371  0.00  0.00    +0.000 C 
ATOM      6  C   UNL     1      -2.661  -8.953  30.489  0.00  0.00    +0.006 C 
ATOM      7  C   UNL     1      -0.428  -8.447  27.725  0.00  0.00    -0.001 C 
ATOM      8  C   UNL     1       0.409  -7.533  27.115  0.00  0.00    +0.017 C 
ATOM      9  C   UNL     1       0.407  -6.289  27.685  0.00  0.00    -0.001 C 
ATOM     10  C   UNL     1      -0.362  -5.962  28.782  0.00  0.00    -0.001 C 
ENDROOT
BRANCH   2  11
ATOM     11  C   UNL     1      -2.059  -5.408  31.214  0.00  0.00    +0.034 C 
ATOM     12  C   UNL     1      -3.435  -4.883  30.720  0.00  0.00    +0.084 C 
ATOM     13  C   UNL     1      -3.081  -4.052  29.512  0.00  0.00    +0.155 C 
ATOM     14  O   UNL     1      -3.654  -3.914  28.466  0.00  0.00    -0.296 OA
ATOM     15  C   UNL     1      -1.803  -3.376  29.862  0.00  0.00    +0.065 C 
ATOM     16  C   UNL     1      -1.335  -4.177  31.016  0.00  0.00    +0.013 C 
BRANCH  12  17
ATOM     17  C   UNL     1      -4.159  -4.024  31.625  0.00  0.00    -0.015 C 
ATOM     18  C   UNL     1      -5.324  -3.451  31.088  0.00  0.00    +0.006 C 
ATOM     19  C   UNL     1      -6.123  -2.620  31.830  0.00  0.00    +0.068 C 
ATOM     20  C   UNL     1      -5.809  -2.326  33.112  0.00  0.00    +0.140 C 
ATOM     21  C   UNL     1      -4.663  -2.882  33.656  0.00  0.00    +0.037 C 
ATOM     22  C   UNL     1      -3.846  -3.726  32.914  0.00  0.00    -0.001 C 
ATOM     23 BR   UNL     1      -7.712  -1.845  31.058  0.00  0.00    -0.046 Br
BRANCH  20  24
ATOM     24  O   UNL     1      -6.641  -1.485  33.835  0.00  0.00    -0.505 OA
ATOM     25  H   UNL     1      -7.408  -1.127  33.434  0.00  0.00    +0.292 HD
ENDBRANCH  20  24
ENDBRANCH  12  17
ENDBRANCH   2  11
BRANCH   8  26
ATOM     26  C   UNL     1       1.276  -7.913  26.014  0.00  0.00    +0.249 C 
ATOM     27  O   UNL     1       1.269  -9.182  25.708  0.00  0.00    -0.208 OA
BRANCH  26  28
ATOM     28  C   UNL     1       2.141  -7.102  25.228  0.00  0.00    +0.254 C 
ATOM     29  O   UNL     1       2.129  -5.854  25.333  0.00  0.00    -0.272 OA
ATOM     30  N   UNL     1       3.045  -7.740  24.307  0.00  0.00    -0.326 N 
ATOM     31  H   UNL     1       3.651  -7.195  23.755  0.00  0.00    +0.145 HD
ATOM     32  H   UNL     1       3.057  -8.721  24.229  0.00  0.00    +0.145 HD
ENDBRANCH  26  28
ENDBRANCH   8  26
BRANCH   1  33
ATOM     33  C   UNL     1      -3.460  -7.600  32.341  0.00  0.00    +0.338 C 
ATOM     34  O   UNL     1      -4.624  -8.201  32.300  0.00  0.00    -0.245 OA
BRANCH  33  35
ATOM     35  O   UNL     1      -3.217  -7.010  33.517  0.00  0.00    -0.477 OA
ATOM     36  H   UNL     1      -2.412  -6.551  33.653  0.00  0.00    +0.295 HD
ENDBRANCH  33  35
ENDBRANCH   1  33
TORSDOF 7
