REMARK  Name = =
REMARK  8 active torsions:
REMARK  status: ('A' for Active; 'I' for Inactive)
REMARK    1  A    between atoms: C_1  and  C_35
REMARK    2  A    between atoms: C_2  and  C_11
REMARK    3  A    between atoms: C_8  and  C_30
REMARK    4  A    between atoms: C_11  and  C_25
REMARK    5  A    between atoms: C_12  and  C_17
REMARK    6  A    between atoms: C_20  and  O_24
REMARK    7  A    between atoms: C_30  and  C_32
REMARK    8  A    between atoms: C_35  and  O_37
REMARK                            x       y       z     vdW  Elec       q    Type
REMARK                         _______ _______ _______ _____ _____    ______ ____
ROOT
ATOM      1  C   UNL     1      -3.075  -5.036  30.320  0.00  0.00    +0.072 C 
ATOM      2  C   UNL     1      -1.701  -5.132  30.456  0.00  0.00    -0.011 C 
ATOM      3  C   UNL     1      -0.890  -4.220  29.739  0.00  0.00    -0.004 C 
ATOM      4  C   UNL     1      -1.449  -3.253  28.896  0.00  0.00    -0.000 C 
ATOM      5  C   UNL     1      -2.812  -3.177  28.759  0.00  0.00    +0.000 C 
ATOM      6  C   UNL     1      -3.603  -4.031  29.444  0.00  0.00    +0.006 C 
ATOM      7  C   UNL     1      -0.649  -2.328  28.236  0.00  0.00    +0.003 C 
ATOM      8  C   UNL     1       0.712  -2.292  28.364  0.00  0.00    +0.044 C 
ATOM      9  C   UNL     1       1.257  -3.259  29.216  0.00  0.00    +0.003 C 
ATOM     10  C   UNL     1       0.471  -4.186  29.878  0.00  0.00    -0.000 C 
ENDROOT
BRANCH   2  11
ATOM     11  C   UNL     1      -1.110  -6.230  31.219  0.00  0.00    +0.082 C 
ATOM     12  C   UNL     1      -1.444  -7.498  30.369  0.00  0.00    +0.088 C 
ATOM     13  C   UNL     1      -0.899  -8.495  31.412  0.00  0.00    +0.155 C 
ATOM     14  O   UNL     1      -1.422  -9.340  32.044  0.00  0.00    -0.296 OA
ATOM     15  C   UNL     1       0.507  -8.078  31.388  0.00  0.00    +0.065 C 
ATOM     16  C   UNL     1       0.321  -6.535  31.266  0.00  0.00    +0.017 C 
BRANCH  12  17
ATOM     17  C   UNL     1      -0.671  -7.779  29.189  0.00  0.00    -0.014 C 
ATOM     18  C   UNL     1       0.078  -6.981  28.391  0.00  0.00    +0.006 C 
ATOM     19  C   UNL     1       0.746  -7.456  27.288  0.00  0.00    +0.068 C 
ATOM     20  C   UNL     1       0.693  -8.781  26.923  0.00  0.00    +0.140 C 
ATOM     21  C   UNL     1      -0.055  -9.635  27.701  0.00  0.00    +0.037 C 
ATOM     22  C   UNL     1      -0.709  -9.137  28.792  0.00  0.00    -0.001 C 
ATOM     23 BR   UNL     1       1.801  -6.289  26.180  0.00  0.00    -0.046 Br
BRANCH  20  24
ATOM     24  O   UNL     1       1.372  -9.263  25.802  0.00  0.00    -0.505 OA
ATOM     25  H   UNL     1       1.880  -8.678  25.275  0.00  0.00    +0.292 HD
ENDBRANCH  20  24
ENDBRANCH  12  17
BRANCH  11  26
ATOM     26  C   UNL     1      -1.741  -6.602  32.528  0.00  0.00    +0.240 C 
ATOM     27  O   UNL     1      -2.486  -5.651  33.145  0.00  0.00    -0.328 OA
ATOM     28  C   UNL     1      -2.712  -6.201  34.410  0.00  0.00    +0.177 C 
ATOM     29  C   UNL     1      -1.307  -6.725  34.726  0.00  0.00    +0.177 C 
ATOM     30  O   UNL     1      -0.639  -6.621  33.512  0.00  0.00    -0.328 OA
ENDBRANCH  11  26
ENDBRANCH   2  11
BRANCH   8  31
ATOM     31  C   UNL     1       1.568  -1.345  27.691  0.00  0.00    +0.248 C 
ATOM     32  O   UNL     1       2.609  -0.926  28.299  0.00  0.00    -0.282 OA
BRANCH  31  33
ATOM     33  C   UNL     1       1.357  -0.814  26.371  0.00  0.00    +0.282 C 
ATOM     34  O   UNL     1       0.360  -1.060  25.639  0.00  0.00    -0.267 OA
ATOM     35  N   UNL     1       2.322   0.083  25.766  0.00  0.00    -0.323 N 
ATOM     36  H   UNL     1       3.136   0.336  26.259  0.00  0.00    +0.145 HD
ATOM     37  H   UNL     1       2.164   0.439  24.862  0.00  0.00    +0.145 HD
ENDBRANCH  31  33
ENDBRANCH   8  31
BRANCH   1  38
ATOM     38  C   UNL     1      -4.103  -5.689  31.082  0.00  0.00    +0.338 C 
ATOM     39  O   UNL     1      -4.371  -6.877  30.784  0.00  0.00    -0.245 OA
BRANCH  38  40
ATOM     40  O   UNL     1      -4.818  -5.155  32.072  0.00  0.00    -0.477 OA
ATOM     41  H   UNL     1      -4.662  -4.270  32.338  0.00  0.00    +0.295 HD
ENDBRANCH  38  40
ENDBRANCH   1  38
TORSDOF 8
