REMARK  Name = =
REMARK  6 active torsions:
REMARK  status: ('A' for Active; 'I' for Inactive)
REMARK    1  A    between atoms: N_1  and  S_23
REMARK    2  A    between atoms: C_6  and  C_7
REMARK    3  A    between atoms: C_11  and  N_14
REMARK    4  A    between atoms: S_23  and  N_26
REMARK    5  A    between atoms: N_26  and  N_27
REMARK    6  A    between atoms: C_32  and  O_37
REMARK                            x       y       z     vdW  Elec       q    Type
REMARK                         _______ _______ _______ _____ _____    ______ ____
ROOT
ATOM      1  S   UNL     1      -0.523   0.499  22.060  0.00  0.00    +0.114 S 
ATOM      2  O   UNL     1       0.234   1.763  22.415  0.00  0.00    -0.140 OA
ATOM      3  O   UNL     1      -0.166  -0.523  23.072  0.00  0.00    -0.140 OA
ENDROOT
BRANCH   1   4
ATOM      4  N   UNL     1      -0.082   0.046  20.473  0.00  0.00    -0.138 NA
ATOM      5  C   UNL     1      -0.916   0.636  19.465  0.00  0.00    +0.097 C 
ATOM      6  C   UNL     1      -0.444   1.993  19.012  0.00  0.00    +0.019 C 
ATOM      7  C   UNL     1       1.025   2.145  18.936  0.00  0.00    +0.003 C 
ATOM      8  C   UNL     1       1.777   1.503  20.111  0.00  0.00    +0.026 C 
ATOM      9  C   UNL     1       1.310   0.082  20.177  0.00  0.00    +0.138 C 
BRANCH   9  10
ATOM     10  C   UNL     1       2.082  -0.644  21.202  0.00  0.00    +0.142 C 
ATOM     11  C   UNL     1       2.189  -2.016  21.098  0.00  0.00    +0.078 C 
ATOM     12  C   UNL     1       2.888  -2.755  22.010  0.00  0.00    +0.215 C 
ATOM     13  O   UNL     1       3.001  -4.011  21.937  0.00  0.00    -0.285 OA
ATOM     14  C   UNL     1       3.515  -2.108  23.082  0.00  0.00    +0.128 C 
ATOM     15  C   UNL     1       3.370  -0.760  23.124  0.00  0.00    +0.197 C 
ATOM     16  O   UNL     1       2.682  -0.101  22.213  0.00  0.00    -0.452 OA
BRANCH  14  17
ATOM     17  N   UNL     1       4.237  -2.875  24.023  0.00  0.00    -0.279 N 
ATOM     18  C   UNL     1       4.890  -2.380  25.154  0.00  0.00    +0.227 C 
ATOM     19  O   UNL     1       4.899  -1.177  25.448  0.00  0.00    -0.275 OA
ATOM     20  C   UNL     1       5.616  -3.348  26.053  0.00  0.00    +0.095 C 
ATOM     21  H   UNL     1       4.284  -3.846  23.868  0.00  0.00    +0.155 HD
ENDBRANCH  14  17
ENDBRANCH   9  10
ENDBRANCH   1   4
BRANCH   1  22
ATOM     22  N   UNL     1      -2.196   0.897  22.077  0.00  0.00    -0.090 NA
ATOM     23  H   UNL     1      -2.327   1.548  21.303  0.00  0.00    +0.173 HD
BRANCH  22  24
ATOM     24  N   UNL     1      -3.235  -0.010  21.973  0.00  0.00    -0.176 N 
ATOM     25  C   UNL     1      -4.487   0.112  22.439  0.00  0.00    +0.177 A 
ATOM     26  N   UNL     1      -5.109   1.107  23.122  0.00  0.00    -0.196 NA
ATOM     27  C   UNL     1      -6.407   0.973  23.480  0.00  0.00    +0.218 A 
ATOM     28  N   UNL     1      -7.137  -0.117  23.190  0.00  0.00    -0.178 NA
ATOM     29  C   UNL     1      -6.538  -1.119  22.509  0.00  0.00    +0.245 A 
ATOM     30  C   UNL     1      -5.210  -1.006  22.132  0.00  0.00    +0.169 A 
ATOM     31  N   UNL     1      -4.377  -1.826  21.465  0.00  0.00    -0.219 NA
ATOM     32  C   UNL     1      -3.176  -1.199  21.378  0.00  0.00    +0.185 C 
ATOM     33  N   UNL     1      -7.079   2.016  24.203  0.00  0.00    -0.327 N 
ATOM     34  H   UNL     1      -6.595   2.839  24.444  0.00  0.00    +0.145 HD
ATOM     35  H   UNL     1      -8.024   1.908  24.458  0.00  0.00    +0.145 HD
BRANCH  29  36
ATOM     36  O   UNL     1      -7.229  -2.284  22.170  0.00  0.00    -0.491 OA
ATOM     37  H   UNL     1      -8.128  -2.383  22.414  0.00  0.00    +0.294 HD
ENDBRANCH  29  36
ENDBRANCH  22  24
ENDBRANCH   1  22
TORSDOF 6
REMARK  Name = =
REMARK  6 active torsions:
REMARK  status: ('A' for Active; 'I' for Inactive)
REMARK    1  A    between atoms: N_1  and  S_23
REMARK    2  A    between atoms: C_6  and  C_7
REMARK    3  A    between atoms: C_11  and  N_14
REMARK    4  A    between atoms: S_23  and  N_26
REMARK    5  A    between atoms: N_26  and  N_27
REMARK    6  A    between atoms: C_32  and  O_37
REMARK                            x       y       z     vdW  Elec       q    Type
REMARK                         _______ _______ _______ _____ _____    ______ ____
ROOT
ATOM      1  P   UNL     1       1.553   3.763  18.746  0.00  0.00    +0.000 P 
ENDROOT
TORSDOF 0
REMARK  Name = =
REMARK  6 active torsions:
REMARK  status: ('A' for Active; 'I' for Inactive)
REMARK    1  A    between atoms: N_1  and  S_23
REMARK    2  A    between atoms: C_6  and  C_7
REMARK    3  A    between atoms: C_11  and  N_14
REMARK    4  A    between atoms: S_23  and  N_26
REMARK    5  A    between atoms: N_26  and  N_27
REMARK    6  A    between atoms: C_32  and  O_37
REMARK                            x       y       z     vdW  Elec       q    Type
REMARK                         _______ _______ _______ _____ _____    ______ ____
ROOT
ATOM      1  O   HOH     1       3.059   3.659  18.527  0.00  0.00    -0.253 OA
ATOM      2  H   HOH     0       4.029   3.659  18.527  0.00  0.00    +0.253 HD
ENDROOT
TORSDOF 0
REMARK  Name = =
REMARK  6 active torsions:
REMARK  status: ('A' for Active; 'I' for Inactive)
REMARK    1  A    between atoms: N_1  and  S_23
REMARK    2  A    between atoms: C_6  and  C_7
REMARK    3  A    between atoms: C_11  and  N_14
REMARK    4  A    between atoms: S_23  and  N_26
REMARK    5  A    between atoms: N_26  and  N_27
REMARK    6  A    between atoms: C_32  and  O_37
REMARK                            x       y       z     vdW  Elec       q    Type
REMARK                         _______ _______ _______ _____ _____    ______ ____
ROOT
ATOM      1  O   HOH     1       1.905   5.271  18.306  0.00  0.00    -0.253 OA
ATOM      2  H   HOH     0       2.875   5.271  18.306  0.00  0.00    +0.253 HD
ENDROOT
TORSDOF 0
REMARK  Name = =
REMARK  6 active torsions:
REMARK  status: ('A' for Active; 'I' for Inactive)
REMARK    1  A    between atoms: N_1  and  S_23
REMARK    2  A    between atoms: C_6  and  C_7
REMARK    3  A    between atoms: C_11  and  N_14
REMARK    4  A    between atoms: S_23  and  N_26
REMARK    5  A    between atoms: N_26  and  N_27
REMARK    6  A    between atoms: C_32  and  O_37
REMARK                            x       y       z     vdW  Elec       q    Type
REMARK                         _______ _______ _______ _____ _____    ______ ____
ROOT
ATOM      1  O   HOH     1       1.503   3.875  20.455  0.00  0.00    -0.253 OA
ATOM      2  H   HOH     0       2.473   3.875  20.455  0.00  0.00    +0.253 HD
ENDROOT
TORSDOF 0
REMARK  Name = =
REMARK  6 active torsions:
REMARK  status: ('A' for Active; 'I' for Inactive)
REMARK    1  A    between atoms: N_1  and  S_23
REMARK    2  A    between atoms: C_6  and  C_7
REMARK    3  A    between atoms: C_11  and  N_14
REMARK    4  A    between atoms: S_23  and  N_26
REMARK    5  A    between atoms: N_26  and  N_27
REMARK    6  A    between atoms: C_32  and  O_37
REMARK                            x       y       z     vdW  Elec       q    Type
REMARK                         _______ _______ _______ _____ _____    ______ ____
ROOT
ATOM      1  O   HOH     1       0.984   4.147  17.173  0.00  0.00    -0.253 OA
ATOM      2  H   HOH     0       1.954   4.147  17.173  0.00  0.00    +0.253 HD
ENDROOT
TORSDOF 0
