MODEL 1
REMARK VINA RESULT:    -5.873      0.000      0.000
REMARK INTER + INTRA:          -8.667
REMARK INTER:                  -7.590
REMARK INTRA:                  -1.077
REMARK UNBOUND:                -1.077
REMARK  Name = =
REMARK  5 active torsions:
REMARK  status: ('A' for Active; 'I' for Inactive)
REMARK    1  A    between atoms: C_1  and  N_10
REMARK    2  A    between atoms: C_1  and  C_22
REMARK    3  A    between atoms: N_13  and  C_16
REMARK    4  A    between atoms: C_22  and  N_23
REMARK    5  A    between atoms: N_23  and  C_24
REMARK                            x       y       z     vdW  Elec       q    Type
REMARK                         _______ _______ _______ _____ _____    ______ ____
ROOT
ATOM      1  C   UNL     1      57.977 161.247  41.165  0.00  0.00    +0.060 C 
ATOM      2  C   UNL     1      58.504 160.139  40.400  0.00  0.00    +0.015 C 
ATOM      3  C   UNL     1      58.215 160.101  38.922  0.00  0.00    +0.001 C 
ATOM      4  C   UNL     1      58.836 158.785  38.488  0.00  0.00    +0.000 C 
ATOM      5  C   UNL     1      59.276 158.068  39.767  0.00  0.00    +0.000 C 
ATOM      6  C   UNL     1      58.335 158.742  40.790  0.00  0.00    +0.001 C 
ATOM      7  C   UNL     1      58.851 161.293  38.296  0.00  0.00    +0.000 C 
ATOM      8  C   UNL     1      59.397 162.236  39.334  0.00  0.00    +0.001 C 
ATOM      9  C   UNL     1      58.419 162.530  40.445  0.00  0.00    +0.016 C 
ENDROOT
BRANCH   1  10
ATOM     10  N   UNL     1      56.576 161.344  41.382  0.00  0.00    -0.271 NA
ATOM     11  C   UNL     1      56.095 162.667  41.580  0.00  0.00    +0.094 C 
ATOM     12  C   UNL     1      54.633 162.715  41.185  0.00  0.00    +0.108 C 
ATOM     13  N   UNL     1      53.934 161.834  42.115  0.00  0.00    -0.305 N 
ATOM     14  C   UNL     1      54.770 161.115  43.035  0.00  0.00    +0.108 C 
ATOM     15  C   UNL     1      55.987 160.473  42.338  0.00  0.00    +0.094 C 
BRANCH  13  16
ATOM     16  C   UNL     1      52.521 161.759  42.029  0.00  0.00    +0.048 C 
ATOM     17  C   UNL     1      51.827 162.881  41.664  0.00  0.00    +0.015 C 
ATOM     18  C   UNL     1      50.456 162.837  41.575  0.00  0.00    +0.001 C 
ATOM     19  C   UNL     1      49.778 161.659  41.856  0.00  0.00    +0.000 C 
ATOM     20  C   UNL     1      50.489 160.538  42.221  0.00  0.00    +0.001 C 
ATOM     21  C   UNL     1      51.858 160.597  42.306  0.00  0.00    +0.015 C 
ENDBRANCH  13  16
ENDBRANCH   1  10
BRANCH   1  22
ATOM     22  C   UNL     1      58.646 161.328  42.550  0.00  0.00    +0.086 C 
BRANCH  22  23
ATOM     23  N   UNL     1      59.660 162.329  42.576  0.00  0.00    -0.263 NA
ATOM     24  H   UNL     1      59.450 162.974  43.339  0.00  0.00    +0.127 HD
BRANCH  23  25
ATOM     25  C   UNL     1      60.984 161.837  42.765  0.00  0.00    +0.228 C 
ATOM     26  O   UNL     1      61.092 160.454  42.454  0.00  0.00    -0.436 OA
ATOM     27  C   UNL     1      62.170 159.871  41.828  0.00  0.00    +0.318 C 
ATOM     28  O   UNL     1      62.141 158.655  41.519  0.00  0.00    -0.250 OA
ATOM     29  C   UNL     1      63.411 160.629  41.485  0.00  0.00    +0.110 C 
ATOM     30  C   UNL     1      63.390 161.961  42.211  0.00  0.00    +0.017 C 
ATOM     31  C   UNL     1      62.016 162.563  41.928  0.00  0.00    +0.062 C 
ENDBRANCH  23  25
ENDBRANCH  22  23
ENDBRANCH   1  22
TORSDOF 5
ENDMDL
