MODEL 1
REMARK VINA RESULT:    -6.602      0.000      0.000
REMARK INTER + INTRA:         -10.071
REMARK INTER:                  -9.111
REMARK INTRA:                  -0.959
REMARK UNBOUND:                -0.959
REMARK  Name = =
REMARK  8 active torsions:
REMARK  status: ('A' for Active; 'I' for Inactive)
REMARK    1  A    between atoms: C_1  and  O_30
REMARK    2  A    between atoms: C_4  and  C_7
REMARK    3  A    between atoms: C_13  and  O_15
REMARK    4  A    between atoms: N_16  and  C_17
REMARK    5  A    between atoms: C_18  and  N_24
REMARK    6  A    between atoms: C_20  and  O_29
REMARK    7  A    between atoms: O_30  and  C_31
REMARK    8  A    between atoms: C_31  and  O_33
REMARK                            x       y       z     vdW  Elec       q    Type
REMARK                         _______ _______ _______ _____ _____    ______ ____
ROOT
ATOM      1  C   UNL     1      59.269 164.698  35.213  0.00  0.00    +0.202 C 
ATOM      2  C   UNL     1      60.259 164.991  36.158  0.00  0.00    +0.170 C 
ATOM      3  N   UNL     1      60.703 163.976  36.923  0.00  0.00    -0.213 NA
ATOM      4  C   UNL     1      60.270 162.708  36.854  0.00  0.00    +0.140 C 
ATOM      5  N   UNL     1      59.319 162.410  35.953  0.00  0.00    -0.226 NA
ATOM      6  C   UNL     1      58.829 163.399  35.146  0.00  0.00    +0.141 C 
ATOM      7  N   UNL     1      60.693 166.322  36.328  0.00  0.00    -0.294 N 
ATOM      8  H   UNL     1      60.401 166.997  35.673  0.00  0.00    +0.154 HD
ENDROOT
BRANCH   4   9
ATOM      9  C   UNL     1      60.803 161.657  37.793  0.00  0.00    +0.062 C 
ATOM     10  C   UNL     1      61.452 162.376  38.952  0.00  0.00    +0.029 C 
ATOM     11  C   UNL     1      60.608 162.334  40.213  0.00  0.00    +0.097 C 
ATOM     12  N   UNL     1      60.194 160.964  40.493  0.00  0.00    -0.246 N 
ATOM     13  C   UNL     1      60.290 159.944  39.453  0.00  0.00    +0.097 C 
ATOM     14  C   UNL     1      59.792 160.633  38.176  0.00  0.00    +0.029 C 
ATOM     15  C   UNL     1      59.703 160.630  41.758  0.00  0.00    +0.402 C 
ATOM     16  O   UNL     1      59.340 159.446  42.008  0.00  0.00    -0.226 OA
BRANCH  15  17
ATOM     17  O   UNL     1      59.605 161.576  42.748  0.00  0.00    -0.466 OA
ATOM     18  H   UNL     1      60.287 161.660  43.385  0.00  0.00    +0.297 HD
ENDBRANCH  15  17
ENDBRANCH   4   9
BRANCH   7  19
ATOM     19  C   UNL     1      61.519 166.732  37.382  0.00  0.00    +0.065 C 
ATOM     20  C   UNL     1      62.797 167.208  37.072  0.00  0.00    +0.088 C 
ATOM     21  C   UNL     1      63.674 167.552  38.062  0.00  0.00    +0.084 C 
ATOM     22  C   UNL     1      63.307 167.435  39.401  0.00  0.00    +0.141 C 
ATOM     23  C   UNL     1      62.057 166.972  39.706  0.00  0.00    +0.038 C 
ATOM     24  C   UNL     1      61.152 166.616  38.698  0.00  0.00    +0.019 C 
ATOM     25 BR   UNL     1      65.424 168.207  37.634  0.00  0.00    -0.044 Br
BRANCH  20  26
ATOM     26  N   UNL     1      63.188 167.364  35.725  0.00  0.00    -0.187 N 
ATOM     27  C   UNL     1      62.798 168.538  35.057  0.00  0.00    +0.314 C 
ATOM     28  O   UNL     1      62.124 169.414  35.621  0.00  0.00    -0.252 OA
ATOM     29  N   UNL     1      63.183 168.729  33.702  0.00  0.00    -0.312 N 
ATOM     30 BR   UNL     1      64.221 166.035  34.832  0.00  0.00    +0.046 Br
ATOM     31  H   UNL     1      63.719 168.043  33.242  0.00  0.00    +0.147 HD
ATOM     32  H   UNL     1      62.915 169.547  33.225  0.00  0.00    +0.147 HD
ENDBRANCH  20  26
BRANCH  22  33
ATOM     33  O   UNL     1      64.228 167.798  40.397  0.00  0.00    -0.505 OA
ATOM     34  H   UNL     1      65.094 168.065  40.158  0.00  0.00    +0.292 HD
ENDBRANCH  22  33
ENDBRANCH   7  19
BRANCH   1  35
ATOM     35  O   UNL     1      58.789 165.710  34.407  0.00  0.00    -0.389 OA
BRANCH  35  36
ATOM     36  C   UNL     1      59.541 166.811  34.024  0.00  0.00    +0.513 C 
ATOM     37  O   UNL     1      59.140 167.958  34.329  0.00  0.00    -0.203 OA
BRANCH  36  38
ATOM     38  O   UNL     1      60.730 166.679  33.310  0.00  0.00    -0.449 OA
ATOM     39  H   UNL     1      61.552 166.711  33.758  0.00  0.00    +0.299 HD
ENDBRANCH  36  38
ENDBRANCH  35  36
ENDBRANCH   1  35
TORSDOF 8
ENDMDL
