REMARK  Name = =
REMARK  8 active torsions:
REMARK  status: ('A' for Active; 'I' for Inactive)
REMARK    1  A    between atoms: C_1  and  O_30
REMARK    2  A    between atoms: C_4  and  C_7
REMARK    3  A    between atoms: C_13  and  O_15
REMARK    4  A    between atoms: N_16  and  C_17
REMARK    5  A    between atoms: C_18  and  N_24
REMARK    6  A    between atoms: C_20  and  O_29
REMARK    7  A    between atoms: O_30  and  C_31
REMARK    8  A    between atoms: C_31  and  O_33
REMARK                            x       y       z     vdW  Elec       q    Type
REMARK                         _______ _______ _______ _____ _____    ______ ____
ROOT
ATOM      1  C   UNL     1      51.996 154.439  29.075  0.00  0.00    +0.202 C 
ATOM      2  C   UNL     1      52.591 155.277  28.126  0.00  0.00    +0.170 C 
ATOM      3  N   UNL     1      52.368 156.600  28.244  0.00  0.00    -0.213 NA
ATOM      4  C   UNL     1      51.618 157.177  29.195  0.00  0.00    +0.140 C 
ATOM      5  N   UNL     1      51.039 156.386  30.113  0.00  0.00    -0.226 NA
ATOM      6  C   UNL     1      51.230 155.034  30.047  0.00  0.00    +0.141 C 
ATOM      7  N   UNL     1      53.323 154.718  27.058  0.00  0.00    -0.294 N 
ATOM      8  H   UNL     1      53.529 153.756  27.085  0.00  0.00    +0.154 HD
ENDROOT
BRANCH   4   9
ATOM      9  C   UNL     1      51.396 158.667  29.206  0.00  0.00    +0.062 C 
ATOM     10  C   UNL     1      49.905 158.901  29.129  0.00  0.00    +0.029 C 
ATOM     11  C   UNL     1      49.310 159.324  30.460  0.00  0.00    +0.097 C 
ATOM     12  N   UNL     1      50.077 160.428  31.023  0.00  0.00    -0.246 N 
ATOM     13  C   UNL     1      51.410 160.729  30.510  0.00  0.00    +0.097 C 
ATOM     14  C   UNL     1      52.083 159.362  30.330  0.00  0.00    +0.029 C 
ATOM     15  C   UNL     1      49.535 161.196  32.058  0.00  0.00    +0.402 C 
ATOM     16  O   UNL     1      50.194 162.153  32.553  0.00  0.00    -0.226 OA
BRANCH  15  17
ATOM     17  O   UNL     1      48.283 160.927  32.553  0.00  0.00    -0.466 OA
ATOM     18  H   UNL     1      47.780 160.221  32.197  0.00  0.00    +0.297 HD
ENDBRANCH  15  17
ENDBRANCH   4   9
BRANCH   7  19
ATOM     19  C   UNL     1      53.771 155.464  25.960  0.00  0.00    +0.065 C 
ATOM     20  C   UNL     1      54.531 154.811  24.985  0.00  0.00    +0.088 C 
ATOM     21  C   UNL     1      55.057 155.502  23.930  0.00  0.00    +0.084 C 
ATOM     22  C   UNL     1      54.843 156.873  23.808  0.00  0.00    +0.141 C 
ATOM     23  C   UNL     1      54.098 157.513  24.760  0.00  0.00    +0.038 C 
ATOM     24  C   UNL     1      53.556 156.813  25.845  0.00  0.00    +0.019 C 
ATOM     25 BR   UNL     1      56.096 154.603  22.593  0.00  0.00    -0.044 Br
BRANCH  20  26
ATOM     26  N   UNL     1      54.742 153.418  25.065  0.00  0.00    -0.187 N 
ATOM     27  C   UNL     1      53.765 152.570  24.514  0.00  0.00    +0.314 C 
ATOM     28  O   UNL     1      52.741 153.020  23.978  0.00  0.00    -0.252 OA
ATOM     29  N   UNL     1      53.952 151.162  24.572  0.00  0.00    -0.312 N 
ATOM     30 BR   UNL     1      56.304 152.697  25.886  0.00  0.00    +0.046 Br
ATOM     31  H   UNL     1      54.760 150.790  24.994  0.00  0.00    +0.147 HD
ATOM     32  H   UNL     1      53.274 150.559  24.190  0.00  0.00    +0.147 HD
ENDBRANCH  20  26
BRANCH  22  33
ATOM     33  O   UNL     1      55.395 157.557  22.713  0.00  0.00    -0.505 OA
ATOM     34  H   UNL     1      55.901 157.091  22.077  0.00  0.00    +0.292 HD
ENDBRANCH  22  33
ENDBRANCH   7  19
BRANCH   1  35
ATOM     35  O   UNL     1      52.202 153.077  28.992  0.00  0.00    -0.389 OA
BRANCH  35  36
ATOM     36  C   UNL     1      51.700 152.284  27.970  0.00  0.00    +0.513 C 
ATOM     37  O   UNL     1      51.308 152.830  26.913  0.00  0.00    -0.203 OA
BRANCH  36  38
ATOM     38  O   UNL     1      51.619 150.898  28.085  0.00  0.00    -0.449 OA
ATOM     39  H   UNL     1      51.275 150.388  27.378  0.00  0.00    +0.299 HD
ENDBRANCH  36  38
ENDBRANCH  35  36
ENDBRANCH   1  35
TORSDOF 8
