REMARK  Name = =
REMARK  4 active torsions:
REMARK  status: ('A' for Active; 'I' for Inactive)
REMARK    1  A    between atoms: C_1  and  N_10
REMARK    2  A    between atoms: C_1  and  N_17
REMARK    3  A    between atoms: C_14  and  O_16
REMARK    4  A    between atoms: N_17  and  O_18
REMARK                            x       y       z     vdW  Elec       q    Type
REMARK                         _______ _______ _______ _____ _____    ______ ____
ROOT
ATOM      1  C   UNL     1      51.401 154.862  28.162  0.00  0.00    +0.223 C 
ATOM      2  C   UNL     1      51.565 156.317  28.339  0.00  0.00    +0.122 C 
ATOM      3  N   UNL     1      52.392 155.999  29.495  0.00  0.00    -0.253 N 
ATOM      4  C   UNL     1      53.385 156.929  29.905  0.00  0.00    +0.063 C 
ATOM      5  C   UNL     1      53.589 158.043  29.251  0.00  0.00    -0.010 C 
ATOM      6  C   UNL     1      52.810 158.423  28.038  0.00  0.00    +0.029 C 
ATOM      7  C   UNL     1      52.267 157.165  27.356  0.00  0.00    +0.029 C 
ATOM      8  C   UNL     1      51.664 154.784  29.599  0.00  0.00    +0.264 C 
ATOM      9  O   UNL     1      51.433 154.058  30.611  0.00  0.00    -0.271 OA
ENDROOT
BRANCH   1  10
ATOM     10  N   UNL     1      52.323 154.157  27.342  0.00  0.00    -0.160 N 
ATOM     11  C   UNL     1      53.035 154.740  26.263  0.00  0.00    +0.311 C 
ATOM     12  O   UNL     1      52.833 155.932  25.987  0.00  0.00    -0.252 OA
ATOM     13  N   UNL     1      53.954 153.997  25.510  0.00  0.00    -0.313 N 
ATOM     14  C   UNL     1      52.586 152.786  27.587  0.00  0.00    +0.410 C 
ATOM     15  O   UNL     1      53.411 152.130  26.855  0.00  0.00    -0.226 OA
ATOM     16  H   UNL     1      54.117 153.050  25.726  0.00  0.00    +0.146 HD
ATOM     17  H   UNL     1      54.437 154.422  24.764  0.00  0.00    +0.146 HD
BRANCH  14  18
ATOM     18  O   UNL     1      51.987 152.102  28.595  0.00  0.00    -0.466 OA
ATOM     19  H   UNL     1      51.376 152.536  29.158  0.00  0.00    +0.297 HD
ENDBRANCH  14  18
ENDBRANCH   1  10
BRANCH   1  20
ATOM     20  N   UNL     1      49.988 154.588  27.818  0.00  0.00    -0.169 NA
ATOM     21  H   UNL     1      49.803 153.585  27.848  0.00  0.00    +0.157 HD
BRANCH  20  22
ATOM     22  O   UNL     1      49.246 155.235  28.758  0.00  0.00    -0.313 OA
ATOM     23  H   UNL     1      49.432 156.186  28.718  0.00  0.00    +0.236 HD
ENDBRANCH  20  22
ENDBRANCH   1  20
TORSDOF 4
