REMARK  Name = =
REMARK  2 active torsions:
REMARK  status: ('A' for Active; 'I' for Inactive)
REMARK    1  A    between atoms: C_4  and  O_12
REMARK    2  A    between atoms: C_5  and  O_11
REMARK                            x       y       z     vdW  Elec       q    Type
REMARK                         _______ _______ _______ _____ _____    ______ ____
ROOT
ATOM      1  C   UNL     1      -2.662  -4.837  30.547  0.00  0.00    -0.006 C 
ATOM      2  C   UNL     1      -3.115  -3.557  30.761  0.00  0.00    -0.020 C 
ATOM      3  C   UNL     1      -3.948  -3.238  31.808  0.00  0.00    +0.035 C 
ATOM      4  C   UNL     1      -4.374  -4.202  32.705  0.00  0.00    +0.167 C 
ATOM      5  C   UNL     1      -3.921  -5.488  32.494  0.00  0.00    +0.167 C 
ATOM      6  C   UNL     1      -3.086  -5.794  31.440  0.00  0.00    +0.037 C 
ATOM      7  C   UNL     1      -2.666  -2.515  29.806  0.00  0.00    +0.045 C 
ATOM      8  C   UNL     1      -2.535  -3.221  28.449  0.00  0.00    +0.094 C 
ATOM      9  N   UNL     1      -1.440  -4.141  28.560  0.00  0.00    -0.213 NA
ATOM     10  C   UNL     1      -1.768  -5.223  29.437  0.00  0.00    +0.115 C 
ENDROOT
BRANCH   5  11
ATOM     11  O   UNL     1      -4.359  -6.446  33.406  0.00  0.00    -0.503 OA
ATOM     12  H   UNL     1      -4.926  -6.198  34.109  0.00  0.00    +0.292 HD
ENDBRANCH   5  11
BRANCH   4  13
ATOM     13  O   UNL     1      -5.223  -3.874  33.771  0.00  0.00    -0.503 OA
ATOM     14  H   UNL     1      -5.512  -2.990  33.885  0.00  0.00    +0.292 HD
ENDBRANCH   4  13
TORSDOF 2
