REMARK  Name = =
REMARK  0 active torsions:
REMARK  status: ('A' for Active; 'I' for Inactive)
REMARK                            x       y       z     vdW  Elec       q    Type
REMARK                         _______ _______ _______ _____ _____    ______ ____
ROOT
ATOM      1  C   UNL     1      -4.332  -4.034  30.662  0.00  0.00    +0.122 C 
ATOM      2  N   UNL     1      -3.667  -5.195  30.653  0.00  0.00    -0.146 NA
ATOM      3  N   UNL     1      -2.397  -5.293  30.290  0.00  0.00    -0.146 NA
ATOM      4  C   UNL     1      -1.682  -4.230  29.904  0.00  0.00    +0.122 C 
ATOM      5  C   UNL     1      -2.313  -3.012  29.892  0.00  0.00    +0.024 C 
ATOM      6  C   UNL     1      -3.651  -2.907  30.274  0.00  0.00    +0.024 C 
ENDROOT
TORSDOF 0
