REMARK  Name = =
REMARK  5 active torsions:
REMARK  status: ('A' for Active; 'I' for Inactive)
REMARK    1  A    between atoms: C_4  and  O_12
REMARK    2  A    between atoms: C_5  and  O_11
REMARK    3  A    between atoms: C_7  and  S_13
REMARK    4  A    between atoms: S_13  and  C_14
REMARK    5  A    between atoms: C_14  and  N_16
REMARK                            x       y       z     vdW  Elec       q    Type
REMARK                         _______ _______ _______ _____ _____    ______ ____
ROOT
ATOM      1  C   UNL     1      -3.348  -6.043  31.667  0.00  0.00    -0.005 C 
ATOM      2  C   UNL     1      -2.526  -5.935  30.588  0.00  0.00    -0.010 C 
ATOM      3  C   UNL     1      -2.239  -4.699  30.072  0.00  0.00    +0.036 C 
ATOM      4  C   UNL     1      -2.792  -3.583  30.661  0.00  0.00    +0.167 C 
ATOM      5  C   UNL     1      -3.628  -3.688  31.758  0.00  0.00    +0.167 C 
ATOM      6  C   UNL     1      -3.898  -4.932  32.252  0.00  0.00    +0.037 C 
ATOM      7  C   UNL     1      -1.909  -7.138  29.924  0.00  0.00    +0.093 C 
ATOM      8  C   UNL     1      -2.207  -8.389  30.695  0.00  0.00    +0.105 C 
ATOM      9  N   UNL     1      -2.466  -8.184  32.091  0.00  0.00    -0.212 NA
ATOM     10  C   UNL     1      -3.668  -7.386  32.236  0.00  0.00    +0.115 C 
ENDROOT
BRANCH   5  11
ATOM     11  O   UNL     1      -4.180  -2.564  32.345  0.00  0.00    -0.503 OA
ATOM     12  H   UNL     1      -3.990  -1.714  32.000  0.00  0.00    +0.292 HD
ENDBRANCH   5  11
BRANCH   4  13
ATOM     13  O   UNL     1      -2.530  -2.299  30.173  0.00  0.00    -0.503 OA
ATOM     14  H   UNL     1      -1.969  -2.185  29.431  0.00  0.00    +0.292 HD
ENDBRANCH   4  13
BRANCH   7  15
ATOM     15  S   UNL     1      -0.163  -6.863  29.615  0.00  0.00    -0.088 S 
BRANCH  15  16
ATOM     16  C   UNL     1       0.139  -6.535  27.888  0.00  0.00    +0.105 C 
ATOM     17  S   UNL     1       0.824  -5.157  27.351  0.00  0.00    -0.028 S 
BRANCH  16  18
ATOM     18  N   UNL     1      -0.225  -7.500  26.926  0.00  0.00    -0.347 N 
ATOM     19  H   UNL     1      -0.641  -8.346  27.210  0.00  0.00    +0.143 HD
ATOM     20  H   UNL     1      -0.063  -7.328  25.970  0.00  0.00    +0.143 HD
ENDBRANCH  16  18
ENDBRANCH  15  16
ENDBRANCH   7  15
TORSDOF 5
