REMARK  Name = =
REMARK  2 active torsions:
REMARK  status: ('A' for Active; 'I' for Inactive)
REMARK    1  A    between atoms: C_1  and  C_7
REMARK    2  A    between atoms: N_3  and  N_10
REMARK                            x       y       z     vdW  Elec       q    Type
REMARK                         _______ _______ _______ _____ _____    ______ ____
ROOT
ATOM      1  C   UNL     1      -0.277  -4.349  29.542  0.00  0.00    +0.281 C 
ATOM      2  O   UNL     1       0.366  -3.339  29.161  0.00  0.00    -0.267 OA
ATOM      3  N   UNL     1       0.375  -5.587  29.579  0.00  0.00    -0.229 N 
ATOM      4  H   UNL     1      -0.149  -6.364  29.881  0.00  0.00    +0.173 HD
ENDROOT
BRANCH   1   8
ATOM      5  C   UNL     1      -4.345  -4.006  30.692  0.00  0.00    +0.122 C 
ATOM      6  N   UNL     1      -3.679  -5.171  30.709  0.00  0.00    -0.146 NA
ATOM      7  N   UNL     1      -2.413  -5.269  30.350  0.00  0.00    -0.143 NA
ATOM      8  C   UNL     1      -1.690  -4.220  29.940  0.00  0.00    +0.157 C 
ATOM      9  C   UNL     1      -2.320  -2.998  29.902  0.00  0.00    +0.027 C 
ATOM     10  C   UNL     1      -3.646  -2.892  30.278  0.00  0.00    +0.024 C 
ENDBRANCH   1   8
BRANCH   3  11
ATOM     11  N   UNL     1       1.708  -5.811  29.223  0.00  0.00    -0.226 N 
ATOM     12  C   UNL     1       2.146  -7.015  28.613  0.00  0.00    +0.316 C 
ATOM     13  O   UNL     1       1.257  -7.894  28.401  0.00  0.00    -0.264 OA
ATOM     14  H   UNL     1       2.370  -5.105  29.403  0.00  0.00    +0.173 HD
ENDBRANCH   3  11
TORSDOF 2
