REMARK  Name = =
REMARK  6 active torsions:
REMARK  status: ('A' for Active; 'I' for Inactive)
REMARK    1  A    between atoms: C_4  and  O_12
REMARK    2  A    between atoms: C_5  and  O_11
REMARK    3  A    between atoms: C_7  and  S_15
REMARK    4  A    between atoms: C_8  and  N_13
REMARK    5  A    between atoms: S_15  and  C_16
REMARK    6  A    between atoms: C_16  and  N_18
REMARK                            x       y       z     vdW  Elec       q    Type
REMARK                         _______ _______ _______ _____ _____    ______ ____
ROOT
ATOM      1  C   UNL     1       6.747 -11.453  25.177  0.00  0.00    -0.005 C 
ATOM      2  C   UNL     1       6.453 -10.109  25.172  0.00  0.00    -0.009 C 
ATOM      3  C   UNL     1       6.555  -9.410  26.347  0.00  0.00    +0.036 C 
ATOM      4  C   UNL     1       6.946 -10.026  27.536  0.00  0.00    +0.167 C 
ATOM      5  C   UNL     1       7.234 -11.380  27.502  0.00  0.00    +0.167 C 
ATOM      6  C   UNL     1       7.142 -12.110  26.336  0.00  0.00    +0.037 C 
ATOM      7  C   UNL     1       6.052  -9.528  23.866  0.00  0.00    +0.108 C 
ATOM      8  C   UNL     1       7.070 -10.167  22.887  0.00  0.00    +0.160 C 
ATOM      9  N   UNL     1       6.719 -11.530  22.715  0.00  0.00    -0.196 NA
ATOM     10  C   UNL     1       6.660 -12.257  23.948  0.00  0.00    +0.116 C 
ENDROOT
BRANCH   5  11
ATOM     11  O   UNL     1       7.629 -12.028  28.676  0.00  0.00    -0.503 OA
ATOM     12  H   UNL     1       7.697 -11.546  29.477  0.00  0.00    +0.292 HD
ENDBRANCH   5  11
BRANCH   4  13
ATOM     13  O   UNL     1       7.051  -9.329  28.717  0.00  0.00    -0.503 OA
ATOM     14  H   UNL     1       6.856  -8.413  28.739  0.00  0.00    +0.292 HD
ENDBRANCH   4  13
BRANCH   8  15
ATOM     15  N   UNL     1       7.125  -9.418  21.659  0.00  0.00    -0.200 NA
ATOM     16  C   UNL     1       7.747  -8.133  21.972  0.00  0.00    +0.109 C 
ENDBRANCH   8  15
BRANCH   7  17
ATOM     17  S   UNL     1       4.384  -9.982  23.390  0.00  0.00    -0.086 S 
BRANCH  17  18
ATOM     18  C   UNL     1       3.600  -8.876  22.263  0.00  0.00    +0.105 C 
ATOM     19  S   UNL     1       4.092  -7.342  22.138  0.00  0.00    -0.028 S 
BRANCH  18  20
ATOM     20  N   UNL     1       2.534  -9.325  21.454  0.00  0.00    -0.347 N 
ATOM     21  H   UNL     1       2.225 -10.257  21.520  0.00  0.00    +0.143 HD
ATOM     22  H   UNL     1       2.100  -8.706  20.823  0.00  0.00    +0.143 HD
ENDBRANCH  18  20
ENDBRANCH  17  18
ENDBRANCH   7  17
TORSDOF 6
