REMARK  Name = =
REMARK  3 active torsions:
REMARK  status: ('A' for Active; 'I' for Inactive)
REMARK    1  A    between atoms: C_1  and  C_7
REMARK    2  A    between atoms: C_4  and  C_16
REMARK    3  A    between atoms: N_18  and  N_19
REMARK                            x       y       z     vdW  Elec       q    Type
REMARK                         _______ _______ _______ _____ _____    ______ ____
ROOT
ATOM      1  C   UNL     1     -10.734  -3.359  25.039  0.00  0.00    +0.106 C 
ATOM      2  N   UNL     1      -9.676  -3.542  24.210  0.00  0.00    -0.148 NA
ATOM      3  N   UNL     1      -9.347  -4.732  23.755  0.00  0.00    -0.143 NA
ATOM      4  C   UNL     1     -10.004  -5.851  24.056  0.00  0.00    +0.157 C 
ATOM      5  C   UNL     1     -11.091  -5.743  24.894  0.00  0.00    +0.027 C 
ATOM      6  C   UNL     1     -11.440  -4.468  25.378  0.00  0.00    +0.023 C 
ENDROOT
BRANCH   1   7
ATOM      7  C   UNL     1     -11.083  -2.044  25.531  0.00  0.00    +0.053 C 
ATOM      8  C   UNL     1     -10.923  -1.636  26.835  0.00  0.00    +0.136 C 
ATOM      9  C   UNL     1     -11.279  -0.353  27.256  0.00  0.00    +0.016 C 
ATOM     10  C   UNL     1     -11.799   0.503  26.322  0.00  0.00    -0.001 C 
ATOM     11  C   UNL     1     -11.971   0.123  25.008  0.00  0.00    -0.000 C 
ATOM     12  C   UNL     1     -11.622  -1.137  24.595  0.00  0.00    +0.005 C 
ATOM     13  C   UNL     1     -10.972  -0.263  28.711  0.00  0.00    +0.077 C 
ATOM     14  C   UNL     1     -11.078  -1.747  29.088  0.00  0.00    +0.210 C 
ATOM     15  O   UNL     1     -10.420  -2.326  27.950  0.00  0.00    -0.475 OA
ENDBRANCH   1   7
BRANCH   4  16
ATOM     16  C   UNL     1      -9.593  -7.151  23.519  0.00  0.00    +0.281 C 
ATOM     17  O   UNL     1      -9.500  -8.132  24.318  0.00  0.00    -0.267 OA
ATOM     18  N   UNL     1      -9.312  -7.282  22.132  0.00  0.00    -0.229 N 
ATOM     19  H   UNL     1      -9.398  -6.497  21.544  0.00  0.00    +0.173 HD
BRANCH  18  20
ATOM     20  N   UNL     1      -8.917  -8.505  21.590  0.00  0.00    -0.226 N 
ATOM     21  C   UNL     1      -7.617  -8.638  21.085  0.00  0.00    +0.316 C 
ATOM     22  O   UNL     1      -6.759  -7.713  21.085  0.00  0.00    -0.264 OA
ATOM     23  H   UNL     1      -9.543  -9.264  21.563  0.00  0.00    +0.173 HD
ENDBRANCH  18  20
ENDBRANCH   4  16
TORSDOF 3
