REMARK  Name = =
REMARK  2 active torsions:
REMARK  status: ('A' for Active; 'I' for Inactive)
REMARK    1  A    between atoms: C_1  and  C_17
REMARK    2  A    between atoms: N_15  and  C_23
REMARK                            x       y       z     vdW  Elec       q    Type
REMARK                         _______ _______ _______ _____ _____    ______ ____
ROOT
ATOM      1  C   UNL     1     -13.604 -43.028  28.597  0.00  0.00    -0.025 C 
ATOM      2  C   UNL     1     -14.495 -42.251  27.878  0.00  0.00    -0.025 C 
ATOM      3  C   UNL     1     -15.855 -42.228  28.094  0.00  0.00    -0.022 C 
ATOM      4  C   UNL     1     -16.421 -43.009  29.096  0.00  0.00    -0.004 C 
ATOM      5  C   UNL     1     -15.580 -43.811  29.851  0.00  0.00    -0.001 C 
ATOM      6  C   UNL     1     -14.210 -43.799  29.585  0.00  0.00    -0.005 C 
ATOM      7  C   UNL     1     -16.735 -41.490  27.136  0.00  0.00    +0.052 C 
ATOM      8  C   UNL     1     -16.177 -41.923  25.802  0.00  0.00    -0.021 C 
ATOM      9  C   UNL     1     -14.819 -41.884  25.617  0.00  0.00    -0.021 C 
ATOM     10  C   UNL     1     -13.894 -41.452  26.759  0.00  0.00    +0.052 C 
ATOM     11  C   UNL     1     -14.368 -42.316  24.403  0.00  0.00    -0.004 C 
ATOM     12  C   UNL     1     -15.194 -42.771  23.397  0.00  0.00    -0.000 C 
ATOM     13  C   UNL     1     -16.547 -42.807  23.603  0.00  0.00    -0.000 C 
ATOM     14  C   UNL     1     -17.031 -42.368  24.839  0.00  0.00    -0.004 C 
ENDROOT
BRANCH   1  17
ATOM     15  N   UNL     1     -10.060 -43.360  27.490  0.00  0.00    -0.292 N 
ATOM     16  C   UNL     1     -11.457 -43.120  27.195  0.00  0.00    +0.096 C 
ATOM     17  C   UNL     1     -12.201 -42.920  28.436  0.00  0.00    +0.042 C 
ATOM     18  C   UNL     1     -11.411 -42.259  29.521  0.00  0.00    +0.008 C 
ATOM     19  C   UNL     1     -10.276 -43.215  29.951  0.00  0.00    +0.022 C 
ATOM     20  C   UNL     1      -9.865 -44.021  28.767  0.00  0.00    +0.092 C 
BRANCH  15  23
ATOM     21  N   UNL     1      -8.663 -39.982  27.083  0.00  0.00    -0.145 NA
ATOM     22  N   UNL     1      -9.530 -40.998  27.269  0.00  0.00    -0.133 NA
ATOM     23  C   UNL     1      -9.207 -42.276  27.286  0.00  0.00    +0.153 C 
ATOM     24  C   UNL     1      -7.865 -42.560  27.091  0.00  0.00    +0.038 C 
ATOM     25  C   UNL     1      -6.921 -41.576  26.894  0.00  0.00    +0.025 C 
ATOM     26  C   UNL     1      -7.338 -40.245  26.892  0.00  0.00    +0.122 C 
ENDBRANCH  15  23
ENDBRANCH   1  17
TORSDOF 2
