REMARK  Name = =
REMARK  0 active torsions:
REMARK  status: ('A' for Active; 'I' for Inactive)
REMARK                            x       y       z     vdW  Elec       q    Type
REMARK                         _______ _______ _______ _____ _____    ______ ____
ROOT
ATOM      1  C   UNL     1      -1.137  -3.337  29.927  0.00  0.00    +0.118 C 
ATOM      2  N   UNL     1      -2.452  -3.620  29.985  0.00  0.00    -0.241 NA
ATOM      3  C   UNL     1      -2.918  -4.864  30.207  0.00  0.00    +0.099 C 
ATOM      4  C   UNL     1      -2.050  -5.913  30.387  0.00  0.00    +0.022 C 
ATOM      5  C   UNL     1      -0.695  -5.651  30.333  0.00  0.00    +0.021 C 
ATOM      6  C   UNL     1      -0.242  -4.371  30.104  0.00  0.00    +0.100 C 
ATOM      7  N   UNL     1       1.080  -4.062  30.041  0.00  0.00    -0.242 NA
ATOM      8  C   UNL     1       1.989  -5.038  30.208  0.00  0.00    +0.099 C 
ATOM      9  C   UNL     1       1.560  -6.327  30.438  0.00  0.00    +0.021 C 
ATOM     10  C   UNL     1       0.223  -6.670  30.506  0.00  0.00    +0.003 C 
ENDROOT
TORSDOF 0
