REMARK  Name = =
REMARK  0 active torsions:
REMARK  status: ('A' for Active; 'I' for Inactive)
REMARK                            x       y       z     vdW  Elec       q    Type
REMARK                         _______ _______ _______ _____ _____    ______ ____
ROOT
ATOM      1  C   UNL     1      -4.438  -3.956  30.648  0.00  0.00    +0.001 C 
ATOM      2  C   UNL     1      -3.492  -3.007  30.297  0.00  0.00    +0.016 C 
ATOM      3  C   UNL     1      -2.151  -3.321  30.229  0.00  0.00    +0.059 C 
ATOM      4  N   UNL     1      -0.989  -2.544  29.898  0.00  0.00    -0.315 N 
ATOM      5  C   UNL     1       0.054  -3.480  29.533  0.00  0.00    +0.182 C 
ATOM      6  N   UNL     1      -0.274  -4.625  30.359  0.00  0.00    -0.315 N 
ATOM      7  C   UNL     1      -1.695  -4.592  30.509  0.00  0.00    +0.059 C 
ATOM      8  C   UNL     1      -2.630  -5.541  30.859  0.00  0.00    +0.016 C 
ATOM      9  C   UNL     1      -3.973  -5.225  30.926  0.00  0.00    +0.001 C 
ATOM     10  H   UNL     1      -0.916  -1.562  29.916  0.00  0.00    +0.148 HD
ATOM     11  H   UNL     1       0.350  -5.286  30.737  0.00  0.00    +0.148 HD
ENDROOT
TORSDOF 0
