REMARK  Name = =
REMARK  2 active torsions:
REMARK  status: ('A' for Active; 'I' for Inactive)
REMARK    1  A    between atoms: C_3  and  N_11
REMARK    2  A    between atoms: N_11  and  N_12
REMARK                            x       y       z     vdW  Elec       q    Type
REMARK                         _______ _______ _______ _____ _____    ______ ____
ROOT
ATOM      1  C   UNL     1      -1.056  -3.346  29.866  0.00  0.00    +0.119 C 
ATOM      2  N   UNL     1      -2.069  -4.077  30.399  0.00  0.00    -0.227 NA
ATOM      3  C   UNL     1      -1.937  -5.354  30.799  0.00  0.00    +0.141 C 
ATOM      4  C   UNL     1      -0.684  -5.929  30.643  0.00  0.00    +0.037 C 
ATOM      5  C   UNL     1       0.369  -5.220  30.108  0.00  0.00    +0.022 C 
ATOM      6  C   UNL     1       0.199  -3.909  29.709  0.00  0.00    +0.101 C 
ATOM      7  N   UNL     1       1.207  -3.194  29.198  0.00  0.00    -0.242 NA
ATOM      8  C   UNL     1       2.439  -3.700  29.041  0.00  0.00    +0.099 C 
ATOM      9  C   UNL     1       2.668  -4.992  29.416  0.00  0.00    +0.021 C 
ATOM     10  C   UNL     1       1.649  -5.739  29.940  0.00  0.00    +0.003 C 
ENDROOT
BRANCH   3  11
ATOM     11  N   UNL     1      -3.001  -6.076  31.377  0.00  0.00    -0.267 N 
ATOM     12  H   UNL     1      -3.284  -5.765  32.267  0.00  0.00    +0.167 HD
BRANCH  11  13
ATOM     13  N   UNL     1      -3.701  -7.149  30.881  0.00  0.00    -0.255 NA
ATOM     14  H   UNL     1      -3.338  -7.396  29.960  0.00  0.00    +0.140 HD
ATOM     15  H   UNL     1      -4.688  -6.904  30.802  0.00  0.00    +0.140 HD
ENDBRANCH  11  13
ENDBRANCH   3  11
TORSDOF 2
