REMARK  Name = =
REMARK  1 active torsions:
REMARK  status: ('A' for Active; 'I' for Inactive)
REMARK    1  A    between atoms: N_4  and  C_10
REMARK                            x       y       z     vdW  Elec       q    Type
REMARK                         _______ _______ _______ _____ _____    ______ ____
ROOT
ATOM      1  C   UNL     1      -4.207  -4.425  30.850  0.00  0.00    +0.001 C 
ATOM      2  C   UNL     1      -3.347  -5.478  30.640  0.00  0.00    +0.016 C 
ATOM      3  C   UNL     1      -2.939  -6.269  31.710  0.00  0.00    +0.066 C 
ATOM      4  N   UNL     1      -2.079  -7.397  31.805  0.00  0.00    -0.264 N 
ATOM      5  C   UNL     1      -2.136  -7.916  33.138  0.00  0.00    +0.189 C 
ATOM      6  N   UNL     1      -2.870  -6.895  33.877  0.00  0.00    -0.315 N 
ATOM      7  C   UNL     1      -3.428  -5.951  32.959  0.00  0.00    +0.060 C 
ATOM      8  C   UNL     1      -4.301  -4.878  33.160  0.00  0.00    +0.016 C 
ATOM      9  C   UNL     1      -4.702  -4.097  32.094  0.00  0.00    +0.001 C 
ATOM     10  H   UNL     1      -2.966  -6.861  34.856  0.00  0.00    +0.148 HD
ENDROOT
BRANCH   4  11
ATOM     11  C   UNL     1      -1.273  -7.942  30.732  0.00  0.00    +0.128 C 
ATOM     12  C   UNL     1      -1.785  -8.790  29.866  0.00  0.00    +0.294 C 
ATOM     13  F   UNL     1      -1.003  -9.276  28.881  0.00  0.00    -0.171 F 
ATOM     14  F   UNL     1      -3.072  -9.207  29.915  0.00  0.00    -0.171 F 
ENDBRANCH   4  11
TORSDOF 1
