REMARK  Name = =
REMARK  3 active torsions:
REMARK  status: ('A' for Active; 'I' for Inactive)
REMARK    1  A    between atoms: C_3  and  N_11
REMARK    2  A    between atoms: N_11  and  N_12
REMARK    3  A    between atoms: C_13  and  O_15
REMARK                            x       y       z     vdW  Elec       q    Type
REMARK                         _______ _______ _______ _____ _____    ______ ____
ROOT
ATOM      1  C   UNL     1       0.537  -3.526  29.717  0.00  0.00    +0.119 C 
ATOM      2  N   UNL     1      -0.428  -2.568  29.761  0.00  0.00    -0.226 NA
ATOM      3  C   UNL     1      -1.718  -2.920  29.649  0.00  0.00    +0.144 C 
ATOM      4  C   UNL     1      -2.011  -4.275  29.489  0.00  0.00    +0.037 C 
ATOM      5  C   UNL     1      -1.061  -5.247  29.443  0.00  0.00    +0.022 C 
ATOM      6  C   UNL     1       0.271  -4.863  29.561  0.00  0.00    +0.101 C 
ATOM      7  N   UNL     1       1.230  -5.810  29.513  0.00  0.00    -0.242 NA
ATOM      8  C   UNL     1       0.961  -7.109  29.357  0.00  0.00    +0.099 C 
ATOM      9  C   UNL     1      -0.344  -7.544  29.233  0.00  0.00    +0.021 C 
ATOM     10  C   UNL     1      -1.342  -6.587  29.279  0.00  0.00    +0.003 C 
ENDROOT
BRANCH   3  11
ATOM     11  N   UNL     1      -2.757  -1.955  29.683  0.00  0.00    -0.245 N 
ATOM     12  H   UNL     1      -3.589  -2.211  30.143  0.00  0.00    +0.172 HD
BRANCH  11  13
ATOM     13  N   UNL     1      -2.711  -0.683  29.128  0.00  0.00    -0.201 N 
ATOM     14  C   UNL     1      -3.508   0.350  29.665  0.00  0.00    +0.414 C 
ATOM     15  O   UNL     1      -4.262   0.082  30.670  0.00  0.00    -0.225 OA
ATOM     16  H   UNL     1      -2.122  -0.502  28.360  0.00  0.00    +0.176 HD
BRANCH  14  17
ATOM     17  O   UNL     1      -3.531   1.666  29.162  0.00  0.00    -0.465 OA
ATOM     18  H   UNL     1      -2.994   1.897  28.430  0.00  0.00    +0.297 HD
ENDBRANCH  14  17
ENDBRANCH  11  13
ENDBRANCH   3  11
TORSDOF 3
