REMARK  Name = =
REMARK  3 active torsions:
REMARK  status: ('A' for Active; 'I' for Inactive)
REMARK    1  A    between atoms: N_4  and  C_10
REMARK    2  A    between atoms: C_10  and  N_14
REMARK    3  A    between atoms: N_14  and  N_15
REMARK                            x       y       z     vdW  Elec       q    Type
REMARK                         _______ _______ _______ _____ _____    ______ ____
ROOT
ATOM      1  C   UNL     1      -2.764  -7.255  31.259  0.00  0.00    +0.001 C 
ATOM      2  C   UNL     1      -2.051  -6.261  30.641  0.00  0.00    +0.016 C 
ATOM      3  C   UNL     1      -0.688  -6.140  30.960  0.00  0.00    +0.067 C 
ATOM      4  N   UNL     1       0.308  -5.232  30.499  0.00  0.00    -0.252 N 
ATOM      5  C   UNL     1       1.473  -5.362  31.355  0.00  0.00    +0.190 C 
ATOM      6  N   UNL     1       1.294  -6.643  31.989  0.00  0.00    -0.315 N 
ATOM      7  C   UNL     1      -0.077  -6.981  31.854  0.00  0.00    +0.060 C 
ATOM      8  C   UNL     1      -0.832  -7.992  32.475  0.00  0.00    +0.016 C 
ATOM      9  C   UNL     1      -2.164  -8.108  32.162  0.00  0.00    +0.001 C 
ATOM     10  H   UNL     1       1.990  -7.181  32.431  0.00  0.00    +0.148 HD
ENDROOT
BRANCH   4  11
ATOM     11  C   UNL     1       0.201  -4.349  29.400  0.00  0.00    +0.175 C 
ATOM     12  C   UNL     1      -0.533  -3.275  29.501  0.00  0.00    +0.307 C 
ATOM     13  F   UNL     1      -1.178  -3.038  30.669  0.00  0.00    -0.169 F 
ATOM     14  F   UNL     1      -0.639  -2.433  28.466  0.00  0.00    -0.169 F 
BRANCH  11  15
ATOM     15  N   UNL     1       0.879  -4.609  28.187  0.00  0.00    -0.247 N 
ATOM     16  H   UNL     1       1.389  -5.447  28.103  0.00  0.00    +0.171 HD
BRANCH  15  17
ATOM     17  N   UNL     1       0.857  -3.724  27.097  0.00  0.00    -0.228 N 
ATOM     18  C   UNL     1       2.017  -3.033  26.647  0.00  0.00    +0.316 C 
ATOM     19  O   UNL     1       3.118  -3.194  27.220  0.00  0.00    -0.264 OA
ATOM     20  H   UNL     1       0.006  -3.576  26.625  0.00  0.00    +0.173 HD
ENDBRANCH  15  17
ENDBRANCH  11  15
ENDBRANCH   4  11
TORSDOF 3
