REMARK  Name = =
REMARK  4 active torsions:
REMARK  status: ('A' for Active; 'I' for Inactive)
REMARK    1  A    between atoms: C_2  and  C_10
REMARK    2  A    between atoms: N_4  and  C_16
REMARK    3  A    between atoms: C_16  and  N_20
REMARK    4  A    between atoms: N_20  and  N_21
REMARK                            x       y       z     vdW  Elec       q    Type
REMARK                         _______ _______ _______ _____ _____    ______ ____
ROOT
ATOM      1  C   UNL     1       1.333  -8.698  25.650  0.00  0.00    +0.001 C 
ATOM      2  C   UNL     1       2.572  -8.394  26.270  0.00  0.00    +0.012 C 
ATOM      3  C   UNL     1       3.650  -9.122  25.836  0.00  0.00    +0.067 C 
ATOM      4  N   UNL     1       5.018  -9.021  26.098  0.00  0.00    -0.252 N 
ATOM      5  C   UNL     1       5.737  -9.845  25.098  0.00  0.00    +0.190 C 
ATOM      6  N   UNL     1       4.759 -10.759  24.617  0.00  0.00    -0.315 N 
ATOM      7  C   UNL     1       3.495 -10.111  24.841  0.00  0.00    +0.060 C 
ATOM      8  C   UNL     1       2.277 -10.373  24.268  0.00  0.00    +0.016 C 
ATOM      9  C   UNL     1       1.194  -9.652  24.685  0.00  0.00    +0.001 C 
ATOM     10  H   UNL     1       4.914 -11.645  24.217  0.00  0.00    +0.148 HD
ENDROOT
BRANCH   2  11
ATOM     11  C   UNL     1       2.601  -7.338  27.248  0.00  0.00    -0.008 C 
ATOM     12  C   UNL     1       2.772  -6.083  26.749  0.00  0.00    -0.027 C 
ATOM     13  C   UNL     1       2.829  -4.860  27.558  0.00  0.00    +0.045 C 
ATOM     14  C   UNL     1       2.524  -5.127  28.981  0.00  0.00    +0.094 C 
ATOM     15  N   UNL     1       1.504  -6.186  29.044  0.00  0.00    -0.213 NA
ATOM     16  C   UNL     1       2.306  -7.416  28.694  0.00  0.00    +0.115 C 
ENDBRANCH   2  11
BRANCH   4  17
ATOM     17  C   UNL     1       5.772  -8.297  27.032  0.00  0.00    +0.175 C 
ATOM     18  C   UNL     1       6.236  -7.065  26.763  0.00  0.00    +0.307 C 
ATOM     19  F   UNL     1       6.954  -6.420  27.701  0.00  0.00    -0.169 F 
ATOM     20  F   UNL     1       6.001  -6.471  25.590  0.00  0.00    -0.169 F 
BRANCH  17  21
ATOM     21  N   UNL     1       6.135  -8.870  28.273  0.00  0.00    -0.247 N 
ATOM     22  H   UNL     1       6.214  -8.281  29.058  0.00  0.00    +0.171 HD
BRANCH  21  23
ATOM     23  N   UNL     1       6.386 -10.233  28.433  0.00  0.00    -0.228 N 
ATOM     24  C   UNL     1       7.727 -10.759  28.366  0.00  0.00    +0.316 C 
ATOM     25  O   UNL     1       8.695  -9.969  28.159  0.00  0.00    -0.264 OA
ATOM     26  H   UNL     1       5.634 -10.847  28.595  0.00  0.00    +0.173 HD
ENDBRANCH  21  23
ENDBRANCH  17  21
ENDBRANCH   4  17
TORSDOF 4
