REMARK  Name = =
REMARK  5 active torsions:
REMARK  status: ('A' for Active; 'I' for Inactive)
REMARK    1  A    between atoms: C_2  and  C_10
REMARK    2  A    between atoms: N_4  and  C_19
REMARK    3  A    between atoms: C_12  and  S_16
REMARK    4  A    between atoms: C_19  and  N_23
REMARK    5  A    between atoms: N_23  and  N_24
REMARK                            x       y       z     vdW  Elec       q    Type
REMARK                         _______ _______ _______ _____ _____    ______ ____
ROOT
ATOM      1  C   UNL     1       5.278 -11.923  26.749  0.00  0.00    +0.001 C 
ATOM      2  C   UNL     1       4.386 -11.772  25.645  0.00  0.00    +0.012 C 
ATOM      3  C   UNL     1       4.734 -10.808  24.731  0.00  0.00    +0.067 C 
ATOM      4  N   UNL     1       4.126 -10.354  23.542  0.00  0.00    -0.252 N 
ATOM      5  C   UNL     1       4.559  -8.923  23.420  0.00  0.00    +0.190 C 
ATOM      6  N   UNL     1       5.953  -9.108  23.781  0.00  0.00    -0.315 N 
ATOM      7  C   UNL     1       5.895 -10.028  24.887  0.00  0.00    +0.060 C 
ATOM      8  C   UNL     1       6.715 -10.212  25.960  0.00  0.00    +0.016 C 
ATOM      9  C   UNL     1       6.401 -11.165  26.893  0.00  0.00    +0.001 C 
ATOM     10  H   UNL     1       6.749  -8.701  23.368  0.00  0.00    +0.148 HD
ENDROOT
BRANCH   2  11
ATOM     11  C   UNL     1       3.188 -12.533  25.671  0.00  0.00    -0.006 C 
ATOM     12  C   UNL     1       2.611 -13.366  24.925  0.00  0.00    -0.005 C 
ATOM     13  C   UNL     1       1.273 -13.980  25.330  0.00  0.00    +0.164 C 
ATOM     14  C   UNL     1       0.320 -12.963  25.864  0.00  0.00    +0.117 C 
ATOM     15  N   UNL     1       1.036 -11.814  26.394  0.00  0.00    -0.211 NA
ATOM     16  C   UNL     1       2.296 -12.255  26.942  0.00  0.00    +0.115 C 
BRANCH  13  17
ATOM     17  S   UNL     1       0.558 -14.872  23.990  0.00  0.00    -0.027 S 
ATOM     18  O   UNL     1       1.512 -15.884  23.424  0.00  0.00    -0.176 OA
ATOM     19  O   UNL     1      -0.686 -15.575  24.466  0.00  0.00    -0.176 OA
ATOM     20  H   UNL     1       0.256 -13.982  23.008  0.00  0.00    +0.210 HD
ENDBRANCH  13  17
ENDBRANCH   2  11
BRANCH   4  21
ATOM     21  C   UNL     1       3.313 -11.016  22.622  0.00  0.00    +0.175 C 
ATOM     22  C   UNL     1       3.782 -11.933  21.782  0.00  0.00    +0.307 C 
ATOM     23  F   UNL     1       5.090 -12.301  21.746  0.00  0.00    -0.169 F 
ATOM     24  F   UNL     1       2.927 -12.551  20.937  0.00  0.00    -0.169 F 
BRANCH  21  25
ATOM     25  N   UNL     1       1.962 -10.631  22.459  0.00  0.00    -0.247 N 
ATOM     26  H   UNL     1       1.648 -10.414  21.552  0.00  0.00    +0.171 HD
BRANCH  25  27
ATOM     27  N   UNL     1       1.072 -10.543  23.484  0.00  0.00    -0.228 N 
ATOM     28  C   UNL     1      -0.223 -10.097  23.556  0.00  0.00    +0.316 C 
ATOM     29  O   UNL     1      -0.833  -9.663  22.551  0.00  0.00    -0.264 OA
ATOM     30  H   UNL     1       1.428 -10.863  24.344  0.00  0.00    +0.173 HD
ENDBRANCH  25  27
ENDBRANCH  21  25
ENDBRANCH   4  21
TORSDOF 5
