REMARK  Name = =
REMARK  6 active torsions:
REMARK  status: ('A' for Active; 'I' for Inactive)
REMARK    1  A    between atoms: C_2  and  C_10
REMARK    2  A    between atoms: N_4  and  C_24
REMARK    3  A    between atoms: C_8  and  N_19
REMARK    4  A    between atoms: C_12  and  S_16
REMARK    5  A    between atoms: C_24  and  N_28
REMARK    6  A    between atoms: N_28  and  N_29
REMARK                            x       y       z     vdW  Elec       q    Type
REMARK                         _______ _______ _______ _____ _____    ______ ____
ROOT
ATOM      1  C   UNL     1       2.438  -6.036  22.911  0.00  0.00    +0.002 C 
ATOM      2  C   UNL     1       3.049  -4.781  22.783  0.00  0.00    +0.012 C 
ATOM      3  C   UNL     1       2.809  -4.012  21.674  0.00  0.00    +0.068 C 
ATOM      4  N   UNL     1       3.135  -2.676  21.310  0.00  0.00    -0.252 N 
ATOM      5  C   UNL     1       3.225  -2.736  19.822  0.00  0.00    +0.190 C 
ATOM      6  N   UNL     1       1.970  -3.512  19.627  0.00  0.00    -0.314 N 
ATOM      7  C   UNL     1       1.957  -4.510  20.674  0.00  0.00    +0.073 C 
ATOM      8  C   UNL     1       1.384  -5.723  20.826  0.00  0.00    +0.062 C 
ATOM      9  C   UNL     1       1.611  -6.509  21.946  0.00  0.00    +0.016 C 
ATOM     10  H   UNL     1       1.289  -3.374  18.929  0.00  0.00    +0.148 HD
ENDROOT
BRANCH   2  11
ATOM     11  C   UNL     1       3.921  -4.340  23.865  0.00  0.00    -0.006 C 
ATOM     12  C   UNL     1       3.513  -3.792  24.995  0.00  0.00    -0.005 C 
ATOM     13  C   UNL     1       4.453  -3.370  26.062  0.00  0.00    +0.164 C 
ATOM     14  C   UNL     1       5.599  -2.693  25.312  0.00  0.00    +0.117 C 
ATOM     15  N   UNL     1       6.192  -3.520  24.326  0.00  0.00    -0.211 NA
ATOM     16  C   UNL     1       5.383  -4.540  23.742  0.00  0.00    +0.115 C 
BRANCH  13  17
ATOM     17  S   UNL     1       5.087  -4.676  27.042  0.00  0.00    -0.027 S 
ATOM     18  O   UNL     1       4.010  -5.271  27.945  0.00  0.00    -0.176 OA
ATOM     19  O   UNL     1       6.104  -4.080  28.007  0.00  0.00    -0.176 OA
ATOM     20  H   UNL     1       5.592  -5.619  26.202  0.00  0.00    +0.210 HD
ENDBRANCH  13  17
ENDBRANCH   2  11
BRANCH   8  21
ATOM     21  N   UNL     1       0.509  -6.219  19.825  0.00  0.00    -0.307 N 
ATOM     22  C   UNL     1      -0.928  -6.186  19.918  0.00  0.00    +0.091 C 
ATOM     23  C   UNL     1      -1.450  -6.678  18.586  0.00  0.00    +0.023 C 
ATOM     24  C   UNL     1      -0.289  -6.448  17.659  0.00  0.00    +0.023 C 
ATOM     25  C   UNL     1       0.891  -6.833  18.556  0.00  0.00    +0.091 C 
ENDBRANCH   8  21
BRANCH   4  26
ATOM     26  C   UNL     1       3.260  -1.540  22.132  0.00  0.00    +0.175 C 
ATOM     27  C   UNL     1       4.406  -0.993  22.441  0.00  0.00    +0.307 C 
ATOM     28  F   UNL     1       5.544  -1.528  21.958  0.00  0.00    -0.169 F 
ATOM     29  F   UNL     1       4.465   0.083  23.234  0.00  0.00    -0.169 F 
BRANCH  26  30
ATOM     30  N   UNL     1       2.084  -0.964  22.697  0.00  0.00    -0.247 N 
ATOM     31  H   UNL     1       2.150  -0.639  23.624  0.00  0.00    +0.171 HD
BRANCH  30  32
ATOM     32  N   UNL     1       0.862  -0.817  22.071  0.00  0.00    -0.228 N 
ATOM     33  C   UNL     1      -0.344  -1.076  22.780  0.00  0.00    +0.316 C 
ATOM     34  O   UNL     1      -0.332  -1.441  23.989  0.00  0.00    -0.264 OA
ATOM     35  H   UNL     1       0.825  -0.532  21.130  0.00  0.00    +0.173 HD
ENDBRANCH  30  32
ENDBRANCH  26  30
ENDBRANCH   4  26
TORSDOF 6
