REMARK  Name = =
REMARK  10 active torsions:
REMARK  status: ('A' for Active; 'I' for Inactive)
REMARK    1  A    between atoms: C_2  and  C_10
REMARK    2  A    between atoms: N_4  and  C_34
REMARK    3  A    between atoms: C_8  and  N_19
REMARK    4  A    between atoms: C_12  and  S_16
REMARK    5  A    between atoms: C_22  and  O_24
REMARK    6  A    between atoms: O_24  and  C_25
REMARK    7  A    between atoms: C_25  and  C_27
REMARK    8  A    between atoms: C_30  and  O_33
REMARK    9  A    between atoms: C_34  and  N_38
REMARK   10  A    between atoms: N_38  and  N_39
REMARK                            x       y       z     vdW  Elec       q    Type
REMARK                         _______ _______ _______ _____ _____    ______ ____
ROOT
ATOM      1  C   UNL     1       2.826  -2.210  19.706  0.00  0.00    +0.002 C 
ATOM      2  C   UNL     1       3.800  -2.289  20.714  0.00  0.00    +0.012 C 
ATOM      3  C   UNL     1       3.787  -1.244  21.608  0.00  0.00    +0.068 C 
ATOM      4  N   UNL     1       4.503  -1.087  22.851  0.00  0.00    -0.252 N 
ATOM      5  C   UNL     1       4.580   0.385  22.980  0.00  0.00    +0.190 C 
ATOM      6  N   UNL     1       3.202   0.723  22.556  0.00  0.00    -0.314 N 
ATOM      7  C   UNL     1       2.879  -0.184  21.508  0.00  0.00    +0.073 C 
ATOM      8  C   UNL     1       1.945  -0.138  20.509  0.00  0.00    +0.062 C 
ATOM      9  C   UNL     1       1.931  -1.182  19.600  0.00  0.00    +0.016 C 
ATOM     10  H   UNL     1       2.626   1.431  22.924  0.00  0.00    +0.148 HD
ENDROOT
BRANCH   2  11
ATOM     11  C   UNL     1       4.678  -3.423  20.750  0.00  0.00    -0.006 C 
ATOM     12  C   UNL     1       4.212  -4.685  20.872  0.00  0.00    -0.005 C 
ATOM     13  C   UNL     1       5.084  -5.866  20.914  0.00  0.00    +0.164 C 
ATOM     14  C   UNL     1       6.535  -5.545  20.925  0.00  0.00    +0.117 C 
ATOM     15  N   UNL     1       6.847  -4.209  21.379  0.00  0.00    -0.211 NA
ATOM     16  C   UNL     1       6.143  -3.296  20.494  0.00  0.00    +0.115 C 
BRANCH  13  17
ATOM     17  S   UNL     1       4.727  -6.866  22.362  0.00  0.00    -0.027 S 
ATOM     18  O   UNL     1       3.949  -6.084  23.379  0.00  0.00    -0.176 OA
ATOM     19  O   UNL     1       6.004  -7.314  23.016  0.00  0.00    -0.176 OA
ATOM     20  H   UNL     1       4.000  -7.936  21.942  0.00  0.00    +0.210 HD
ENDBRANCH  13  17
ENDBRANCH   2  11
BRANCH   8  21
ATOM     21  N   UNL     1       1.022   0.936  20.386  0.00  0.00    -0.303 N 
ATOM     22  C   UNL     1       1.225   2.169  19.636  0.00  0.00    +0.095 C 
ATOM     23  C   UNL     1      -0.196   2.351  19.078  0.00  0.00    +0.067 C 
ATOM     24  C   UNL     1      -1.013   2.117  20.326  0.00  0.00    +0.190 C 
ATOM     25  C   UNL     1      -0.314   0.989  21.001  0.00  0.00    +0.135 C 
BRANCH  24  26
ATOM     26  O   UNL     1      -2.375   1.875  20.084  0.00  0.00    -0.447 OA
BRANCH  26  27
ATOM     27  C   UNL     1      -3.382   2.328  20.908  0.00  0.00    +0.341 C 
ATOM     28  O   UNL     1      -3.484   3.584  21.051  0.00  0.00    -0.245 OA
BRANCH  27  29
ATOM     29  C   UNL     1      -4.282   1.399  21.581  0.00  0.00    +0.076 C 
ATOM     30  C   UNL     1      -5.541   1.797  22.017  0.00  0.00    +0.010 C 
ATOM     31  C   UNL     1      -6.378   0.907  22.652  0.00  0.00    +0.037 C 
ATOM     32  C   UNL     1      -6.015  -0.406  22.887  0.00  0.00    +0.134 C 
ATOM     33  C   UNL     1      -4.770  -0.812  22.461  0.00  0.00    +0.037 C 
ATOM     34  C   UNL     1      -3.925   0.092  21.816  0.00  0.00    +0.010 C 
BRANCH  32  35
ATOM     35  O   UNL     1      -6.891  -1.291  23.539  0.00  0.00    -0.506 OA
ATOM     36  H   UNL     1      -7.734  -0.994  23.821  0.00  0.00    +0.292 HD
ENDBRANCH  32  35
ENDBRANCH  27  29
ENDBRANCH  26  27
ENDBRANCH  24  26
ENDBRANCH   8  21
BRANCH   4  37
ATOM     37  C   UNL     1       4.961  -2.060  23.758  0.00  0.00    +0.175 C 
ATOM     38  C   UNL     1       4.124  -2.747  24.499  0.00  0.00    +0.307 C 
ATOM     39  F   UNL     1       4.514  -3.692  25.386  0.00  0.00    -0.169 F 
ATOM     40  F   UNL     1       2.793  -2.505  24.386  0.00  0.00    -0.169 F 
BRANCH  37  41
ATOM     41  N   UNL     1       6.365  -2.296  23.883  0.00  0.00    -0.247 N 
ATOM     42  H   UNL     1       6.741  -3.185  23.688  0.00  0.00    +0.171 HD
BRANCH  41  43
ATOM     43  N   UNL     1       7.208  -1.235  24.291  0.00  0.00    -0.228 N 
ATOM     44  C   UNL     1       7.387  -1.014  25.671  0.00  0.00    +0.316 C 
ATOM     45  O   UNL     1       6.828  -1.725  26.540  0.00  0.00    -0.264 OA
ATOM     46  H   UNL     1       7.659  -0.665  23.627  0.00  0.00    +0.173 HD
ENDBRANCH  41  43
ENDBRANCH  37  41
ENDBRANCH   4  37
TORSDOF 10
