MODEL 1
REMARK VINA RESULT:   -10.252      0.000      0.000
REMARK INTER + INTRA:         -19.050
REMARK INTER:                 -16.845
REMARK INTRA:                  -2.205
REMARK UNBOUND:                -2.205
REMARK  Name = =
REMARK  12 active torsions:
REMARK  status: ('A' for Active; 'I' for Inactive)
REMARK    1  A    between atoms: C_1  and  O_9
REMARK    2  A    between atoms: C_4  and  C_28
REMARK    3  A    between atoms: C_7  and  N_10
REMARK    4  A    between atoms: N_10  and  C_11
REMARK    5  A    between atoms: C_14  and  C_17
REMARK    6  A    between atoms: C_16  and  C_26
REMARK    7  A    between atoms: C_26  and  O_27
REMARK    8  A    between atoms: C_28  and  C_29
REMARK    9  A    between atoms: C_29  and  C_30
REMARK   10  A    between atoms: C_30  and  C_34
REMARK   11  A    between atoms: C_34  and  N_35
REMARK   12  A    between atoms: N_35  and  C_36
REMARK                            x       y       z     vdW  Elec       q    Type
REMARK                         _______ _______ _______ _____ _____    ______ ____
ROOT
ATOM      1  C   UNL     1      -1.877  -6.389  33.017  0.00  0.00    +0.131 C 
ATOM      2  C   UNL     1      -1.346  -7.699  32.607  0.00  0.00    +0.047 C 
ATOM      3  C   UNL     1      -1.924  -8.350  31.397  0.00  0.00    +0.056 C 
ATOM      4  C   UNL     1      -1.259  -7.838  30.142  0.00  0.00    +0.016 C 
ATOM      5  C   UNL     1      -1.756  -6.370  30.204  0.00  0.00    +0.019 C 
ATOM      6  C   UNL     1      -3.111  -6.514  30.862  0.00  0.00    +0.075 C 
ATOM      7  C   UNL     1      -3.093  -5.895  32.268  0.00  0.00    +0.111 C 
ATOM      8  N   UNL     1      -3.309  -7.929  31.114  0.00  0.00    -0.298 NA
ATOM      9  H   UNL     1      -3.921  -8.087  31.914  0.00  0.00    +0.123 HD
ENDROOT
BRANCH   1  10
ATOM     10  O   UNL     1      -2.119  -6.366  34.414  0.00  0.00    -0.383 OA
ATOM     11  H   UNL     1      -1.984  -7.253  34.781  0.00  0.00    +0.210 HD
ENDBRANCH   1  10
BRANCH   7  12
ATOM     12  N   UNL     1      -3.137  -4.457  32.197  0.00  0.00    -0.331 N 
ATOM     13  H   UNL     1      -2.289  -3.974  32.068  0.00  0.00    +0.147 HD
BRANCH  12  14
ATOM     14  C   UNL     1      -4.324  -3.699  32.301  0.00  0.00    +0.043 C 
ATOM     15  C   UNL     1      -5.194  -3.801  33.360  0.00  0.00    +0.014 C 
ATOM     16  C   UNL     1      -6.354  -3.031  33.464  0.00  0.00    -0.003 C 
ATOM     17  C   UNL     1      -6.625  -2.134  32.451  0.00  0.00    -0.021 C 
ATOM     18  C   UNL     1      -5.763  -2.017  31.378  0.00  0.00    -0.005 C 
ATOM     19  C   UNL     1      -4.627  -2.793  31.309  0.00  0.00    +0.020 C 
BRANCH  17  20
ATOM     20  C   UNL     1      -7.875  -1.304  32.563  0.00  0.00    +0.047 C 
ATOM     21  C   UNL     1      -8.910  -1.814  31.618  0.00  0.00    +0.093 C 
ATOM     22  N   UNL     1      -8.943  -1.136  30.350  0.00  0.00    -0.222 NA
ATOM     23  N   UNL     1      -8.876   0.254  30.356  0.00  0.00    -0.198 N 
ATOM     24  C   UNL     1      -9.348   1.205  29.506  0.00  0.00    +0.207 C 
ATOM     25  N   UNL     1      -8.981   2.387  30.022  0.00  0.00    -0.127 NA
ATOM     26  N   UNL     1      -8.321   2.165  31.128  0.00  0.00    -0.135 NA
ATOM     27  C   UNL     1      -8.233   0.849  31.371  0.00  0.00    +0.149 C 
ATOM     28  C   UNL     1      -7.584   0.151  32.493  0.00  0.00    +0.070 C 
ATOM     29  H   UNL     1      -8.153  -1.476  29.802  0.00  0.00    +0.146 HD
ENDBRANCH  17  20
BRANCH  19  30
ATOM     30  C   UNL     1      -3.704  -2.668  30.159  0.00  0.00    +0.165 C 
BRANCH  30  31
ATOM     31  O   UNL     1      -3.832  -3.721  29.265  0.00  0.00    -0.377 OA
ATOM     32  H   UNL     1      -4.413  -3.457  28.535  0.00  0.00    +0.211 HD
ENDBRANCH  30  31
ENDBRANCH  19  30
ENDBRANCH  12  14
ENDBRANCH   7  12
BRANCH   4  33
ATOM     33  C   UNL     1       0.211  -7.891  30.111  0.00  0.00    +0.002 C 
BRANCH  33  34
ATOM     34  C   UNL     1       1.006  -6.901  29.390  0.00  0.00    +0.007 C 
BRANCH  34  35
ATOM     35  C   UNL     1       1.742  -5.853  30.146  0.00  0.00    +0.073 C 
ATOM     36  C   UNL     1       1.110  -4.441  29.931  0.00  0.00    +0.146 C 
ATOM     37  O   UNL     1       2.415  -3.939  30.150  0.00  0.00    -0.353 OA
ATOM     38  C   UNL     1       2.862  -5.120  29.494  0.00  0.00    +0.146 C 
BRANCH  35  39
ATOM     39  C   UNL     1       1.869  -6.050  31.613  0.00  0.00    +0.093 C 
BRANCH  39  40
ATOM     40  N   UNL     1       2.965  -5.613  32.343  0.00  0.00    -0.317 N 
ATOM     41  H   UNL     1       3.816  -5.707  31.859  0.00  0.00    +0.148 HD
BRANCH  40  42
ATOM     42  C   UNL     1       3.116  -5.067  33.623  0.00  0.00    +0.145 C 
ATOM     43  C   UNL     1       2.327  -5.048  34.720  0.00  0.00    +0.098 C 
ATOM     44  N   UNL     1       2.951  -4.411  35.752  0.00  0.00    -0.292 N 
ATOM     45  C   UNL     1       4.141  -4.026  35.308  0.00  0.00    +0.166 C 
ATOM     46  N   UNL     1       4.263  -4.403  34.044  0.00  0.00    -0.212 NA
ATOM     47  H   UNL     1       2.588  -4.265  36.656  0.00  0.00    +0.154 HD
ENDBRANCH  40  42
ENDBRANCH  39  40
ENDBRANCH  35  39
ENDBRANCH  34  35
ENDBRANCH  33  34
ENDBRANCH   4  33
TORSDOF 12
ENDMDL
