MODEL 1
REMARK VINA RESULT:    -6.376      0.000      0.000
REMARK INTER + INTRA:         -13.687
REMARK INTER:                 -11.034
REMARK INTRA:                  -2.652
REMARK UNBOUND:                -2.652
REMARK  Name = =
REMARK  15 active torsions:
REMARK  status: ('A' for Active; 'I' for Inactive)
REMARK    1  A    between atoms: C_1  and  C_6
REMARK    2  A    between atoms: C_1  and  N_24
REMARK    3  A    between atoms: C_6  and  N_8
REMARK    4  A    between atoms: N_8  and  O_23
REMARK    5  A    between atoms: N_11  and  C_12
REMARK    6  A    between atoms: N_24  and  C_25
REMARK    7  A    between atoms: C_25  and  O_26
REMARK    8  A    between atoms: C_25  and  C_35
REMARK    9  A    between atoms: O_26  and  P_27
REMARK   10  A    between atoms: P_27  and  O_29
REMARK   11  A    between atoms: P_27  and  O_30
REMARK   12  A    between atoms: O_30  and  P_31
REMARK   13  A    between atoms: P_31  and  O_33
REMARK   14  A    between atoms: P_31  and  O_34
REMARK   15  A    between atoms: C_35  and  O_36
REMARK                            x       y       z     vdW  Elec       q    Type
REMARK                         _______ _______ _______ _____ _____    ______ ____
ROOT
ATOM      1  C   UNL     1      60.700 163.175  38.455  0.00  0.00    +0.224 C 
ATOM      2  N   UNL     1      61.019 164.344  39.253  0.00  0.00    -0.225 NA
ATOM      3  C   UNL     1      62.197 164.767  38.944  0.00  0.00    +0.196 C 
ATOM      4  N   UNL     1      62.729 163.929  37.940  0.00  0.00    -0.224 NA
ATOM      5  C   UNL     1      61.913 162.987  37.612  0.00  0.00    +0.119 C 
ENDROOT
BRANCH   1   6
ATOM      6  C   UNL     1      60.545 162.053  39.402  0.00  0.00    +0.136 C 
ATOM      7  S   UNL     1      61.444 160.694  39.320  0.00  0.00    -0.033 S 
BRANCH   6   8
ATOM      8  N   UNL     1      59.581 162.147  40.426  0.00  0.00    -0.128 N 
ATOM      9  C   UNL     1      58.293 161.542  40.330  0.00  0.00    +0.331 C 
ATOM     10  O   UNL     1      58.038 160.901  39.267  0.00  0.00    -0.250 OA
ATOM     11  N   UNL     1      57.324 161.628  41.344  0.00  0.00    -0.276 N 
ATOM     12  H   UNL     1      57.522 162.125  42.170  0.00  0.00    +0.152 HD
BRANCH  11  13
ATOM     13  C   UNL     1      56.052 160.998  41.183  0.00  0.00    +0.198 C 
ATOM     14  C   UNL     1      54.928 161.864  41.662  0.00  0.00    +0.198 C 
ATOM     15  O   UNL     1      54.909 163.124  41.725  0.00  0.00    -0.289 OA
ATOM     16  C   UNL     1      53.852 160.951  42.041  0.00  0.00    +0.040 C 
ATOM     17  C   UNL     1      54.429 159.707  42.282  0.00  0.00    +0.040 C 
ATOM     18  C   UNL     1      53.584 158.670  42.664  0.00  0.00    +0.003 C 
ATOM     19  C   UNL     1      52.224 158.854  42.800  0.00  0.00    +0.000 C 
ATOM     20  C   UNL     1      51.687 160.098  42.554  0.00  0.00    +0.000 C 
ATOM     21  C   UNL     1      52.487 161.161  42.174  0.00  0.00    +0.003 C 
ATOM     22  C   UNL     1      55.880 159.809  42.060  0.00  0.00    +0.198 C 
ATOM     23  O   UNL     1      56.712 159.023  42.543  0.00  0.00    -0.289 OA
ENDBRANCH  11  13
BRANCH   8  24
ATOM     24  O   UNL     1      59.867 162.830  41.552  0.00  0.00    -0.286 OA
ATOM     25  H   UNL     1      60.774 163.172  41.501  0.00  0.00    +0.242 HD
ENDBRANCH   8  24
ENDBRANCH   6   8
ENDBRANCH   1   6
BRANCH   1  26
ATOM     26  N   UNL     1      59.513 163.448  37.708  0.00  0.00    -0.159 NA
BRANCH  26  27
ATOM     27  C   UNL     1      59.680 163.586  36.300  0.00  0.00    +0.231 C 
BRANCH  27  28
ATOM     28  O   UNL     1      59.247 164.757  35.744  0.00  0.00    -0.255 OA
BRANCH  28  29
ATOM     29  P   UNL     1      60.488 165.777  35.253  0.00  0.00    +0.485 P 
ATOM     30  O   UNL     1      61.441 164.971  34.398  0.00  0.00    -0.227 OA
BRANCH  29  31
ATOM     31  O   UNL     1      61.368 166.351  36.576  0.00  0.00    -0.302 OA
ATOM     32  H   UNL     1      60.777 166.840  37.171  0.00  0.00    +0.222 HD
ENDBRANCH  29  31
BRANCH  29  33
ATOM     33  O   UNL     1      59.937 167.074  34.328  0.00  0.00    -0.186 OA
BRANCH  33  34
ATOM     34  P   UNL     1      61.105 168.283  34.207  0.00  0.00    +0.481 P 
ATOM     35  O   UNL     1      61.092 169.225  35.365  0.00  0.00    -0.227 OA
BRANCH  34  36
ATOM     36  O   UNL     1      60.816 169.189  32.793  0.00  0.00    -0.302 OA
ATOM     37  H   UNL     1      59.995 168.884  32.376  0.00  0.00    +0.222 HD
ENDBRANCH  34  36
BRANCH  34  38
ATOM     38  O   UNL     1      62.636 167.568  34.091  0.00  0.00    -0.302 OA
ATOM     39  H   UNL     1      63.152 167.777  34.885  0.00  0.00    +0.222 HD
ENDBRANCH  34  38
ENDBRANCH  33  34
ENDBRANCH  29  33
ENDBRANCH  28  29
ENDBRANCH  27  28
BRANCH  27  40
ATOM     40  C   UNL     1      59.131 162.356  35.607  0.00  0.00    +0.186 C 
BRANCH  40  41
ATOM     41  O   UNL     1      58.748 161.358  36.499  0.00  0.00    -0.378 OA
ATOM     42  H   UNL     1      58.486 160.565  36.004  0.00  0.00    +0.211 HD
ENDBRANCH  40  41
ENDBRANCH  27  40
ENDBRANCH  26  27
ENDBRANCH   1  26
TORSDOF 15
ENDMDL
