REMARK  Name = =
REMARK  0 active torsions:
REMARK  status: ('A' for Active; 'I' for Inactive)
REMARK                            x       y       z     vdW  Elec       q    Type
REMARK                         _______ _______ _______ _____ _____    ______ ____
ROOT
ATOM      1  C   UNL     1      53.160 156.898  29.734  0.00  0.00    +0.119 C 
ATOM      2  N   UNL     1      52.846 158.205  29.669  0.00  0.00    -0.241 NA
ATOM      3  C   UNL     1      51.536 158.546  29.795  0.00  0.00    +0.099 C 
ATOM      4  C   UNL     1      50.583 157.566  29.981  0.00  0.00    +0.099 C 
ATOM      5  N   UNL     1      50.931 156.256  30.042  0.00  0.00    -0.241 NA
ATOM      6  C   UNL     1      52.223 155.901  29.920  0.00  0.00    +0.119 C 
ATOM      7  C   UNL     1      49.252 157.954  30.105  0.00  0.00    +0.021 C 
ATOM      8  C   UNL     1      48.909 159.283  30.041  0.00  0.00    +0.002 C 
ATOM      9  C   UNL     1      49.846 160.285  29.856  0.00  0.00    +0.002 C 
ATOM     10  C   UNL     1      51.155 159.891  29.734  0.00  0.00    +0.021 C 
ENDROOT
TORSDOF 0
