REMARK  Name = =
REMARK  1 active torsions:
REMARK  status: ('A' for Active; 'I' for Inactive)
REMARK    1  A    between atoms: C_9  and  C_10
REMARK                            x       y       z     vdW  Elec       q    Type
REMARK                         _______ _______ _______ _____ _____    ______ ____
ROOT
ATOM      1  N   UNL     1      53.098 152.130  27.675  0.00  0.00    -0.313 N 
ATOM      2  C   UNL     1      53.259 153.458  28.149  0.00  0.00    +0.301 C 
ATOM      3  O   UNL     1      53.903 153.690  29.204  0.00  0.00    -0.253 OA
ATOM      4  N   UNL     1      52.708 154.546  27.460  0.00  0.00    -0.256 N 
ATOM      5  C   UNL     1      51.974 154.288  26.244  0.00  0.00    +0.127 C 
ATOM      6  C   UNL     1      52.689 155.139  25.181  0.00  0.00    +0.164 C 
ATOM      7  O   UNL     1      52.497 156.443  25.540  0.00  0.00    -0.350 OA
ATOM      8  C   UNL     1      53.076 156.853  26.719  0.00  0.00    +0.168 C 
ATOM      9  C   UNL     1      52.825 155.911  27.877  0.00  0.00    +0.148 C 
ATOM     10  H   UNL     1      53.493 151.378  28.173  0.00  0.00    +0.146 HD
ATOM     11  H   UNL     1      52.592 151.961  26.848  0.00  0.00    +0.146 HD
ENDROOT
BRANCH   9  12
ATOM     12  C   UNL     1      51.620 156.356  28.628  0.00  0.00    +0.099 C 
ATOM     13  N   UNL     1      51.745 157.451  29.411  0.00  0.00    -0.245 NA
ATOM     14  C   UNL     1      50.725 157.945  30.134  0.00  0.00    +0.099 C 
ATOM     15  C   UNL     1      49.510 157.295  30.059  0.00  0.00    +0.099 C 
ATOM     16  N   UNL     1      49.383 156.205  29.278  0.00  0.00    -0.241 NA
ATOM     17  C   UNL     1      50.408 155.712  28.554  0.00  0.00    +0.115 C 
ATOM     18  C   UNL     1      48.440 157.799  30.805  0.00  0.00    +0.021 C 
ATOM     19  C   UNL     1      48.568 158.915  31.604  0.00  0.00    +0.002 C 
ATOM     20  C   UNL     1      49.778 159.564  31.681  0.00  0.00    +0.002 C 
ATOM     21  C   UNL     1      50.822 159.057  30.941  0.00  0.00    +0.021 C 
ENDBRANCH   9  12
TORSDOF 1
