MODEL 1
REMARK VINA RESULT:    -7.814      0.000      0.000
REMARK INTER + INTRA:         -16.368
REMARK INTER:                 -13.752
REMARK INTRA:                  -2.616
REMARK UNBOUND:                -2.616
REMARK  Name = =
REMARK  15 active torsions:
REMARK  status: ('A' for Active; 'I' for Inactive)
REMARK    1  A    between atoms: C_1  and  O_13
REMARK    2  A    between atoms: N_3  and  N_4
REMARK    3  A    between atoms: N_3  and  O_26
REMARK    4  A    between atoms: C_5  and  C_6
REMARK    5  A    between atoms: O_13  and  P_15
REMARK    6  A    between atoms: P_15  and  O_17
REMARK    7  A    between atoms: O_17  and  P_18
REMARK    8  A    between atoms: P_18  and  O_20
REMARK    9  A    between atoms: P_18  and  O_21
REMARK   10  A    between atoms: O_21  and  P_22
REMARK   11  A    between atoms: P_22  and  O_24
REMARK   12  A    between atoms: P_22  and  O_25
REMARK   13  A    between atoms: O_26  and  C_27
REMARK   14  A    between atoms: C_27  and  C_29
REMARK   15  A    between atoms: C_29  and  O_31
REMARK                            x       y       z     vdW  Elec       q    Type
REMARK                         _______ _______ _______ _____ _____    ______ ____
ROOT
ATOM      1  C   UNL     1      -0.207  -3.800  29.865  0.00  0.00    +0.464 C 
ATOM      2  O   UNL     1       0.896  -3.202  29.736  0.00  0.00    -0.221 OA
ATOM      3  N   UNL     1      -0.360  -5.163  29.496  0.00  0.00    +0.022 N 
ENDROOT
BRANCH   3   4
ATOM      4  N   UNL     1      -1.571  -5.783  29.638  0.00  0.00    -0.137 NA
ATOM      5  C   UNL     1      -1.821  -6.687  30.477  0.00  0.00    +0.138 C 
BRANCH   5   6
ATOM      6  C   UNL     1      -0.883  -7.258  31.465  0.00  0.00    +0.211 C 
ATOM      7  O   UNL     1      -1.179  -6.730  32.770  0.00  0.00    -0.446 OA
ATOM      8  C   UNL     1      -2.362  -7.142  33.360  0.00  0.00    +0.317 C 
ATOM      9  O   UNL     1      -3.118  -6.360  33.996  0.00  0.00    -0.250 OA
ATOM     10  C   UNL     1      -2.787  -8.558  33.261  0.00  0.00    +0.110 C 
ATOM     11  C   UNL     1      -2.505  -9.049  31.856  0.00  0.00    +0.016 C 
ATOM     12  C   UNL     1      -1.037  -8.745  31.596  0.00  0.00    +0.051 C 
ENDBRANCH   5   6
ENDBRANCH   3   4
BRANCH   1  13
ATOM     13  O   UNL     1      -1.264  -3.052  30.386  0.00  0.00    -0.365 OA
BRANCH  13  15
ATOM     14  S   UNL     1      -1.885  -2.526  27.732  0.00  0.00    +0.054 S 
ATOM     15  P   UNL     1      -2.512  -2.509  29.360  0.00  0.00    +0.465 P 
ATOM     16  O   UNL     1      -2.939  -1.098  29.673  0.00  0.00    -0.232 OA
BRANCH  15  17
ATOM     17  O   UNL     1      -3.808  -3.584  29.499  0.00  0.00    -0.190 OA
BRANCH  17  18
ATOM     18  P   UNL     1      -4.445  -3.430  31.054  0.00  0.00    +0.492 P 
ATOM     19  O   UNL     1      -4.640  -4.814  31.626  0.00  0.00    -0.226 OA
BRANCH  18  20
ATOM     20  O   UNL     1      -3.357  -2.587  32.035  0.00  0.00    -0.302 OA
ATOM     21  H   UNL     1      -2.539  -2.420  31.541  0.00  0.00    +0.222 HD
ENDBRANCH  18  20
BRANCH  18  22
ATOM     22  O   UNL     1      -5.964  -2.692  31.033  0.00  0.00    -0.186 OA
BRANCH  22  23
ATOM     23  P   UNL     1      -6.082  -1.433  32.141  0.00  0.00    +0.481 P 
ATOM     24  O   UNL     1      -7.414  -0.728  32.058  0.00  0.00    -0.227 OA
BRANCH  23  25
ATOM     25  O   UNL     1      -4.842  -0.331  31.813  0.00  0.00    -0.302 OA
ATOM     26  H   UNL     1      -4.027  -0.620  32.252  0.00  0.00    +0.222 HD
ENDBRANCH  23  25
BRANCH  23  27
ATOM     27  O   UNL     1      -5.826  -2.043  33.706  0.00  0.00    -0.302 OA
ATOM     28  H   UNL     1      -6.481  -1.664  34.313  0.00  0.00    +0.222 HD
ENDBRANCH  23  27
ENDBRANCH  22  23
ENDBRANCH  18  22
ENDBRANCH  17  18
ENDBRANCH  15  17
ENDBRANCH  13  15
ENDBRANCH   1  13
BRANCH   3  29
ATOM     29  O   UNL     1       0.717  -5.828  28.993  0.00  0.00    -0.351 OA
BRANCH  29  30
ATOM     30  C   UNL     1       0.777  -6.494  27.792  0.00  0.00    +0.248 C 
ATOM     31  C   UNL     1       1.406  -5.981  26.741  0.00  0.00    +0.050 C 
BRANCH  30  32
ATOM     32  C   UNL     1       0.139  -7.790  27.659  0.00  0.00    +0.376 C 
ATOM     33  O   UNL     1       0.704  -8.861  27.978  0.00  0.00    -0.242 OA
BRANCH  32  34
ATOM     34  O   UNL     1      -1.141  -7.863  27.165  0.00  0.00    -0.475 OA
ATOM     35  H   UNL     1      -1.866  -7.960  27.752  0.00  0.00    +0.296 HD
ENDBRANCH  32  34
ENDBRANCH  30  32
ENDBRANCH  29  30
ENDBRANCH   3  29
TORSDOF 15
ENDMDL
