REMARK  Name = =
REMARK  15 active torsions:
REMARK  status: ('A' for Active; 'I' for Inactive)
REMARK    1  A    between atoms: C_1  and  O_13
REMARK    2  A    between atoms: N_3  and  N_4
REMARK    3  A    between atoms: N_3  and  O_26
REMARK    4  A    between atoms: C_5  and  C_6
REMARK    5  A    between atoms: O_13  and  P_15
REMARK    6  A    between atoms: P_15  and  O_17
REMARK    7  A    between atoms: O_17  and  P_18
REMARK    8  A    between atoms: P_18  and  O_20
REMARK    9  A    between atoms: P_18  and  O_21
REMARK   10  A    between atoms: O_21  and  P_22
REMARK   11  A    between atoms: P_22  and  O_24
REMARK   12  A    between atoms: P_22  and  O_25
REMARK   13  A    between atoms: O_26  and  C_27
REMARK   14  A    between atoms: C_27  and  C_29
REMARK   15  A    between atoms: C_29  and  O_31
REMARK                            x       y       z     vdW  Elec       q    Type
REMARK                         _______ _______ _______ _____ _____    ______ ____
ROOT
ATOM      1  C   UNL     1     -14.293  -7.607  22.911  0.00  0.00    +0.464 C 
ATOM      2  O   UNL     1     -15.278  -7.732  23.689  0.00  0.00    -0.221 OA
ATOM      3  N   UNL     1     -13.414  -6.495  22.998  0.00  0.00    +0.022 N 
ENDROOT
BRANCH   3   4
ATOM      4  N   UNL     1     -12.360  -6.381  22.134  0.00  0.00    -0.137 NA
ATOM      5  C   UNL     1     -11.246  -6.949  22.282  0.00  0.00    +0.138 C 
BRANCH   5   6
ATOM      6  C   UNL     1     -10.849  -7.838  23.392  0.00  0.00    +0.211 C 
ATOM      7  O   UNL     1      -9.917  -8.823  22.910  0.00  0.00    -0.446 OA
ATOM      8  C   UNL     1      -8.656  -8.373  22.557  0.00  0.00    +0.317 C 
ATOM      9  O   UNL     1      -8.045  -8.784  21.534  0.00  0.00    -0.250 OA
ATOM     10  C   UNL     1      -7.965  -7.367  23.396  0.00  0.00    +0.110 C 
ATOM     11  C   UNL     1      -8.975  -6.326  23.832  0.00  0.00    +0.016 C 
ATOM     12  C   UNL     1     -10.118  -7.099  24.474  0.00  0.00    +0.051 C 
ENDBRANCH   5   6
ENDBRANCH   3   4
BRANCH   1  13
ATOM     13  O   UNL     1     -14.116  -8.617  21.963  0.00  0.00    -0.365 OA
BRANCH  13  15
ATOM     14  S   UNL     1     -16.560  -9.700  21.212  0.00  0.00    +0.054 S 
ATOM     15  P   UNL     1     -15.061 -10.034  22.040  0.00  0.00    +0.465 P 
ATOM     16  O   UNL     1     -15.396 -10.423  23.457  0.00  0.00    -0.232 OA
BRANCH  15  17
ATOM     17  O   UNL     1     -14.219 -11.268  21.251  0.00  0.00    -0.190 OA
BRANCH  17  18
ATOM     18  P   UNL     1     -15.169 -12.662  21.307  0.00  0.00    +0.492 P 
ATOM     19  O   UNL     1     -15.923 -12.670  22.616  0.00  0.00    -0.226 OA
BRANCH  18  20
ATOM     20  O   UNL     1     -16.286 -12.642  20.039  0.00  0.00    -0.302 OA
ATOM     21  H   UNL     1     -16.812 -11.828  20.084  0.00  0.00    +0.222 HD
ENDBRANCH  18  20
BRANCH  18  22
ATOM     22  O   UNL     1     -14.222 -14.060  21.280  0.00  0.00    -0.186 OA
BRANCH  22  23
ATOM     23  P   UNL     1     -13.875 -14.571  19.716  0.00  0.00    +0.481 P 
ATOM     24  O   UNL     1     -13.583 -13.413  18.793  0.00  0.00    -0.227 OA
BRANCH  23  25
ATOM     25  O   UNL     1     -15.215 -15.426  19.138  0.00  0.00    -0.302 OA
ATOM     26  H   UNL     1     -15.404 -16.171  19.730  0.00  0.00    +0.222 HD
ENDBRANCH  23  25
BRANCH  23  27
ATOM     27  O   UNL     1     -12.560 -15.646  19.761  0.00  0.00    -0.302 OA
ATOM     28  H   UNL     1     -11.774 -15.182  20.090  0.00  0.00    +0.222 HD
ENDBRANCH  23  27
ENDBRANCH  22  23
ENDBRANCH  18  22
ENDBRANCH  17  18
ENDBRANCH  15  17
ENDBRANCH  13  15
ENDBRANCH   1  13
BRANCH   3  29
ATOM     29  O   UNL     1     -13.651  -5.548  23.948  0.00  0.00    -0.351 OA
BRANCH  29  30
ATOM     30  C   UNL     1     -14.405  -4.409  23.795  0.00  0.00    +0.248 C 
ATOM     31  C   UNL     1     -14.574  -3.838  22.608  0.00  0.00    +0.050 C 
BRANCH  30  32
ATOM     32  C   UNL     1     -15.036  -3.807  24.955  0.00  0.00    +0.376 C 
ATOM     33  O   UNL     1     -15.792  -2.812  24.877  0.00  0.00    -0.242 OA
BRANCH  32  34
ATOM     34  O   UNL     1     -14.806  -4.342  26.200  0.00  0.00    -0.475 OA
ATOM     35  H   UNL     1     -14.245  -5.087  26.294  0.00  0.00    +0.296 HD
ENDBRANCH  32  34
ENDBRANCH  30  32
ENDBRANCH  29  30
ENDBRANCH   3  29
TORSDOF 15
