REMARK  Name = =
REMARK  2 active torsions:
REMARK  status: ('A' for Active; 'I' for Inactive)
REMARK    1  A    between atoms: C_1  and  C_7
REMARK    2  A    between atoms: C_7  and  O_8
REMARK                            x       y       z     vdW  Elec       q    Type
REMARK                         _______ _______ _______ _____ _____    ______ ____
ROOT
ATOM      1  C   UNL     1     -12.207 -44.418  31.505  0.00  0.00    +0.007 C 
ATOM      2  C   UNL     1     -11.748 -43.327  32.199  0.00  0.00    -0.002 C 
ATOM      3  C   UNL     1     -10.423 -43.192  32.523  0.00  0.00    -0.000 C 
ATOM      4  C   UNL     1      -9.539 -44.182  32.138  0.00  0.00    -0.000 C 
ATOM      5  C   UNL     1      -9.999 -45.299  31.430  0.00  0.00    -0.000 C 
ATOM      6  C   UNL     1     -11.337 -45.406  31.120  0.00  0.00    -0.002 C 
ENDROOT
BRANCH   1   7
ATOM      7  C   UNL     1     -13.652 -44.492  31.195  0.00  0.00    +0.164 C 
BRANCH   7   8
ATOM      8  O   UNL     1     -14.210 -45.449  32.037  0.00  0.00    -0.377 OA
ATOM      9  H   UNL     1     -15.161 -45.522  31.858  0.00  0.00    +0.211 HD
ENDBRANCH   7   8
ENDBRANCH   1   7
TORSDOF 2
