REMARK  Name = =
REMARK  9 active torsions:
REMARK  status: ('A' for Active; 'I' for Inactive)
REMARK    1  A    between atoms: C_1  and  C_2
REMARK    2  A    between atoms: C_1  and  C_8
REMARK    3  A    between atoms: C_1  and  O_16
REMARK    4  A    between atoms: C_8  and  C_11
REMARK    5  A    between atoms: C_8  and  C_14
REMARK    6  A    between atoms: O_16  and  O_17
REMARK    7  A    between atoms: O_17  and  C_18
REMARK    8  A    between atoms: C_18  and  O_20
REMARK    9  A    between atoms: O_20  and  N_21
REMARK                            x       y       z     vdW  Elec       q    Type
REMARK                         _______ _______ _______ _____ _____    ______ ____
ROOT
ATOM      1  C   UNL     1     -10.732 -43.091  30.743  0.00  0.00    +0.189 C 
ENDROOT
BRANCH   1   2
ATOM      2  C   UNL     1      -9.318 -43.343  31.007  0.00  0.00    +0.009 C 
ATOM      3  C   UNL     1      -8.976 -44.171  32.054  0.00  0.00    -0.002 C 
ATOM      4  C   UNL     1      -7.669 -44.459  32.385  0.00  0.00    -0.000 C 
ATOM      5  C   UNL     1      -6.697 -43.862  31.602  0.00  0.00    -0.000 C 
ATOM      6  C   UNL     1      -6.997 -43.028  30.547  0.00  0.00    -0.000 C 
ATOM      7  C   UNL     1      -8.315 -42.781  30.267  0.00  0.00    -0.002 C 
ENDBRANCH   1   2
BRANCH   1   8
ATOM      8  C   UNL     1     -11.460 -44.081  29.913  0.00  0.00    +0.059 C 
BRANCH   8  11
ATOM      9  C   UNL     1     -13.861 -43.915  27.417  0.00  0.00    +0.124 C 
ATOM     10  N   UNL     1     -13.513 -44.057  28.596  0.00  0.00    -0.263 NA
ATOM     11  C   UNL     1     -12.565 -43.281  29.203  0.00  0.00    +0.118 C 
ATOM     12  C   UNL     1     -11.997 -42.210  28.336  0.00  0.00    +0.088 C 
ATOM     13  S   UNL     1     -12.887 -42.551  26.776  0.00  0.00    -0.091 S 
ENDBRANCH   8  11
BRANCH   8  14
ATOM     14  C   UNL     1     -10.690 -44.824  28.886  0.00  0.00    +0.005 C 
ATOM     15  C   UNL     1      -9.932 -46.006  29.350  0.00  0.00    +0.000 C 
ENDBRANCH   8  14
ENDBRANCH   1   8
BRANCH   1  16
ATOM     16  O   UNL     1     -11.383 -43.080  32.003  0.00  0.00    -0.165 OA
BRANCH  16  17
ATOM     17  O   UNL     1     -12.048 -41.945  32.220  0.00  0.00    -0.257 OA
BRANCH  17  18
ATOM     18  C   UNL     1     -13.377 -41.989  32.613  0.00  0.00    +0.562 C 
ATOM     19  O   UNL     1     -13.886 -43.125  32.793  0.00  0.00    -0.199 OA
BRANCH  18  20
ATOM     20  O   UNL     1     -14.144 -40.850  32.807  0.00  0.00    -0.331 OA
BRANCH  20  21
ATOM     21  N   UNL     1     -15.237 -40.875  33.641  0.00  0.00    -0.111 NA
ATOM     22  C   UNL     1     -15.017 -41.558  34.900  0.00  0.00    +0.134 C 
ATOM     23  C   UNL     1     -15.193 -40.067  34.840  0.00  0.00    +0.134 C 
ENDBRANCH  20  21
ENDBRANCH  18  20
ENDBRANCH  17  18
ENDBRANCH  16  17
ENDBRANCH   1  16
TORSDOF 9
