REMARK  Name = =
REMARK  13 active torsions:
REMARK  status: ('A' for Active; 'I' for Inactive)
REMARK    1  A    between atoms: C_1  and  C_4
REMARK    2  A    between atoms: C_1  and  C_12
REMARK    3  A    between atoms: C_1  and  C_14
REMARK    4  A    between atoms: C_2  and  O_7
REMARK    5  A    between atoms: O_7  and  P_8
REMARK    6  A    between atoms: P_8  and  O_10
REMARK    7  A    between atoms: P_8  and  O_11
REMARK    8  A    between atoms: C_14  and  C_15
REMARK    9  A    between atoms: C_14  and  O_21
REMARK   10  A    between atoms: O_21  and  O_22
REMARK   11  A    between atoms: O_22  and  C_23
REMARK   12  A    between atoms: C_23  and  O_25
REMARK   13  A    between atoms: O_25  and  N_26
REMARK                            x       y       z     vdW  Elec       q    Type
REMARK                         _______ _______ _______ _____ _____    ______ ____
ROOT
ATOM      1  C   UNL     1      -9.939 -43.942  30.708  0.00  0.00    +0.059 C 
ENDROOT
BRANCH   1   4
ATOM      2  C   UNL     1     -13.146 -43.998  32.177  0.00  0.00    +0.258 C 
ATOM      3  N   UNL     1     -11.914 -43.703  32.199  0.00  0.00    -0.233 NA
ATOM      4  C   UNL     1     -11.009 -44.580  31.646  0.00  0.00    +0.121 C 
ATOM      5  C   UNL     1     -11.528 -45.812  31.069  0.00  0.00    +0.091 C 
ATOM      6  S   UNL     1     -13.340 -45.586  31.372  0.00  0.00    -0.055 S 
BRANCH   2   7
ATOM      7  O   UNL     1     -14.196 -43.259  32.672  0.00  0.00    -0.380 OA
BRANCH   7   8
ATOM      8  P   UNL     1     -13.986 -41.826  33.584  0.00  0.00    +0.529 P 
ATOM      9  O   UNL     1     -14.603 -40.625  32.901  0.00  0.00    -0.216 OA
BRANCH   8  10
ATOM     10  O   UNL     1     -12.371 -41.485  33.883  0.00  0.00    -0.293 OA
ATOM     11  H   UNL     1     -11.956 -42.244  34.322  0.00  0.00    +0.223 HD
ENDBRANCH   8  10
BRANCH   8  12
ATOM     12  O   UNL     1     -14.797 -42.065  35.071  0.00  0.00    -0.293 OA
ATOM     13  H   UNL     1     -14.417 -42.832  35.527  0.00  0.00    +0.223 HD
ENDBRANCH   8  12
ENDBRANCH   7   8
ENDBRANCH   2   7
ENDBRANCH   1   4
BRANCH   1  14
ATOM     14  C   UNL     1      -8.995 -43.195  31.628  0.00  0.00    +0.005 C 
ATOM     15  C   UNL     1      -7.629 -42.907  31.190  0.00  0.00    +0.000 C 
ENDBRANCH   1  14
BRANCH   1  16
ATOM     16  C   UNL     1     -10.606 -43.002  29.779  0.00  0.00    +0.189 C 
BRANCH  16  17
ATOM     17  C   UNL     1      -9.695 -42.397  28.797  0.00  0.00    +0.009 C 
ATOM     18  C   UNL     1      -9.506 -41.078  28.539  0.00  0.00    -0.002 C 
ATOM     19  C   UNL     1      -8.642 -40.630  27.567  0.00  0.00    -0.000 C 
ATOM     20  C   UNL     1      -7.925 -41.530  26.809  0.00  0.00    -0.000 C 
ATOM     21  C   UNL     1      -8.096 -42.879  27.048  0.00  0.00    -0.000 C 
ATOM     22  C   UNL     1      -8.962 -43.307  28.021  0.00  0.00    -0.002 C 
ENDBRANCH  16  17
BRANCH  16  23
ATOM     23  O   UNL     1     -11.582 -43.647  28.969  0.00  0.00    -0.165 OA
BRANCH  23  24
ATOM     24  O   UNL     1     -12.446 -42.692  28.626  0.00  0.00    -0.257 OA
BRANCH  24  25
ATOM     25  C   UNL     1     -13.274 -42.912  27.527  0.00  0.00    +0.562 C 
ATOM     26  O   UNL     1     -13.176 -43.995  26.935  0.00  0.00    -0.199 OA
BRANCH  25  27
ATOM     27  O   UNL     1     -14.186 -41.990  27.077  0.00  0.00    -0.331 OA
BRANCH  27  28
ATOM     28  N   UNL     1     -14.808 -41.999  25.883  0.00  0.00    -0.111 NA
ATOM     29  C   UNL     1     -14.782 -43.086  24.965  0.00  0.00    +0.134 C 
ATOM     30  C   UNL     1     -13.927 -41.921  24.713  0.00  0.00    +0.134 C 
ENDBRANCH  27  28
ENDBRANCH  25  27
ENDBRANCH  24  25
ENDBRANCH  23  24
ENDBRANCH  16  23
ENDBRANCH   1  16
TORSDOF 13
