REMARK  Name = =
REMARK  2 active torsions:
REMARK  status: ('A' for Active; 'I' for Inactive)
REMARK    1  A    between atoms: C_1  and  C_7
REMARK    2  A    between atoms: C_3  and  O_10
REMARK                            x       y       z     vdW  Elec       q    Type
REMARK                         _______ _______ _______ _____ _____    ______ ____
ROOT
ATOM      1  C   UNL     1      52.428 154.592  27.890  0.00  0.00    +0.056 C 
ATOM      2  C   UNL     1      52.897 154.329  26.630  0.00  0.00    +0.041 C 
ATOM      3  C   UNL     1      53.309 155.314  25.764  0.00  0.00    +0.134 C 
ATOM      4  C   UNL     1      53.246 156.625  26.185  0.00  0.00    +0.037 C 
ATOM      5  C   UNL     1      52.775 156.911  27.453  0.00  0.00    +0.003 C 
ATOM      6  C   UNL     1      52.363 155.921  28.317  0.00  0.00    +0.005 C 
ENDROOT
BRANCH   1   7
ATOM      7  C   UNL     1      51.993 153.552  28.805  0.00  0.00    +0.243 C 
ATOM      8  O   UNL     1      51.662 153.810  29.982  0.00  0.00    -0.270 OA
ATOM      9  N   UNL     1      51.938 152.215  28.361  0.00  0.00    -0.325 N 
ATOM     10  H   UNL     1      52.195 151.992  27.437  0.00  0.00    +0.145 HD
ATOM     11  H   UNL     1      51.643 151.504  28.975  0.00  0.00    +0.145 HD
ENDBRANCH   1   7
BRANCH   3  12
ATOM     12  O   UNL     1      53.785 155.027  24.483  0.00  0.00    -0.506 OA
ATOM     13  H   UNL     1      54.058 155.723  23.918  0.00  0.00    +0.292 HD
ENDBRANCH   3  12
TORSDOF 2
