REMARK  Name = =
REMARK  6 active torsions:
REMARK  status: ('A' for Active; 'I' for Inactive)
REMARK    1  A    between atoms: N_1  and  C_4
REMARK    2  A    between atoms: N_1  and  N_15
REMARK    3  A    between atoms: C_7  and  C_10
REMARK    4  A    between atoms: C_10  and  O_12
REMARK    5  A    between atoms: C_13  and  C_16
REMARK    6  A    between atoms: C_18  and  O_22
REMARK                            x       y       z     vdW  Elec       q    Type
REMARK                         _______ _______ _______ _____ _____    ______ ____
ROOT
ATOM      1  N   UNL     1      54.106 153.610  26.056  0.00  0.00    -0.179 N 
ATOM      2  C   UNL     1      53.284 153.097  25.044  0.00  0.00    +0.324 C 
ATOM      3  O   UNL     1      52.208 153.683  24.772  0.00  0.00    -0.263 OA
ENDROOT
BRANCH   1   4
ATOM      4  C   UNL     1      55.312 152.953  26.374  0.00  0.00    +0.073 C 
ATOM      5  C   UNL     1      56.040 152.290  25.399  0.00  0.00    +0.017 C 
ATOM      6  C   UNL     1      57.230 151.639  25.695  0.00  0.00    +0.008 C 
ATOM      7  C   UNL     1      57.729 151.633  26.975  0.00  0.00    +0.076 C 
ATOM      8  C   UNL     1      57.018 152.286  27.949  0.00  0.00    +0.008 C 
ATOM      9  C   UNL     1      55.824 152.938  27.652  0.00  0.00    +0.017 C 
BRANCH   7  10
ATOM     10  C   UNL     1      58.981 150.955  27.306  0.00  0.00    +0.338 C 
ATOM     11  O   UNL     1      59.538 151.215  28.403  0.00  0.00    -0.245 OA
BRANCH  10  12
ATOM     12  O   UNL     1      59.521 150.038  26.396  0.00  0.00    -0.477 OA
ATOM     13  H   UNL     1      59.081 149.867  25.587  0.00  0.00    +0.295 HD
ENDBRANCH  10  12
ENDBRANCH   7  10
ENDBRANCH   1   4
BRANCH   1  16
ATOM     14  C   UNL     1      52.720 154.760  27.745  0.00  0.00    +0.262 C 
ATOM     15  O   UNL     1      52.224 153.611  27.992  0.00  0.00    -0.269 OA
ATOM     16  N   UNL     1      53.709 154.778  26.730  0.00  0.00    -0.223 N 
ATOM     17  H   UNL     1      54.131 155.635  26.490  0.00  0.00    +0.174 HD
BRANCH  14  18
ATOM     18  C   UNL     1      52.278 155.943  28.469  0.00  0.00    +0.058 C 
ATOM     19  C   UNL     1      50.997 155.941  29.015  0.00  0.00    +0.041 C 
ATOM     20  C   UNL     1      50.508 157.021  29.717  0.00  0.00    +0.134 C 
ATOM     21  C   UNL     1      51.271 158.156  29.914  0.00  0.00    +0.037 C 
ATOM     22  C   UNL     1      52.541 158.169  29.378  0.00  0.00    +0.003 C 
ATOM     23  C   UNL     1      53.028 157.073  28.667  0.00  0.00    +0.005 C 
BRANCH  20  24
ATOM     24  O   UNL     1      49.215 157.006  30.264  0.00  0.00    -0.506 OA
ATOM     25  H   UNL     1      48.667 156.254  30.152  0.00  0.00    +0.292 HD
ENDBRANCH  20  24
ENDBRANCH  14  18
ENDBRANCH   1  16
TORSDOF 6
