REMARK  Name = =
REMARK  2 active torsions:
REMARK  status: ('A' for Active; 'I' for Inactive)
REMARK    1  A    between atoms: C_1  and  O_12
REMARK    2  A    between atoms: O_12  and  N_14
REMARK                            x       y       z     vdW  Elec       q    Type
REMARK                         _______ _______ _______ _____ _____    ______ ____
ROOT
ATOM      1  C   UNL     1      -0.906  -5.324  29.587  0.00  0.00    +0.196 C 
ATOM      2  C   UNL     1      -1.128  -3.878  29.441  0.00  0.00    +0.047 C 
ATOM      3  C   UNL     1      -0.037  -3.219  28.728  0.00  0.00    +0.022 C 
ATOM      4  C   UNL     1       1.216  -3.306  29.519  0.00  0.00    +0.004 C 
ATOM      5  C   UNL     1       1.508  -4.786  29.757  0.00  0.00    +0.004 C 
ATOM      6  C   UNL     1       0.355  -5.472  30.458  0.00  0.00    +0.046 C 
ATOM      7  C   UNL     1      -0.307  -1.976  28.052  0.00  0.00    -0.044 C 
ATOM      8  C   UNL     1       0.652  -1.363  27.394  0.00  0.00    -0.009 C 
ATOM      9  C   UNL     1      -1.652  -1.363  28.078  0.00  0.00    +0.022 C 
ATOM     10  C   UNL     1      -2.534  -1.901  29.156  0.00  0.00    +0.004 C 
ATOM     11  C   UNL     1      -2.493  -3.385  29.314  0.00  0.00    +0.004 C 
ENDROOT
BRANCH   1  12
ATOM     12  O   UNL     1      -0.544  -5.941  28.341  0.00  0.00    -0.381 OA
BRANCH  12  14
ATOM     13  C   UNL     1      -1.193  -8.153  28.721  0.00  0.00    +0.164 C 
ATOM     14  N   UNL     1      -1.005  -7.146  27.944  0.00  0.00    -0.080 NA
ENDBRANCH  12  14
ENDBRANCH   1  12
TORSDOF 2
