MODEL 1
REMARK VINA RESULT:    -9.785      0.000      0.000
REMARK INTER + INTRA:         -15.902
REMARK INTER:                 -14.647
REMARK INTRA:                  -1.255
REMARK UNBOUND:                -1.255
REMARK  Name = =
REMARK  9 active torsions:
REMARK  status: ('A' for Active; 'I' for Inactive)
REMARK    1  A    between atoms: C_1  and  N_27
REMARK    2  A    between atoms: C_1  and  N_36
REMARK    3  A    between atoms: C_3  and  C_23
REMARK    4  A    between atoms: C_7  and  C_9
REMARK    5  A    between atoms: C_12  and  C_15
REMARK    6  A    between atoms: C_16  and  C_21
REMARK    7  A    between atoms: C_28  and  C_30
REMARK    8  A    between atoms: N_36  and  N_37
REMARK    9  A    between atoms: C_38  and  O_40
REMARK                            x       y       z     vdW  Elec       q    Type
REMARK                         _______ _______ _______ _____ _____    ______ ____
ROOT
ATOM      1  C   UNL     1       1.524  -5.057  29.684  0.00  0.00    +0.119 C 
ATOM      2  C   UNL     1       1.105  -6.516  29.864  0.00  0.00    +0.055 C 
ATOM      3  C   UNL     1      -0.137  -6.672  30.613  0.00  0.00    +0.079 C 
ATOM      4  N   UNL     1      -1.098  -5.589  30.681  0.00  0.00    -0.278 N 
ATOM      5  C   UNL     1      -0.749  -4.264  30.307  0.00  0.00    +0.097 C 
ATOM      6  C   UNL     1       0.329  -4.281  29.232  0.00  0.00    +0.056 C 
ATOM      7  C   UNL     1      -2.455  -5.925  31.058  0.00  0.00    +0.249 C 
ATOM      8  O   UNL     1      -2.654  -7.183  31.197  0.00  0.00    -0.270 OA
ENDROOT
BRANCH   7   9
ATOM      9  C   UNL     1      -3.530  -5.000  31.265  0.00  0.00    +0.054 C 
ATOM     10  C   UNL     1      -3.972  -4.826  32.601  0.00  0.00    +0.005 C 
ATOM     11  C   UNL     1      -5.007  -3.956  32.881  0.00  0.00    +0.000 C 
ATOM     12  C   UNL     1      -5.650  -3.234  31.931  0.00  0.00    -0.000 C 
ATOM     13  C   UNL     1      -5.212  -3.404  30.636  0.00  0.00    +0.000 C 
ATOM     14  C   UNL     1      -4.166  -4.270  30.292  0.00  0.00    +0.005 C 
BRANCH  12  15
ATOM     15  C   UNL     1      -6.772  -2.323  32.123  0.00  0.00    -0.003 C 
ATOM     16  C   UNL     1      -6.679  -0.961  31.972  0.00  0.00    -0.003 C 
ATOM     17  C   UNL     1      -7.834  -0.172  32.162  0.00  0.00    -0.003 C 
ATOM     18  C   UNL     1      -9.044  -0.703  32.485  0.00  0.00    -0.000 C 
ATOM     19  C   UNL     1      -9.107  -2.095  32.631  0.00  0.00    -0.000 C 
ATOM     20  C   UNL     1      -8.009  -2.872  32.457  0.00  0.00    -0.000 C 
BRANCH  16  21
ATOM     21  C   UNL     1      -5.549  -0.366  31.541  0.00  0.00    +0.136 C 
ATOM     22  N   UNL     1      -4.492   0.172  31.128  0.00  0.00    -0.126 NA
ENDBRANCH  16  21
ENDBRANCH  12  15
ENDBRANCH   7   9
BRANCH   3  23
ATOM     23  C   UNL     1      -0.010  -7.300  31.965  0.00  0.00    +0.018 C 
ATOM     24  C   UNL     1       1.397  -7.803  32.336  0.00  0.00    +0.002 C 
ATOM     25  C   UNL     1       0.957  -7.545  33.789  0.00  0.00    +0.000 C 
ATOM     26  C   UNL     1       0.083  -6.429  33.179  0.00  0.00    +0.002 C 
ENDBRANCH   3  23
BRANCH   1  27
ATOM     27  N   UNL     1       2.600  -4.919  28.751  0.00  0.00    -0.291 N 
ATOM     28  C   UNL     1       3.074  -3.630  28.341  0.00  0.00    +0.248 C 
ATOM     29  O   UNL     1       2.512  -2.618  28.781  0.00  0.00    -0.270 OA
ATOM     30  H   UNL     1       3.024  -5.726  28.382  0.00  0.00    +0.151 HD
BRANCH  28  31
ATOM     31  C   UNL     1       4.185  -3.432  27.435  0.00  0.00    +0.073 C 
ATOM     32  C   UNL     1       5.150  -4.337  27.152  0.00  0.00    +0.103 C 
ATOM     33  N   UNL     1       6.144  -4.040  26.242  0.00  0.00    -0.242 NA
ATOM     34  C   UNL     1       6.189  -2.872  25.625  0.00  0.00    +0.099 C 
ATOM     35  C   UNL     1       5.233  -1.911  25.877  0.00  0.00    +0.021 C 
ATOM     36  C   UNL     1       4.244  -2.185  26.773  0.00  0.00    +0.008 C 
ENDBRANCH  28  31
ENDBRANCH   1  27
BRANCH   1  37
ATOM     37  N   UNL     1       1.944  -4.538  30.961  0.00  0.00    -0.214 NA
ATOM     38  H   UNL     1       1.134  -4.606  31.578  0.00  0.00    +0.147 HD
BRANCH  37  39
ATOM     39  N   UNL     1       2.962  -5.063  31.625  0.00  0.00    -0.214 N 
ATOM     40  C   UNL     1       3.336  -4.784  32.993  0.00  0.00    +0.412 C 
ATOM     41  O   UNL     1       2.637  -3.956  33.583  0.00  0.00    -0.225 OA
ATOM     42  H   UNL     1       3.522  -5.708  31.137  0.00  0.00    +0.172 HD
BRANCH  40  43
ATOM     43  O   UNL     1       4.438  -5.444  33.563  0.00  0.00    -0.465 OA
ATOM     44  H   UNL     1       4.336  -5.918  34.365  0.00  0.00    +0.297 HD
ENDBRANCH  40  43
ENDBRANCH  37  39
ENDBRANCH   1  37
TORSDOF 9
ENDMDL
