REMARK  Name = =
REMARK  0 active torsions:
REMARK  status: ('A' for Active; 'I' for Inactive)
REMARK                            x       y       z     vdW  Elec       q    Type
REMARK                         _______ _______ _______ _____ _____    ______ ____
ROOT
ATOM      1  O   UNL     1      52.963 155.509  28.282  0.00  0.00    -0.448 OA
ATOM      2  C   UNL     1      52.802 156.624  27.430  0.00  0.00    +0.209 C 
ATOM      3  C   UNL     1      53.207 156.018  26.083  0.00  0.00    +0.059 C 
ATOM      4  C   UNL     1      52.410 154.719  26.179  0.00  0.00    +0.113 C 
ATOM      5  C   UNL     1      52.729 154.322  27.582  0.00  0.00    +0.317 C 
ATOM      6  O   UNL     1      52.759 153.144  27.966  0.00  0.00    -0.250 OA
ENDROOT
TORSDOF 0
