REMARK  Name = =
REMARK  3 active torsions:
REMARK  status: ('A' for Active; 'I' for Inactive)
REMARK    1  A    between atoms: C_1  and  C_10
REMARK    2  A    between atoms: C_3  and  N_13
REMARK    3  A    between atoms: N_13  and  S_14
REMARK                            x       y       z     vdW  Elec       q    Type
REMARK                         _______ _______ _______ _____ _____    ______ ____
ROOT
ATOM      1  C   UNL     1      53.851 153.193  26.796  0.00  0.00    -0.011 C 
ATOM      2  C   UNL     1      53.822 154.295  25.984  0.00  0.00    +0.012 C 
ATOM      3  C   UNL     1      54.307 154.288  24.687  0.00  0.00    +0.064 C 
ATOM      4  C   UNL     1      54.836 153.093  24.236  0.00  0.00    +0.016 C 
ATOM      5  C   UNL     1      54.881 151.970  25.022  0.00  0.00    +0.001 C 
ATOM      6  C   UNL     1      54.394 152.014  26.292  0.00  0.00    -0.004 C 
ENDROOT
BRANCH   1  10
ATOM      7  O   UNL     1      51.243 154.081  28.399  0.00  0.00    -0.448 OA
ATOM      8  C   UNL     1      51.013 152.758  28.054  0.00  0.00    +0.209 C 
ATOM      9  C   UNL     1      52.307 152.050  28.317  0.00  0.00    +0.063 C 
ATOM     10  C   UNL     1      53.336 153.144  28.186  0.00  0.00    +0.125 C 
ATOM     11  C   UNL     1      52.586 154.358  28.567  0.00  0.00    +0.321 C 
ATOM     12  O   UNL     1      53.096 155.432  28.968  0.00  0.00    -0.250 OA
ENDBRANCH   1  10
BRANCH   3  13
ATOM     13  N   UNL     1      54.265 155.448  23.858  0.00  0.00    -0.222 N 
ATOM     14  H   UNL     1      53.909 155.349  22.946  0.00  0.00    +0.173 HD
BRANCH  13  15
ATOM     15  S   UNL     1      54.790 156.990  24.342  0.00  0.00    +0.033 S 
ATOM     16  O   UNL     1      54.339 157.323  25.722  0.00  0.00    -0.158 OA
ATOM     17  O   UNL     1      54.366 158.053  23.346  0.00  0.00    -0.158 OA
ATOM     18  H   UNL     1      56.150 156.964  24.365  0.00  0.00    +0.233 HD
ENDBRANCH  13  15
ENDBRANCH   3  13
TORSDOF 3
