REMARK  Name = =
REMARK  5 active torsions:
REMARK  status: ('A' for Active; 'I' for Inactive)
REMARK    1  A    between atoms: C_1  and  C_10
REMARK    2  A    between atoms: C_3  and  N_20
REMARK    3  A    between atoms: C_5  and  C_13
REMARK    4  A    between atoms: C_16  and  N_19
REMARK    5  A    between atoms: N_20  and  S_21
REMARK                            x       y       z     vdW  Elec       q    Type
REMARK                         _______ _______ _______ _____ _____    ______ ____
ROOT
ATOM      1  C   UNL     1      53.015 153.877  25.966  0.00  0.00    -0.011 C 
ATOM      2  C   UNL     1      51.809 154.399  26.359  0.00  0.00    +0.012 C 
ATOM      3  C   UNL     1      51.430 154.504  27.681  0.00  0.00    +0.064 C 
ATOM      4  C   UNL     1      52.314 154.060  28.631  0.00  0.00    +0.016 C 
ATOM      5  C   UNL     1      53.546 153.525  28.263  0.00  0.00    +0.001 C 
ATOM      6  C   UNL     1      53.892 153.435  26.923  0.00  0.00    -0.004 C 
ENDROOT
BRANCH   1  10
ATOM      7  O   UNL     1      54.958 154.145  22.967  0.00  0.00    -0.448 OA
ATOM      8  C   UNL     1      54.487 152.823  22.780  0.00  0.00    +0.209 C 
ATOM      9  C   UNL     1      53.948 152.440  24.160  0.00  0.00    +0.063 C 
ATOM     10  C   UNL     1      53.348 153.797  24.556  0.00  0.00    +0.125 C 
ATOM     11  C   UNL     1      54.457 154.685  24.145  0.00  0.00    +0.321 C 
ATOM     12  O   UNL     1      54.910 155.728  24.695  0.00  0.00    -0.250 OA
ENDBRANCH   1  10
BRANCH   5  13
ATOM     13  C   UNL     1      54.484 153.052  29.277  0.00  0.00    +0.000 C 
ATOM     14  C   UNL     1      54.191 151.930  30.024  0.00  0.00    +0.001 C 
ATOM     15  C   UNL     1      55.053 151.456  30.989  0.00  0.00    +0.014 C 
ATOM     16  C   UNL     1      56.246 152.094  31.239  0.00  0.00    +0.042 C 
ATOM     17  C   UNL     1      56.570 153.228  30.502  0.00  0.00    +0.014 C 
ATOM     18  C   UNL     1      55.680 153.679  29.539  0.00  0.00    +0.001 C 
BRANCH  16  19
ATOM     19  N   UNL     1      57.120 151.588  32.238  0.00  0.00    -0.357 N 
ATOM     20  H   UNL     1      56.871 150.784  32.748  0.00  0.00    +0.142 HD
ATOM     21  H   UNL     1      57.975 152.042  32.420  0.00  0.00    +0.142 HD
ENDBRANCH  16  19
ENDBRANCH   5  13
BRANCH   3  22
ATOM     22  N   UNL     1      50.182 155.045  28.092  0.00  0.00    -0.222 N 
ATOM     23  H   UNL     1      49.458 155.077  27.426  0.00  0.00    +0.173 HD
BRANCH  22  24
ATOM     24  S   UNL     1      49.845 155.645  29.658  0.00  0.00    +0.033 S 
ATOM     25  O   UNL     1      49.537 157.127  29.573  0.00  0.00    -0.158 OA
ATOM     26  O   UNL     1      50.958 155.421  30.632  0.00  0.00    -0.158 OA
ATOM     27  H   UNL     1      48.772 154.951  30.124  0.00  0.00    +0.233 HD
ENDBRANCH  22  24
ENDBRANCH   3  22
TORSDOF 5
