REMARK  Name = =
REMARK  0 active torsions:
REMARK  status: ('A' for Active; 'I' for Inactive)
REMARK                            x       y       z     vdW  Elec       q    Type
REMARK                         _______ _______ _______ _____ _____    ______ ____
ROOT
ATOM      1 CL   UNL     1      51.231 155.419  29.724  0.00  0.00    -0.081 Cl
ATOM      2  C   UNL     1      52.198 156.073  28.438  0.00  0.00    +0.068 C 
ATOM      3  C   UNL     1      52.392 155.374  27.350  0.00  0.00    +0.013 C 
ENDROOT
TORSDOF 0
