MODEL 1
REMARK VINA RESULT:    -6.409      0.000      0.000
REMARK INTER + INTRA:         -11.737
REMARK INTER:                 -10.156
REMARK INTRA:                  -1.581
REMARK UNBOUND:                -1.581
REMARK  Name = =
REMARK  10 active torsions:
REMARK  status: ('A' for Active; 'I' for Inactive)
REMARK    1  A    between atoms: O_1  and  C_2
REMARK    2  A    between atoms: O_1  and  N_21
REMARK    3  A    between atoms: C_2  and  O_4
REMARK    4  A    between atoms: O_4  and  S_5
REMARK    5  A    between atoms: S_5  and  C_6
REMARK    6  A    between atoms: N_7  and  C_11
REMARK    7  A    between atoms: N_21  and  C_22
REMARK    8  A    between atoms: N_21  and  S_28
REMARK    9  A    between atoms: S_28  and  N_31
REMARK   10  A    between atoms: N_31  and  N_32
REMARK                            x       y       z     vdW  Elec       q    Type
REMARK                         _______ _______ _______ _____ _____    ______ ____
ROOT
ATOM      1  O   UNL     1      58.264 160.736  40.029  0.00  0.00    -0.309 OA
ENDROOT
BRANCH   1   2
ATOM      2  C   UNL     1      58.641 160.473  38.720  0.00  0.00    +0.544 C 
ATOM      3  O   UNL     1      57.956 159.657  38.068  0.00  0.00    -0.200 OA
BRANCH   2   4
ATOM      4  O   UNL     1      59.731 161.062  38.103  0.00  0.00    -0.350 OA
BRANCH   4   5
ATOM      5  S   UNL     1      59.548 162.466  37.063  0.00  0.00    +0.143 S 
BRANCH   5   6
ATOM      6  C   UNL     1      59.620 163.903  38.110  0.00  0.00    +0.254 A 
ATOM      7  N   UNL     1      60.018 165.137  37.759  0.00  0.00    -0.166 N 
ATOM      8  N   UNL     1      59.907 165.876  38.848  0.00  0.00    -0.037 NA
ATOM      9  N   UNL     1      59.460 165.138  39.828  0.00  0.00    -0.022 NA
ATOM     10  N   UNL     1      59.268 163.895  39.405  0.00  0.00    -0.098 NA
BRANCH   7  11
ATOM     11  C   UNL     1      60.461 165.517  36.467  0.00  0.00    +0.168 C 
ATOM     12  C   UNL     1      61.795 165.465  36.119  0.00  0.00    +0.039 C 
ATOM     13  C   UNL     1      62.273 165.823  34.880  0.00  0.00    +0.024 C 
ATOM     14  C   UNL     1      61.352 166.261  33.933  0.00  0.00    +0.022 C 
ATOM     15  C   UNL     1      60.020 166.310  34.285  0.00  0.00    +0.101 C 
ATOM     16  N   UNL     1      59.599 165.950  35.508  0.00  0.00    -0.225 NA
ATOM     17  C   UNL     1      63.611 165.769  34.539  0.00  0.00    +0.099 C 
ATOM     18  N   UNL     1      64.463 165.344  35.476  0.00  0.00    -0.242 NA
ATOM     19  C   UNL     1      64.037 164.984  36.701  0.00  0.00    +0.099 C 
ATOM     20  C   UNL     1      62.714 165.033  37.050  0.00  0.00    +0.024 C 
ENDBRANCH   7  11
ENDBRANCH   5   6
ENDBRANCH   4   5
ENDBRANCH   2   4
ENDBRANCH   1   2
BRANCH   1  21
ATOM     21  N   UNL     1      57.875 159.756  40.910  0.00  0.00    +0.039 NA
BRANCH  21  22
ATOM     22  C   UNL     1      56.973 160.311  41.869  0.00  0.00    +0.245 C 
ATOM     23  S   UNL     1      55.296 160.542  41.152  0.00  0.00    -0.089 S 
ATOM     24  C   UNL     1      55.053 162.295  41.643  0.00  0.00    +0.151 C 
ATOM     25  N   UNL     1      56.142 162.455  42.586  0.00  0.00    -0.293 N 
ATOM     26  C   UNL     1      57.285 161.715  42.241  0.00  0.00    +0.253 C 
ATOM     27  O   UNL     1      58.454 162.175  42.242  0.00  0.00    -0.272 OA
ATOM     28  H   UNL     1      56.086 163.025  43.388  0.00  0.00    +0.150 HD
ENDBRANCH  21  22
BRANCH  21  29
ATOM     29  S   UNL     1      59.281 159.063  41.592  0.00  0.00    +0.143 S 
ATOM     30  O   UNL     1      59.836 157.972  40.688  0.00  0.00    -0.137 OA
ATOM     31  O   UNL     1      58.893 158.407  42.901  0.00  0.00    -0.137 OA
BRANCH  29  32
ATOM     32  N   UNL     1      60.508 160.211  41.932  0.00  0.00    -0.108 NA
ATOM     33  H   UNL     1      61.002 159.919  42.775  0.00  0.00    +0.169 HD
BRANCH  32  34
ATOM     34  N   UNL     1      61.428 160.338  40.900  0.00  0.00    -0.202 NA
ATOM     35  C   UNL     1      62.728 159.757  41.263  0.00  0.00    +0.090 C 
ATOM     36  C   UNL     1      63.566 160.159  40.069  0.00  0.00    +0.020 C 
ATOM     37  C   UNL     1      63.011 161.506  39.715  0.00  0.00    +0.020 C 
ATOM     38  C   UNL     1      61.812 161.714  40.649  0.00  0.00    +0.090 C 
ENDBRANCH  32  34
ENDBRANCH  29  32
ENDBRANCH  21  29
ENDBRANCH   1  21
TORSDOF 10
ENDMDL
