MODEL 1
REMARK VINA RESULT:    -8.559      0.000      0.000
REMARK INTER + INTRA:         -16.395
REMARK INTER:                 -14.563
REMARK INTRA:                  -1.832
REMARK UNBOUND:                -1.832
REMARK  Name = =
REMARK  13 active torsions:
REMARK  status: ('A' for Active; 'I' for Inactive)
REMARK    1  A    between atoms: N_1  and  C_18
REMARK    2  A    between atoms: C_6  and  O_29
REMARK    3  A    between atoms: C_16  and  N_22
REMARK    4  A    between atoms: C_20  and  C_24
REMARK    5  A    between atoms: C_24  and  C_26
REMARK    6  A    between atoms: C_26  and  O_28
REMARK    7  A    between atoms: O_29  and  O_30
REMARK    8  A    between atoms: O_30  and  P_31
REMARK    9  A    between atoms: P_31  and  N_33
REMARK   10  A    between atoms: P_31  and  N_34
REMARK   11  A    between atoms: N_34  and  S_35
REMARK   12  A    between atoms: S_35  and  S_36
REMARK   13  A    between atoms: S_35  and  C_38
REMARK                            x       y       z     vdW  Elec       q    Type
REMARK                         _______ _______ _______ _____ _____    ______ ____
ROOT
ATOM      1  N   UNL     1       1.236  -2.115  26.704  0.00  0.00    -0.254 N 
ATOM      2  C   UNL     1       0.512  -3.096  27.314  0.00  0.00    +0.162 A 
ATOM      3  N   UNL     1       0.363  -4.407  27.047  0.00  0.00    -0.197 NA
ATOM      4  C   UNL     1      -0.410  -5.209  27.791  0.00  0.00    +0.218 A 
ATOM      5  N   UNL     1      -1.053  -4.668  28.839  0.00  0.00    -0.175 NA
ATOM      6  C   UNL     1      -0.962  -3.374  29.177  0.00  0.00    +0.289 A 
ATOM      7  C   UNL     1      -0.152  -2.552  28.391  0.00  0.00    +0.171 A 
ATOM      8  N   UNL     1       0.172  -1.255  28.425  0.00  0.00    -0.220 NA
ATOM      9  C   UNL     1       1.023  -0.987  27.392  0.00  0.00    +0.169 C 
ATOM     10  N   UNL     1      -0.555  -6.611  27.487  0.00  0.00    -0.327 N 
ATOM     11  H   UNL     1      -0.081  -6.999  26.716  0.00  0.00    +0.145 HD
ATOM     12  H   UNL     1      -1.129  -7.180  28.049  0.00  0.00    +0.145 HD
ENDROOT
BRANCH   1  20
ATOM     13  N   UNL     1       4.371  -2.521  25.191  0.00  0.00    -0.273 N 
ATOM     14  C   UNL     1       3.824  -1.601  24.228  0.00  0.00    +0.084 C 
ATOM     15  C   UNL     1       3.876  -1.977  22.818  0.00  0.00    +0.046 C 
ATOM     16  C   UNL     1       2.557  -2.504  22.341  0.00  0.00    -0.027 C 
ATOM     17  C   UNL     1       1.366  -1.702  22.722  0.00  0.00    -0.003 C 
ATOM     18  C   UNL     1       1.589  -0.659  23.767  0.00  0.00    +0.172 C 
ATOM     19  C   UNL     1       2.522  -1.206  24.819  0.00  0.00    +0.069 C 
ATOM     20  C   UNL     1       2.044  -2.390  25.538  0.00  0.00    +0.104 C 
ATOM     21  C   UNL     1       3.279  -3.176  25.885  0.00  0.00    +0.114 C 
ATOM     22  C   UNL     1       5.744  -2.777  25.462  0.00  0.00    +0.295 C 
ATOM     23  O   UNL     1       6.078  -3.619  26.335  0.00  0.00    -0.266 OA
BRANCH  18  24
ATOM     24  N   UNL     1       2.309   0.426  23.117  0.00  0.00    -0.054 NA
ATOM     25  O   UNL     1       1.807   0.892  22.134  0.00  0.00    -0.148 OA
ENDBRANCH  18  24
BRANCH  22  26
ATOM     26  C   UNL     1       6.811  -2.090  24.753  0.00  0.00    +0.323 C 
ATOM     27  O   UNL     1       7.315  -2.658  23.753  0.00  0.00    -0.275 OA
BRANCH  26  28
ATOM     28  C   UNL     1       7.304  -0.791  25.157  0.00  0.00    +0.382 C 
ATOM     29  O   UNL     1       8.121  -0.720  26.101  0.00  0.00    -0.241 OA
BRANCH  28  30
ATOM     30  O   UNL     1       6.904   0.379  24.536  0.00  0.00    -0.475 OA
ATOM     31  H   UNL     1       7.532   0.911  24.088  0.00  0.00    +0.296 HD
ENDBRANCH  28  30
ENDBRANCH  26  28
ENDBRANCH  22  26
ENDBRANCH   1  20
BRANCH   6  32
ATOM     32  O   UNL     1      -1.594  -2.774  30.232  0.00  0.00    -0.304 OA
BRANCH  32  33
ATOM     33  O   UNL     1      -2.763  -2.159  30.222  0.00  0.00    -0.094 OA
BRANCH  33  34
ATOM     34  P   UNL     1      -3.996  -3.187  30.800  0.00  0.00    +0.387 P 
ATOM     35  O   UNL     1      -5.237  -2.412  31.160  0.00  0.00    -0.251 OA
BRANCH  34  36
ATOM     36  N   UNL     1      -4.365  -4.312  29.517  0.00  0.00    -0.244 NA
ATOM     37  H   UNL     1      -3.500  -4.612  29.069  0.00  0.00    +0.129 HD
ATOM     38  H   UNL     1      -4.966  -3.858  28.830  0.00  0.00    +0.129 HD
ENDBRANCH  34  36
BRANCH  34  39
ATOM     39  N   UNL     1      -3.411  -4.118  32.161  0.00  0.00    -0.180 NA
ATOM     40  H   UNL     1      -4.007  -3.947  32.971  0.00  0.00    +0.146 HD
BRANCH  39  41
ATOM     41  S   UNL     1      -3.445  -5.754  31.775  0.00  0.00    -0.072 S 
ATOM     42  H   UNL     1      -3.998  -5.895  30.540  0.00  0.00    +0.116 HD
BRANCH  41  43
ATOM     43  S   UNL     1      -2.005  -6.588  31.809  0.00  0.00    +0.178 S 
ATOM     44  O   UNL     1      -1.198  -6.950  32.717  0.00  0.00    -0.231 OA
ENDBRANCH  41  43
BRANCH  41  45
ATOM     45  C   UNL     1      -4.167  -6.391  33.348  0.00  0.00    +0.036 C 
ATOM     46  C   UNL     1      -4.545  -7.634  33.316  0.00  0.00    +0.007 C 
ENDBRANCH  41  45
ENDBRANCH  39  41
ENDBRANCH  34  39
ENDBRANCH  33  34
ENDBRANCH  32  33
ENDBRANCH   6  32
TORSDOF 13
ENDMDL
