MODEL 1
REMARK VINA RESULT:    -7.617      0.000      0.000
REMARK INTER + INTRA:         -11.794
REMARK INTER:                 -10.511
REMARK INTRA:                  -1.283
REMARK UNBOUND:                -1.283
REMARK  Name = =
REMARK  8 active torsions:
REMARK  status: ('A' for Active; 'I' for Inactive)
REMARK    1  A    between atoms: C_2  and  C_22
REMARK    2  A    between atoms: C_3  and  O_28
REMARK    3  A    between atoms: C_4  and  C_20
REMARK    4  A    between atoms: C_22  and  P_24
REMARK    5  A    between atoms: N_23  and  O_27
REMARK    6  A    between atoms: P_24  and  O_26
REMARK    7  A    between atoms: O_28  and  S_29
REMARK    8  A    between atoms: S_29  and  N_32
REMARK                            x       y       z     vdW  Elec       q    Type
REMARK                         _______ _______ _______ _____ _____    ______ ____
ROOT
ATOM      1  N   UNL     1      -1.596  -6.715  31.735  0.00  0.00    -0.248 NA
ATOM      2  C   UNL     1      -1.237  -6.610  30.440  0.00  0.00    +0.160 C 
ATOM      3  C   UNL     1      -0.053  -5.776  30.876  0.00  0.00    +0.195 C 
ATOM      4  C   UNL     1      -0.317  -6.414  32.229  0.00  0.00    +0.157 C 
ATOM      5  S   UNL     1      -2.416  -5.593  29.379  0.00  0.00    -0.102 S 
ATOM      6  C   UNL     1      -3.889  -5.671  30.477  0.00  0.00    +0.125 C 
ATOM      7  N   UNL     1      -3.877  -4.316  30.864  0.00  0.00    -0.158 NA
ATOM      8  S   UNL     1      -4.084  -3.565  32.474  0.00  0.00    +0.113 S 
ATOM      9  O   UNL     1      -5.562  -3.333  32.534  0.00  0.00    -0.138 OA
ATOM     10  O   UNL     1      -3.273  -2.366  32.633  0.00  0.00    -0.138 OA
ATOM     11  N   UNL     1      -3.736  -4.816  33.666  0.00  0.00    -0.174 N 
ATOM     12  C   UNL     1      -2.996  -6.028  33.508  0.00  0.00    +0.254 C 
ATOM     13  C   UNL     1      -2.664  -7.062  32.460  0.00  0.00    +0.117 C 
ATOM     14  C   UNL     1      -2.343  -8.309  33.337  0.00  0.00    +0.024 C 
ATOM     15  C   UNL     1      -3.713  -8.506  33.995  0.00  0.00    +0.002 C 
ATOM     16  C   UNL     1      -4.731  -7.881  33.037  0.00  0.00    +0.002 C 
ATOM     17  C   UNL     1      -3.882  -7.661  31.816  0.00  0.00    +0.024 C 
ATOM     18  O   UNL     1      -2.460  -6.269  34.653  0.00  0.00    -0.272 OA
ATOM     19  C   UNL     1      -4.520  -6.774  30.780  0.00  0.00    +0.030 C 
ATOM     20  H   UNL     1      -4.612  -3.891  30.298  0.00  0.00    +0.151 HD
ATOM     21  H   UNL     1      -4.102  -4.658  34.565  0.00  0.00    +0.178 HD
ENDROOT
BRANCH   4  22
ATOM     22  C   UNL     1       0.589  -7.511  32.590  0.00  0.00    +0.226 C 
ATOM     23  O   UNL     1       1.194  -7.424  33.658  0.00  0.00    -0.287 OA
ENDBRANCH   4  22
BRANCH   2  24
ATOM     24  C   UNL     1      -0.798  -7.722  29.608  0.00  0.00    +0.172 C 
ATOM     25  N   UNL     1      -0.988  -8.963  29.854  0.00  0.00    -0.084 NA
BRANCH  24  26
ATOM     26  P   UNL     1       0.087  -7.321  28.099  0.00  0.00    +0.239 P 
ATOM     27  O   UNL     1      -0.540  -7.936  26.893  0.00  0.00    -0.288 OA
ATOM     28  H   UNL     1       1.058  -8.009  28.798  0.00  0.00    +0.134 HD
BRANCH  26  29
ATOM     29  O   UNL     1       1.665  -7.949  28.253  0.00  0.00    -0.342 OA
ATOM     30  H   UNL     1       2.281  -7.228  28.461  0.00  0.00    +0.218 HD
ENDBRANCH  26  29
ENDBRANCH  24  26
BRANCH  25  31
ATOM     31  O   UNL     1      -0.565  -9.967  29.060  0.00  0.00    -0.409 OA
ATOM     32  H   UNL     1       0.226 -10.425  29.266  0.00  0.00    +0.328 HD
ENDBRANCH  25  31
ENDBRANCH   2  24
BRANCH   3  33
ATOM     33  O   UNL     1       1.192  -6.183  30.429  0.00  0.00    -0.225 OA
BRANCH  33  34
ATOM     34  S   UNL     1       2.360  -5.013  30.678  0.00  0.00    +0.065 S 
ATOM     35  O   UNL     1       3.062  -5.139  31.989  0.00  0.00    -0.052 OA
ATOM     36  O   UNL     1       1.668  -3.675  30.647  0.00  0.00    -0.052 OA
BRANCH  34  37
ATOM     37  N   UNL     1       3.533  -5.005  29.408  0.00  0.00    -0.178 N 
ATOM     38  C   UNL     1       3.123  -4.594  28.113  0.00  0.00    +0.319 C 
ATOM     39  O   UNL     1       1.934  -4.233  27.846  0.00  0.00    -0.264 OA
ATOM     40  H   UNL     1       4.463  -5.279  29.579  0.00  0.00    +0.177 HD
ENDBRANCH  34  37
ENDBRANCH  33  34
ENDBRANCH   3  33
TORSDOF 8
ENDMDL
