REMARK  Name = =
REMARK  8 active torsions:
REMARK  status: ('A' for Active; 'I' for Inactive)
REMARK    1  A    between atoms: C_2  and  C_22
REMARK    2  A    between atoms: C_3  and  O_28
REMARK    3  A    between atoms: C_4  and  C_20
REMARK    4  A    between atoms: C_22  and  P_24
REMARK    5  A    between atoms: N_23  and  O_27
REMARK    6  A    between atoms: P_24  and  O_26
REMARK    7  A    between atoms: O_28  and  S_29
REMARK    8  A    between atoms: S_29  and  N_32
REMARK                            x       y       z     vdW  Elec       q    Type
REMARK                         _______ _______ _______ _____ _____    ______ ____
ROOT
ATOM      1  N   UNL     1       1.641  -6.809  27.768  0.00  0.00    -0.248 NA
ATOM      2  C   UNL     1       2.003  -6.063  28.831  0.00  0.00    +0.160 C 
ATOM      3  C   UNL     1       1.188  -4.924  28.260  0.00  0.00    +0.195 C 
ATOM      4  C   UNL     1       0.514  -6.029  27.464  0.00  0.00    +0.157 C 
ATOM      5  S   UNL     1       3.832  -5.612  28.887  0.00  0.00    -0.102 S 
ATOM      6  C   UNL     1       4.455  -6.908  27.741  0.00  0.00    +0.125 C 
ATOM      7  N   UNL     1       4.796  -6.041  26.683  0.00  0.00    -0.158 NA
ATOM      8  S   UNL     1       4.501  -6.182  24.925  0.00  0.00    +0.113 S 
ATOM      9  O   UNL     1       5.735  -6.882  24.446  0.00  0.00    -0.138 OA
ATOM     10  O   UNL     1       4.254  -4.890  24.300  0.00  0.00    -0.138 OA
ATOM     11  N   UNL     1       3.178  -7.329  24.722  0.00  0.00    -0.174 N 
ATOM     12  C   UNL     1       2.191  -7.740  25.669  0.00  0.00    +0.254 C 
ATOM     13  C   UNL     1       2.013  -7.937  27.155  0.00  0.00    +0.117 C 
ATOM     14  C   UNL     1       0.860  -8.984  27.199  0.00  0.00    +0.024 C 
ATOM     15  C   UNL     1       1.561 -10.151  26.496  0.00  0.00    +0.002 C 
ATOM     16  C   UNL     1       3.061  -9.934  26.718  0.00  0.00    +0.002 C 
ATOM     17  C   UNL     1       3.044  -8.848  27.757  0.00  0.00    +0.024 C 
ATOM     18  O   UNL     1       1.137  -8.019  24.986  0.00  0.00    -0.272 OA
ATOM     19  C   UNL     1       4.382  -8.191  27.975  0.00  0.00    +0.030 C 
ATOM     20  H   UNL     1       5.809  -5.949  26.756  0.00  0.00    +0.151 HD
ATOM     21  H   UNL     1       3.110  -7.744  23.832  0.00  0.00    +0.178 HD
ENDROOT
BRANCH   4  22
ATOM     22  C   UNL     1      -0.802  -6.445  27.963  0.00  0.00    +0.226 C 
ATOM     23  O   UNL     1      -1.758  -5.704  27.736  0.00  0.00    -0.287 OA
ENDBRANCH   4  22
BRANCH   2  24
ATOM     24  C   UNL     1       1.609  -6.332  30.207  0.00  0.00    +0.172 C 
ATOM     25  N   UNL     1       0.942  -7.347  30.610  0.00  0.00    -0.084 NA
BRANCH  24  26
ATOM     26  P   UNL     1       2.102  -5.139  31.453  0.00  0.00    +0.239 P 
ATOM     27  O   UNL     1       2.575  -3.857  30.856  0.00  0.00    -0.288 OA
ATOM     28  H   UNL     1       2.999  -6.159  31.697  0.00  0.00    +0.134 HD
BRANCH  26  29
ATOM     29  O   UNL     1       3.395  -5.824  32.329  0.00  0.00    -0.342 OA
ATOM     30  H   UNL     1       3.674  -5.210  33.027  0.00  0.00    +0.218 HD
ENDBRANCH  26  29
ENDBRANCH  24  26
BRANCH  25  31
ATOM     31  O   UNL     1       0.593  -7.563  31.894  0.00  0.00    -0.409 OA
ATOM     32  H   UNL     1       0.103  -8.328  32.124  0.00  0.00    +0.328 HD
ENDBRANCH  25  31
ENDBRANCH   2  24
BRANCH   3  33
ATOM     33  O   UNL     1       0.251  -4.349  29.101  0.00  0.00    -0.225 OA
BRANCH  33  34
ATOM     34  S   UNL     1       0.070  -2.712  28.810  0.00  0.00    +0.065 S 
ATOM     35  O   UNL     1       1.288  -1.910  29.129  0.00  0.00    -0.052 OA
ATOM     36  O   UNL     1      -1.053  -2.223  29.686  0.00  0.00    -0.052 OA
BRANCH  34  37
ATOM     37  N   UNL     1      -0.395  -2.405  27.173  0.00  0.00    -0.178 N 
ATOM     38  C   UNL     1      -1.727  -1.988  26.917  0.00  0.00    +0.319 C 
ATOM     39  O   UNL     1      -2.592  -1.832  27.836  0.00  0.00    -0.264 OA
ATOM     40  H   UNL     1       0.249  -2.517  26.437  0.00  0.00    +0.177 HD
ENDBRANCH  34  37
ENDBRANCH  33  34
ENDBRANCH   3  33
TORSDOF 8
