MODEL 1
REMARK VINA RESULT:    -9.054      0.000      0.000
REMARK INTER + INTRA:         -14.078
REMARK INTER:                 -13.288
REMARK INTRA:                  -0.790
REMARK UNBOUND:                -0.790
REMARK  Name = =
REMARK  9 active torsions:
REMARK  status: ('A' for Active; 'I' for Inactive)
REMARK    1  A    between atoms: C_1  and  N_20
REMARK    2  A    between atoms: C_2  and  C_37
REMARK    3  A    between atoms: C_4  and  C_17
REMARK    4  A    between atoms: C_6  and  C_7
REMARK    5  A    between atoms: C_11  and  C_14
REMARK    6  A    between atoms: C_14  and  O_16
REMARK    7  A    between atoms: N_20  and  C_21
REMARK    8  A    between atoms: C_29  and  C_30
REMARK    9  A    between atoms: C_37  and  N_38
REMARK                            x       y       z     vdW  Elec       q    Type
REMARK                         _______ _______ _______ _____ _____    ______ ____
ROOT
ATOM      1  C   UNL     1      -1.057  -5.394  30.240  0.00  0.00    +0.042 C 
ATOM      2  C   UNL     1      -2.200  -4.668  30.171  0.00  0.00    +0.007 C 
ATOM      3  C   UNL     1      -3.210  -4.914  31.074  0.00  0.00    +0.003 C 
ATOM      4  C   UNL     1      -3.062  -5.890  32.043  0.00  0.00    +0.053 C 
ATOM      5  C   UNL     1      -1.875  -6.619  32.090  0.00  0.00    +0.002 C 
ATOM      6  C   UNL     1      -0.867  -6.377  31.194  0.00  0.00    +0.003 C 
ENDROOT
BRANCH   6   7
ATOM      7  C   UNL     1       0.381  -7.169  31.305  0.00  0.00    +0.092 C 
ATOM      8  S   UNL     1       0.253  -8.212  32.786  0.00  0.00    -0.113 S 
ATOM      9  C   UNL     1       1.271  -7.209  33.888  0.00  0.00    +0.153 C 
ATOM     10  N   UNL     1       1.722  -6.145  33.040  0.00  0.00    -0.260 N 
ATOM     11  C   UNL     1       2.366  -4.994  33.623  0.00  0.00    +0.326 C 
ATOM     12  O   UNL     1       2.731  -4.089  32.834  0.00  0.00    -0.263 OA
ATOM     13  C   UNL     1       1.522  -6.301  31.654  0.00  0.00    +0.110 C 
BRANCH  11  14
ATOM     14  C   UNL     1       2.610  -4.822  35.031  0.00  0.00    +0.393 C 
ATOM     15  O   UNL     1       3.661  -4.295  35.462  0.00  0.00    -0.240 OA
BRANCH  14  16
ATOM     16  O   UNL     1       1.674  -5.240  35.956  0.00  0.00    -0.474 OA
ATOM     17  H   UNL     1       1.709  -6.113  36.296  0.00  0.00    +0.296 HD
ENDBRANCH  14  16
ENDBRANCH  11  14
ENDBRANCH   6   7
BRANCH   4  18
ATOM     18  C   UNL     1      -4.131  -6.145  32.991  0.00  0.00    +0.243 C 
ATOM     19  O   UNL     1      -4.587  -7.299  33.149  0.00  0.00    -0.270 OA
ATOM     20  N   UNL     1      -4.667  -5.082  33.748  0.00  0.00    -0.325 N 
ATOM     21  H   UNL     1      -4.316  -4.169  33.632  0.00  0.00    +0.145 HD
ATOM     22  H   UNL     1      -5.392  -5.253  34.392  0.00  0.00    +0.145 HD
ENDBRANCH   4  18
BRANCH   1  23
ATOM     23  N   UNL     1       0.012  -5.143  29.325  0.00  0.00    -0.313 N 
ATOM     24  H   UNL     1       0.491  -4.282  29.348  0.00  0.00    +0.152 HD
BRANCH  23  25
ATOM     25  C   UNL     1       0.378  -6.127  28.392  0.00  0.00    +0.047 C 
ATOM     26  C   UNL     1      -0.598  -7.032  27.998  0.00  0.00    +0.030 C 
ATOM     27  C   UNL     1      -0.301  -8.003  27.081  0.00  0.00    +0.060 C 
ATOM     28  N   UNL     1      -1.097  -9.057  26.498  0.00  0.00    -0.315 N 
ATOM     29  C   UNL     1      -0.344  -9.587  25.397  0.00  0.00    +0.182 C 
ATOM     30  N   UNL     1       1.002  -9.178  25.631  0.00  0.00    -0.315 N 
ATOM     31  C   UNL     1       0.968  -8.084  26.550  0.00  0.00    +0.059 C 
ATOM     32  C   UNL     1       1.935  -7.175  26.950  0.00  0.00    +0.014 C 
ATOM     33  C   UNL     1       1.653  -6.174  27.886  0.00  0.00    +0.011 C 
ATOM     34  H   UNL     1      -1.986  -9.355  26.798  0.00  0.00    +0.148 HD
ATOM     35  H   UNL     1       1.808  -9.577  25.232  0.00  0.00    +0.148 HD
BRANCH  33  36
ATOM     36  C   UNL     1       2.686  -5.230  28.286  0.00  0.00    +0.156 C 
ATOM     37  S   UNL     1       4.350  -5.787  27.705  0.00  0.00    -0.044 S 
ATOM     38  C   UNL     1       4.942  -4.176  27.226  0.00  0.00    +0.279 C 
ATOM     39  O   UNL     1       6.074  -3.896  26.825  0.00  0.00    -0.263 OA
ATOM     40  N   UNL     1       3.846  -3.302  27.403  0.00  0.00    -0.246 N 
ATOM     41  C   UNL     1       2.606  -3.948  27.484  0.00  0.00    +0.243 C 
ATOM     42  O   UNL     1       1.506  -3.563  26.971  0.00  0.00    -0.273 OA
ATOM     43  H   UNL     1       3.946  -2.325  27.464  0.00  0.00    +0.158 HD
ENDBRANCH  33  36
ENDBRANCH  23  25
ENDBRANCH   1  23
BRANCH   2  44
ATOM     44  C   UNL     1      -2.350  -3.615  29.149  0.00  0.00    +0.093 C 
BRANCH  44  45
ATOM     45  N   UNL     1      -1.705  -2.388  29.586  0.00  0.00    -0.317 NA
ATOM     46  H   UNL     1      -0.984  -2.608  30.272  0.00  0.00    +0.119 HD
ATOM     47  H   UNL     1      -2.399  -1.771  30.009  0.00  0.00    +0.119 HD
ENDBRANCH  44  45
ENDBRANCH   2  44
TORSDOF 9
ENDMDL
