REMARK  Name = =
REMARK  3 active torsions:
REMARK  status: ('A' for Active; 'I' for Inactive)
REMARK    1  A    between atoms: N_1  and  O_5
REMARK    2  A    between atoms: O_5  and  C_6
REMARK    3  A    between atoms: C_6  and  O_8
REMARK                            x       y       z     vdW  Elec       q    Type
REMARK                         _______ _______ _______ _____ _____    ______ ____
ROOT
ATOM      1  N   UNL     1     -13.527 -43.539  29.009  0.00  0.00    -0.126 N 
ATOM      2  C   UNL     1     -12.967 -42.886  27.890  0.00  0.00    +0.329 C 
ATOM      3  O   UNL     1     -12.054 -42.046  28.079  0.00  0.00    -0.250 OA
ATOM      4  N   UNL     1     -13.425 -43.171  26.564  0.00  0.00    -0.311 N 
ATOM      5  H   UNL     1     -14.242 -44.197  28.853  0.00  0.00    +0.198 HD
ATOM      6  H   UNL     1     -13.024 -42.707  25.794  0.00  0.00    +0.147 HD
ATOM      7  H   UNL     1     -14.141 -43.831  26.422  0.00  0.00    +0.147 HD
ENDROOT
BRANCH   1   8
ATOM      8  O   UNL     1     -13.127 -43.306  30.310  0.00  0.00    -0.313 OA
BRANCH   8   9
ATOM      9  C   UNL     1     -12.240 -44.238  30.855  0.00  0.00    +0.531 C 
ATOM     10  O   UNL     1     -12.023 -45.357  30.289  0.00  0.00    -0.201 OA
BRANCH   9  11
ATOM     11  O   UNL     1     -11.542 -44.006  32.036  0.00  0.00    -0.448 OA
ATOM     12  H   UNL     1     -10.956 -44.657  32.369  0.00  0.00    +0.299 HD
ENDBRANCH   9  11
ENDBRANCH   8   9
ENDBRANCH   1   8
TORSDOF 3
