REMARK  Name = =
REMARK  6 active torsions:
REMARK  status: ('A' for Active; 'I' for Inactive)
REMARK    1  A    between atoms: C_1  and  C_16
REMARK    2  A    between atoms: C_11  and  N_22
REMARK    3  A    between atoms: C_15  and  O_21
REMARK    4  A    between atoms: N_22  and  O_26
REMARK    5  A    between atoms: O_26  and  C_27
REMARK    6  A    between atoms: C_27  and  O_29
REMARK                            x       y       z     vdW  Elec       q    Type
REMARK                         _______ _______ _______ _____ _____    ______ ____
ROOT
ATOM      1  C   UNL     1     -13.624 -43.696  32.987  0.00  0.00    +0.020 C 
ATOM      2  C   UNL     1     -12.402 -43.104  32.911  0.00  0.00    -0.003 C 
ATOM      3  C   UNL     1     -11.369 -43.639  32.010  0.00  0.00    -0.003 C 
ATOM      4  C   UNL     1     -10.202 -42.919  31.855  0.00  0.00    -0.005 C 
ATOM      5  C   UNL     1      -9.992 -41.558  32.392  0.00  0.00    +0.032 C 
ATOM      6  C   UNL     1     -10.769 -41.318  33.601  0.00  0.00    +0.031 C 
ATOM      7  C   UNL     1     -12.123 -41.900  33.548  0.00  0.00    -0.022 C 
ATOM      8  C   UNL     1     -13.118 -41.248  34.288  0.00  0.00    -0.004 C 
ATOM      9  C   UNL     1     -14.346 -41.838  34.356  0.00  0.00    -0.000 C 
ATOM     10  C   UNL     1     -14.635 -43.014  33.748  0.00  0.00    +0.002 C 
ATOM     11  C   UNL     1      -9.182 -43.436  31.047  0.00  0.00    +0.090 C 
ATOM     12  C   UNL     1      -9.377 -44.657  30.417  0.00  0.00    +0.018 C 
ATOM     13  C   UNL     1     -10.535 -45.338  30.580  0.00  0.00    +0.001 C 
ATOM     14  C   UNL     1     -11.567 -44.835  31.391  0.00  0.00    -0.000 C 
ENDROOT
BRANCH   1  16
ATOM     15  C   UNL     1     -14.401 -45.211  31.226  0.00  0.00    +0.151 C 
ATOM     16  C   UNL     1     -14.014 -45.016  32.567  0.00  0.00    +0.115 C 
ATOM     17  N   UNL     1     -14.129 -46.108  33.361  0.00  0.00    -0.241 NA
ATOM     18  C   UNL     1     -14.576 -47.297  32.933  0.00  0.00    +0.099 C 
ATOM     19  C   UNL     1     -14.957 -47.499  31.626  0.00  0.00    +0.024 C 
ATOM     20  C   UNL     1     -14.863 -46.428  30.768  0.00  0.00    +0.040 C 
BRANCH  15  21
ATOM     21  O   UNL     1     -14.291 -44.110  30.397  0.00  0.00    -0.504 OA
ATOM     22  H   UNL     1     -13.974 -43.297  30.738  0.00  0.00    +0.292 HD
ENDBRANCH  15  21
ENDBRANCH   1  16
BRANCH  11  23
ATOM     23  N   UNL     1      -7.927 -42.782  30.871  0.00  0.00    -0.079 N 
ATOM     24  C   UNL     1      -7.694 -41.760  29.936  0.00  0.00    +0.337 C 
ATOM     25  O   UNL     1      -8.681 -41.450  29.175  0.00  0.00    -0.249 OA
ATOM     26  N   UNL     1      -6.519 -41.038  29.735  0.00  0.00    -0.311 N 
ATOM     27  H   UNL     1      -5.725 -41.227  30.286  0.00  0.00    +0.147 HD
ATOM     28  H   UNL     1      -6.483 -40.339  29.042  0.00  0.00    +0.147 HD
BRANCH  23  29
ATOM     29  O   UNL     1      -6.916 -43.266  31.665  0.00  0.00    -0.305 OA
BRANCH  29  30
ATOM     30  C   UNL     1      -6.813 -43.001  32.989  0.00  0.00    +0.531 C 
ATOM     31  O   UNL     1      -7.643 -42.290  33.574  0.00  0.00    -0.201 OA
BRANCH  30  32
ATOM     32  O   UNL     1      -5.774 -43.498  33.797  0.00  0.00    -0.448 OA
ATOM     33  H   UNL     1      -5.747 -43.286  34.709  0.00  0.00    +0.299 HD
ENDBRANCH  30  32
ENDBRANCH  29  30
ENDBRANCH  23  29
ENDBRANCH  11  23
TORSDOF 6
