MODEL 1
REMARK VINA RESULT:    -9.147      0.000      0.000
REMARK INTER + INTRA:          -9.991
REMARK INTER:                  -9.681
REMARK INTRA:                  -0.310
REMARK UNBOUND:                -0.310
REMARK  Name = =
REMARK  1 active torsions:
REMARK  status: ('A' for Active; 'I' for Inactive)
REMARK    1  A    between atoms: C_1  and  C_18
REMARK                            x       y       z     vdW  Elec       q    Type
REMARK                         _______ _______ _______ _____ _____    ______ ____
ROOT
ATOM      1  C   UNL     1      50.355 164.077  41.800  0.00  0.00    +0.035 C 
ATOM      2  C   UNL     1      50.122 162.605  41.724  0.00  0.00    -0.023 C 
ATOM      3  C   UNL     1      49.069 162.017  41.065  0.00  0.00    -0.023 C 
ATOM      4  C   UNL     1      48.016 162.878  40.392  0.00  0.00    +0.030 C 
ATOM      5  C   UNL     1      47.859 164.091  41.278  0.00  0.00    +0.059 C 
ATOM      6  C   UNL     1      49.193 164.789  41.296  0.00  0.00    +0.107 C 
ATOM      7  C   UNL     1      48.797 166.057  41.896  0.00  0.00    +0.317 C 
ATOM      8  O   UNL     1      49.246 166.792  42.798  0.00  0.00    -0.250 OA
ATOM      9  O   UNL     1      47.619 166.404  41.186  0.00  0.00    -0.448 OA
ATOM     10  C   UNL     1      47.027 165.197  40.663  0.00  0.00    +0.209 C 
ATOM     11  C   UNL     1      48.896 160.661  40.994  0.00  0.00    +0.036 C 
ATOM     12  C   UNL     1      49.798 159.783  41.606  0.00  0.00    +0.176 C 
ATOM     13  C   UNL     1      50.856 160.359  42.271  0.00  0.00    +0.176 C 
ATOM     14  C   UNL     1      51.025 161.722  42.337  0.00  0.00    +0.036 C 
ATOM     15  O   UNL     1      51.587 159.280  42.778  0.00  0.00    -0.435 OA
ATOM     16  C   UNL     1      50.760 158.136  42.810  0.00  0.00    +0.429 C 
ATOM     17  O   UNL     1      49.890 158.404  41.709  0.00  0.00    -0.435 OA
ENDROOT
BRANCH   1  18
ATOM     18  C   UNL     1      51.546 164.453  40.932  0.00  0.00    +0.034 C 
ATOM     19  C   UNL     1      51.421 165.749  40.215  0.00  0.00    +0.032 C 
ATOM     20  C   UNL     1      52.887 166.249  40.264  0.00  0.00    +0.115 C 
ATOM     21  O   UNL     1      53.120 166.008  41.640  0.00  0.00    -0.359 OA
ATOM     22  C   UNL     1      52.825 164.622  41.691  0.00  0.00    +0.116 C 
ATOM     23  C   UNL     1      53.939 164.141  40.739  0.00  0.00    +0.032 C 
ATOM     24  C   UNL     1      53.742 165.179  39.624  0.00  0.00    +0.032 C 
ENDBRANCH   1  18
TORSDOF 1
ENDMDL
