REMARK  Name = =
REMARK  1 active torsions:
REMARK  status: ('A' for Active; 'I' for Inactive)
REMARK    1  A    between atoms: C_1  and  C_18
REMARK                            x       y       z     vdW  Elec       q    Type
REMARK                         _______ _______ _______ _____ _____    ______ ____
ROOT
ATOM      1  C   UNL     1      52.900 156.811  27.138  0.00  0.00    +0.035 C 
ATOM      2  C   UNL     1      53.782 157.670  27.981  0.00  0.00    -0.023 C 
ATOM      3  C   UNL     1      54.081 157.419  29.299  0.00  0.00    -0.023 C 
ATOM      4  C   UNL     1      53.462 156.229  30.007  0.00  0.00    +0.030 C 
ATOM      5  C   UNL     1      52.068 156.102  29.441  0.00  0.00    +0.059 C 
ATOM      6  C   UNL     1      52.222 155.830  27.968  0.00  0.00    +0.107 C 
ATOM      7  C   UNL     1      50.859 155.422  27.651  0.00  0.00    +0.317 C 
ATOM      8  O   UNL     1      50.039 155.689  26.750  0.00  0.00    -0.250 OA
ATOM      9  O   UNL     1      50.534 154.519  28.695  0.00  0.00    -0.448 OA
ATOM     10  C   UNL     1      51.357 154.825  29.839  0.00  0.00    +0.209 C 
ATOM     11  C   UNL     1      54.913 158.215  30.040  0.00  0.00    +0.036 C 
ATOM     12  C   UNL     1      55.512 159.352  29.485  0.00  0.00    +0.176 C 
ATOM     13  C   UNL     1      55.219 159.615  28.166  0.00  0.00    +0.176 C 
ATOM     14  C   UNL     1      54.383 158.811  27.427  0.00  0.00    +0.036 C 
ATOM     15  O   UNL     1      55.932 160.781  27.869  0.00  0.00    -0.435 OA
ATOM     16  C   UNL     1      56.265 161.438  29.074  0.00  0.00    +0.429 C 
ATOM     17  O   UNL     1      56.373 160.326  29.965  0.00  0.00    -0.435 OA
ENDROOT
BRANCH   1  18
ATOM     18  C   UNL     1      53.741 156.058  26.118  0.00  0.00    +0.034 C 
ATOM     19  C   UNL     1      53.083 154.873  25.509  0.00  0.00    +0.032 C 
ATOM     20  C   UNL     1      53.644 154.940  24.066  0.00  0.00    +0.115 C 
ATOM     21  O   UNL     1      53.398 156.316  23.835  0.00  0.00    -0.359 OA
ATOM     22  C   UNL     1      54.121 156.872  24.921  0.00  0.00    +0.116 C 
ATOM     23  C   UNL     1      55.522 156.374  24.509  0.00  0.00    +0.032 C 
ATOM     24  C   UNL     1      55.152 154.921  24.175  0.00  0.00    +0.032 C 
ENDBRANCH   1  18
TORSDOF 1
