REMARK  Name = =
REMARK  9 active torsions:
REMARK  status: ('A' for Active; 'I' for Inactive)
REMARK    1  A    between atoms: C_1  and  N_25
REMARK    2  A    between atoms: C_21  and  S_26
REMARK    3  A    between atoms: S_26  and  P_29
REMARK    4  A    between atoms: P_29  and  O_32
REMARK    5  A    between atoms: P_29  and  O_33
REMARK    6  A    between atoms: O_30  and  O_31
REMARK    7  A    between atoms: O_33  and  P_34
REMARK    8  A    between atoms: P_34  and  O_36
REMARK    9  A    between atoms: P_34  and  O_37
REMARK                            x       y       z     vdW  Elec       q    Type
REMARK                         _______ _______ _______ _____ _____    ______ ____
ROOT
ATOM      1  C   UNL     1      -6.340  -1.403  32.011  0.00  0.00    +0.079 C 
ATOM      2  C   UNL     1      -7.234  -2.184  32.854  0.00  0.00    +0.021 C 
ATOM      3  C   UNL     1      -6.574  -3.487  32.458  0.00  0.00    +0.043 C 
ATOM      4  C   UNL     1      -5.597  -2.698  31.650  0.00  0.00    +0.163 C 
ATOM      5  O   UNL     1      -5.503  -2.939  30.285  0.00  0.00    -0.448 OA
ATOM      6  C   UNL     1      -4.163  -3.178  29.938  0.00  0.00    +0.341 C 
ATOM      7  O   UNL     1      -3.692  -3.428  28.802  0.00  0.00    -0.245 OA
ATOM      8  C   UNL     1      -3.410  -3.078  31.176  0.00  0.00    +0.077 C 
ATOM      9  C   UNL     1      -4.226  -2.801  32.185  0.00  0.00    -0.001 C 
ATOM     10  C   UNL     1      -5.839  -4.165  33.617  0.00  0.00    +0.004 C 
ATOM     11  C   UNL     1      -5.108  -3.154  34.473  0.00  0.00    +0.005 C 
ATOM     12  C   UNL     1      -3.956  -2.615  33.617  0.00  0.00    +0.026 C 
ATOM     13  C   UNL     1      -8.680  -2.063  32.709  0.00  0.00    +0.002 C 
ATOM     14  C   UNL     1      -9.168  -1.297  31.505  0.00  0.00    +0.002 C 
ATOM     15  C   UNL     1     -10.558  -1.717  31.189  0.00  0.00    +0.022 C 
ATOM     16  C   UNL     1     -11.319  -2.205  32.434  0.00  0.00    +0.002 C 
ATOM     17  C   UNL     1     -10.689  -3.375  33.081  0.00  0.00    +0.000 C 
ATOM     18  C   UNL     1      -9.263  -3.481  32.599  0.00  0.00    +0.000 C 
ATOM     19  C   UNL     1     -12.680  -2.434  31.869  0.00  0.00    +0.002 C 
ATOM     20  C   UNL     1     -12.825  -1.353  30.791  0.00  0.00    +0.024 C 
ATOM     21  C   UNL     1     -11.486  -0.610  30.798  0.00  0.00    +0.137 C 
ATOM     22  C   UNL     1      -8.172  -1.564  30.399  0.00  0.00    +0.002 C 
ATOM     23  C   UNL     1      -6.918  -0.799  30.766  0.00  0.00    +0.018 C 
ENDROOT
BRANCH   1  25
ATOM     24  C   UNL     1      -5.202   0.711  32.030  0.00  0.00    +0.086 C 
ATOM     25  N   UNL     1      -5.455  -0.532  32.732  0.00  0.00    -0.295 NA
ATOM     26  H   UNL     1      -4.567  -1.013  32.874  0.00  0.00    +0.123 HD
ENDBRANCH   1  25
BRANCH  21  27
ATOM     27  S   UNL     1     -11.136   0.182  29.298  0.00  0.00    +0.047 S 
ATOM     28  O   UNL     1     -10.551  -0.685  28.251  0.00  0.00    -0.166 OA
ATOM     29  O   UNL     1     -10.312   1.408  29.567  0.00  0.00    -0.166 OA
BRANCH  27  30
ATOM     30  P   UNL     1     -12.900   0.927  28.462  0.00  0.00    +0.336 P 
BRANCH  30  31
ATOM     31  O   UNL     1     -14.217  -0.055  28.576  0.00  0.00    -0.333 OA
ATOM     32  H   UNL     1     -14.598   0.017  29.465  0.00  0.00    +0.218 HD
ENDBRANCH  30  31
BRANCH  30  33
ATOM     33  O   UNL     1     -13.121   0.129  26.961  0.00  0.00    -0.217 OA
BRANCH  33  34
ATOM     34  P   UNL     1     -14.413   0.779  26.140  0.00  0.00    +0.478 P 
ATOM     35  O   UNL     1     -15.493   1.152  27.159  0.00  0.00    -0.227 OA
BRANCH  34  36
ATOM     36  O   UNL     1     -13.991   2.115  25.204  0.00  0.00    -0.302 OA
ATOM     37  H   UNL     1     -13.608   2.800  25.773  0.00  0.00    +0.222 HD
ENDBRANCH  34  36
BRANCH  34  38
ATOM     38  O   UNL     1     -15.093  -0.452  25.171  0.00  0.00    -0.302 OA
ATOM     39  H   UNL     1     -15.328  -1.210  25.729  0.00  0.00    +0.222 HD
ENDBRANCH  34  38
ENDBRANCH  33  34
ENDBRANCH  30  33
ENDBRANCH  27  30
ENDBRANCH  21  27
TORSDOF 8
REMARK  Name = =
REMARK  9 active torsions:
REMARK  status: ('A' for Active; 'I' for Inactive)
REMARK    1  A    between atoms: C_1  and  N_25
REMARK    2  A    between atoms: C_21  and  S_26
REMARK    3  A    between atoms: S_26  and  P_29
REMARK    4  A    between atoms: P_29  and  O_32
REMARK    5  A    between atoms: P_29  and  O_33
REMARK    6  A    between atoms: O_30  and  O_31
REMARK    7  A    between atoms: O_33  and  P_34
REMARK    8  A    between atoms: P_34  and  O_36
REMARK    9  A    between atoms: P_34  and  O_37
REMARK                            x       y       z     vdW  Elec       q    Type
REMARK                         _______ _______ _______ _____ _____    ______ ____
ROOT
ATOM      1  O   UNL     1     -13.005   2.036  29.486  0.00  0.00    -0.253 OA
ATOM      2  H   UNL     1     -12.299   2.580  29.869  0.00  0.00    +0.253 HD
ENDROOT
BRANCH   1   3
ATOM      3  O   UNL     1     -13.262   2.477  28.036  0.00  0.00    -0.253 OA
ATOM      4  H   UNL     1     -13.968   1.933  27.653  0.00  0.00    +0.253 HD
ENDBRANCH   1   3
TORSDOF 1
