REMARK  Name = =
REMARK  0 active torsions:
REMARK  status: ('A' for Active; 'I' for Inactive)
REMARK                            x       y       z     vdW  Elec       q    Type
REMARK                         _______ _______ _______ _____ _____    ______ ____
ROOT
ATOM      1  C   UNL     1     -13.159 -43.094  27.043  0.00  0.00    +0.146 C 
ATOM      2  N   UNL     1     -14.120 -42.891  27.822  0.00  0.00    -0.205 NA
ATOM      3  C   UNL     1     -15.400 -42.685  27.325  0.00  0.00    +0.101 C 
ATOM      4  C   UNL     1     -15.332 -42.035  25.957  0.00  0.00    +0.078 C 
ATOM      5  S   UNL     1     -13.884 -43.033  25.373  0.00  0.00    -0.120 S 
ENDROOT
TORSDOF 0
