MODEL 1
REMARK VINA RESULT:    -8.169      0.000      0.000
REMARK INTER + INTRA:         -10.881
REMARK INTER:                 -10.557
REMARK INTRA:                  -0.324
REMARK UNBOUND:                -0.324
REMARK  Name = =
REMARK  5 active torsions:
REMARK  status: ('A' for Active; 'I' for Inactive)
REMARK    1  A    between atoms: C_1  and  O_15
REMARK    2  A    between atoms: N_3  and  S_4
REMARK    3  A    between atoms: S_4  and  C_7
REMARK    4  A    between atoms: O_15  and  O_16
REMARK    5  A    between atoms: O_16  and  N_17
REMARK                            x       y       z     vdW  Elec       q    Type
REMARK                         _______ _______ _______ _____ _____    ______ ____
ROOT
ATOM      1  C   UNL     1      50.939 157.657  29.902  0.00  0.00    +0.452 C 
ATOM      2  O   UNL     1      49.831 157.157  30.216  0.00  0.00    -0.222 OA
ATOM      3  N   UNL     1      51.867 156.855  29.156  0.00  0.00    -0.148 N 
ATOM      4  H   UNL     1      52.736 157.243  28.906  0.00  0.00    +0.180 HD
ENDROOT
BRANCH   3   5
ATOM      5  S   UNL     1      51.515 155.249  28.687  0.00  0.00    +0.078 S 
ATOM      6  O   UNL     1      51.920 154.338  29.805  0.00  0.00    -0.150 OA
ATOM      7  O   UNL     1      50.052 155.059  28.372  0.00  0.00    -0.150 OA
BRANCH   5   8
ATOM      8  C   UNL     1      52.463 154.828  27.269  0.00  0.00    +0.126 C 
ATOM      9  C   UNL     1      52.739 153.539  26.905  0.00  0.00    +0.032 C 
ATOM     10  C   UNL     1      53.485 153.210  25.786  0.00  0.00    +0.070 C 
ATOM     11  C   UNL     1      53.949 154.272  25.031  0.00  0.00    +0.068 C 
ATOM     12  C   UNL     1      53.703 155.590  25.351  0.00  0.00    +0.014 C 
ATOM     13  C   UNL     1      52.954 155.854  26.477  0.00  0.00    +0.021 C 
ATOM     14 CL   UNL     1      54.904 153.877  23.602  0.00  0.00    -0.081 Cl
ATOM     15 CL   UNL     1      53.825 151.549  25.340  0.00  0.00    -0.081 Cl
ENDBRANCH   5   8
ENDBRANCH   3   5
BRANCH   1  16
ATOM     16  O   UNL     1      51.293 158.953  30.247  0.00  0.00    -0.257 OA
BRANCH  16  17
ATOM     17  O   UNL     1      50.796 159.996  29.575  0.00  0.00    -0.081 OA
BRANCH  17  18
ATOM     18  N   UNL     1      50.157 160.807  30.443  0.00  0.00    -0.121 NA
ATOM     19  C   UNL     1      48.762 160.573  30.542  0.00  0.00    +0.122 C 
ATOM     20  C   UNL     1      48.262 160.078  31.840  0.00  0.00    +0.089 C 
ATOM     21  N   UNL     1      48.894 160.580  33.003  0.00  0.00    -0.295 NA
ATOM     22  C   UNL     1      50.013 161.439  32.790  0.00  0.00    +0.089 C 
ATOM     23  C   UNL     1      50.861 160.834  31.696  0.00  0.00    +0.122 C 
ATOM     24  H   UNL     1      49.214 159.782  33.553  0.00  0.00    +0.123 HD
ENDBRANCH  17  18
ENDBRANCH  16  17
ENDBRANCH   1  16
TORSDOF 5
ENDMDL
