REMARK  Name = =
REMARK  5 active torsions:
REMARK  status: ('A' for Active; 'I' for Inactive)
REMARK    1  A    between atoms: C_1  and  O_15
REMARK    2  A    between atoms: N_3  and  S_4
REMARK    3  A    between atoms: S_4  and  C_7
REMARK    4  A    between atoms: O_15  and  O_16
REMARK    5  A    between atoms: O_16  and  N_17
REMARK                            x       y       z     vdW  Elec       q    Type
REMARK                         _______ _______ _______ _____ _____    ______ ____
ROOT
ATOM      1  C   UNL     1      51.559 157.714  29.772  0.00  0.00    +0.452 C 
ATOM      2  O   UNL     1      50.550 157.403  30.452  0.00  0.00    -0.222 OA
ATOM      3  N   UNL     1      52.146 156.718  28.921  0.00  0.00    -0.148 N 
ATOM      4  H   UNL     1      52.936 156.957  28.385  0.00  0.00    +0.180 HD
ENDROOT
BRANCH   3   5
ATOM      5  S   UNL     1      51.521 155.131  28.806  0.00  0.00    +0.078 S 
ATOM      6  O   UNL     1      51.680 154.470  30.141  0.00  0.00    -0.150 OA
ATOM      7  O   UNL     1      50.068 155.123  28.397  0.00  0.00    -0.150 OA
BRANCH   5   8
ATOM      8  C   UNL     1      52.449 154.215  27.629  0.00  0.00    +0.126 C 
ATOM      9  C   UNL     1      52.548 154.566  26.311  0.00  0.00    +0.032 C 
ATOM     10  C   UNL     1      53.281 153.843  25.386  0.00  0.00    +0.070 C 
ATOM     11  C   UNL     1      53.928 152.719  25.868  0.00  0.00    +0.068 C 
ATOM     12  C   UNL     1      53.863 152.317  27.185  0.00  0.00    +0.014 C 
ATOM     13  C   UNL     1      53.117 153.078  28.058  0.00  0.00    +0.021 C 
ATOM     14 CL   UNL     1      54.867 151.780  24.707  0.00  0.00    -0.081 Cl
ATOM     15 CL   UNL     1      53.393 154.315  23.701  0.00  0.00    -0.081 Cl
ENDBRANCH   5   8
ENDBRANCH   3   5
BRANCH   1  16
ATOM     16  O   UNL     1      52.121 158.981  29.814  0.00  0.00    -0.257 OA
BRANCH  16  17
ATOM     17  O   UNL     1      51.345 160.070  29.793  0.00  0.00    -0.081 OA
BRANCH  17  18
ATOM     18  N   UNL     1      50.467 159.997  30.815  0.00  0.00    -0.121 NA
ATOM     19  C   UNL     1      50.876 160.685  31.985  0.00  0.00    +0.122 C 
ATOM     20  C   UNL     1      50.062 161.847  32.391  0.00  0.00    +0.089 C 
ATOM     21  N   UNL     1      48.665 161.757  32.177  0.00  0.00    -0.295 NA
ATOM     22  C   UNL     1      48.207 160.587  31.501  0.00  0.00    +0.089 C 
ATOM     23  C   UNL     1      49.146 160.319  30.349  0.00  0.00    +0.122 C 
ATOM     24  H   UNL     1      48.382 162.567  31.625  0.00  0.00    +0.123 HD
ENDBRANCH  17  18
ENDBRANCH  16  17
ENDBRANCH   1  16
TORSDOF 5
