REMARK  Name = =
REMARK  0 active torsions:
REMARK  status: ('A' for Active; 'I' for Inactive)
REMARK                            x       y       z     vdW  Elec       q    Type
REMARK                         _______ _______ _______ _____ _____    ______ ____
ROOT
ATOM      1  C   UNL     1      52.099 155.304  28.461  0.00  0.00    +0.109 C 
ATOM      2  N   UNL     1      53.170 154.642  28.411  0.00  0.00    -0.295 NA
ATOM      3  H   UNL     1      53.859 154.768  29.103  0.00  0.00    +0.187 HD
ENDROOT
TORSDOF 0
