REMARK  Name = =
REMARK  0 active torsions:
REMARK  status: ('A' for Active; 'I' for Inactive)
REMARK                            x       y       z     vdW  Elec       q    Type
REMARK                         _______ _______ _______ _____ _____    ______ ____
ROOT
ATOM      1  N   UNL     1      52.425 156.224  28.031  0.00  0.00    -0.272 N 
ATOM      2  C   UNL     1      52.289 157.190  29.100  0.00  0.00    +0.094 C 
ATOM      3  C   UNL     1      50.955 156.774  29.694  0.00  0.00    +0.023 C 
ATOM      4  C   UNL     1      51.097 155.281  29.754  0.00  0.00    +0.023 C 
ATOM      5  C   UNL     1      52.000 154.961  28.600  0.00  0.00    +0.094 C 
ATOM      6  C   UNL     1      52.878 156.479  26.717  0.00  0.00    +0.303 C 
ATOM      7  O   UNL     1      52.963 155.572  25.852  0.00  0.00    -0.265 OA
ENDROOT
TORSDOF 0
