REMARK  Name = =
REMARK  5 active torsions:
REMARK  status: ('A' for Active; 'I' for Inactive)
REMARK    1  A    between atoms: O_1  and  C_7
REMARK    2  A    between atoms: O_1  and  P_9
REMARK    3  A    between atoms: P_9  and  C_11
REMARK    4  A    between atoms: P_9  and  O_14
REMARK    5  A    between atoms: C_11  and  O_13
REMARK                            x       y       z     vdW  Elec       q    Type
REMARK                         _______ _______ _______ _____ _____    ______ ____
ROOT
ATOM      1  O   UNL     1      53.116 154.447  26.944  0.00  0.00    -0.370 OA
ENDROOT
BRANCH   1   7
ATOM      2  N   UNL     1      52.479 156.201  28.564  0.00  0.00    -0.246 N 
ATOM      3  C   UNL     1      52.470 157.575  29.023  0.00  0.00    +0.097 C 
ATOM      4  C   UNL     1      51.060 157.737  29.520  0.00  0.00    +0.023 C 
ATOM      5  C   UNL     1      50.540 156.338  29.786  0.00  0.00    +0.023 C 
ATOM      6  C   UNL     1      51.742 155.452  29.531  0.00  0.00    +0.097 C 
ATOM      7  C   UNL     1      53.124 155.770  27.363  0.00  0.00    +0.411 C 
ATOM      8  O   UNL     1      53.736 156.576  26.616  0.00  0.00    -0.226 OA
ENDBRANCH   1   7
BRANCH   1   9
ATOM      9  P   UNL     1      53.474 153.964  25.344  0.00  0.00    +0.489 P 
ATOM     10  O   UNL     1      52.473 154.489  24.350  0.00  0.00    -0.232 OA
BRANCH   9  11
ATOM     11  C   UNL     1      53.553 152.205  25.174  0.00  0.00    +0.431 C 
ATOM     12  O   UNL     1      53.258 151.402  26.096  0.00  0.00    -0.235 OA
BRANCH  11  13
ATOM     13  O   UNL     1      53.965 151.682  23.948  0.00  0.00    -0.471 OA
ATOM     14  H   UNL     1      54.190 152.259  23.245  0.00  0.00    +0.296 HD
ENDBRANCH  11  13
ENDBRANCH   9  11
BRANCH   9  15
ATOM     15  O   UNL     1      55.027 154.581  25.004  0.00  0.00    -0.307 OA
ATOM     16  H   UNL     1      55.017 155.547  25.089  0.00  0.00    +0.221 HD
ENDBRANCH   9  15
ENDBRANCH   1   9
TORSDOF 5
