REMARK  Name = =
REMARK  3 active torsions:
REMARK  status: ('A' for Active; 'I' for Inactive)
REMARK    1  A    between atoms: C_1  and  O_9
REMARK    2  A    between atoms: C_4  and  C_7
REMARK    3  A    between atoms: O_9  and  N_11
REMARK                            x       y       z     vdW  Elec       q    Type
REMARK                         _______ _______ _______ _____ _____    ______ ____
ROOT
ATOM      1  C   UNL     1      53.533 153.304  25.700  0.00  0.00    +0.175 C 
ATOM      2  C   UNL     1      54.481 152.916  24.778  0.00  0.00    +0.040 C 
ATOM      3  C   UNL     1      54.640 151.604  24.412  0.00  0.00    +0.007 C 
ATOM      4  C   UNL     1      53.811 150.640  24.999  0.00  0.00    +0.042 C 
ATOM      5  C   UNL     1      52.861 151.020  25.921  0.00  0.00    +0.007 C 
ATOM      6  C   UNL     1      52.706 152.346  26.286  0.00  0.00    +0.040 C 
ENDROOT
BRANCH   4   7
ATOM      7  C   UNL     1      53.944 149.253  24.643  0.00  0.00    +0.234 C 
ATOM      8  O   UNL     1      53.128 148.416  25.102  0.00  0.00    -0.283 OA
ENDBRANCH   4   7
BRANCH   1   9
ATOM      9  O   UNL     1      53.396 154.636  26.049  0.00  0.00    -0.353 OA
BRANCH   9  11
ATOM     10  C   UNL     1      52.666 156.315  27.497  0.00  0.00    +0.165 C 
ATOM     11  N   UNL     1      52.632 155.076  27.083  0.00  0.00    -0.074 NA
ENDBRANCH   9  11
ENDBRANCH   1   9
TORSDOF 3
