REMARK  Name = =
REMARK  4 active torsions:
REMARK  status: ('A' for Active; 'I' for Inactive)
REMARK    1  A    between atoms: N_1  and  C_2
REMARK    2  A    between atoms: N_1  and  C_14
REMARK    3  A    between atoms: N_1  and  N_19
REMARK    4  A    between atoms: C_20  and  O_22
REMARK                            x       y       z     vdW  Elec       q    Type
REMARK                         _______ _______ _______ _____ _____    ______ ____
ROOT
ATOM      1  N   UNL     1      53.884 153.220  26.430  0.00  0.00    -0.150 NA
ENDROOT
BRANCH   1   2
ATOM      2  C   UNL     1      54.179 154.535  25.996  0.00  0.00    +0.202 C 
ATOM      3  C   UNL     1      53.073 155.171  25.231  0.00  0.00    +0.197 C 
ATOM      4  O   UNL     1      51.861 154.877  25.145  0.00  0.00    -0.289 OA
ATOM      5  C   UNL     1      53.709 156.301  24.536  0.00  0.00    +0.039 C 
ATOM      6  C   UNL     1      55.057 155.970  24.375  0.00  0.00    +0.039 C 
ATOM      7  C   UNL     1      55.873 156.883  23.743  0.00  0.00    +0.003 C 
ATOM      8  C   UNL     1      55.409 158.097  23.271  0.00  0.00    +0.000 C 
ATOM      9  C   UNL     1      54.081 158.422  23.430  0.00  0.00    +0.000 C 
ATOM     10  C   UNL     1      53.246 157.524  24.059  0.00  0.00    +0.003 C 
ATOM     11  C   UNL     1      55.269 154.629  24.970  0.00  0.00    +0.197 C 
ATOM     12  O   UNL     1      56.158 153.839  24.637  0.00  0.00    -0.289 OA
ENDBRANCH   1   2
BRANCH   1  14
ATOM     13  O   UNL     1      52.297 151.780  27.637  0.00  0.00    -0.455 OA
ATOM     14  C   UNL     1      52.916 153.019  27.473  0.00  0.00    +0.268 C 
ATOM     15  C   UNL     1      52.580 153.982  28.302  0.00  0.00    +0.036 C 
ATOM     16  C   UNL     1      51.602 153.885  29.403  0.00  0.00    +0.004 C 
ATOM     17  C   UNL     1      51.021 152.551  29.479  0.00  0.00    +0.040 C 
ATOM     18  C   UNL     1      51.368 151.605  28.645  0.00  0.00    +0.174 C 
ENDBRANCH   1  14
BRANCH   1  19
ATOM     19  N   UNL     1      54.484 152.074  25.896  0.00  0.00    -0.209 N 
ATOM     20  C   UNL     1      54.094 151.585  24.604  0.00  0.00    +0.412 C 
ATOM     21  O   UNL     1      53.214 152.176  23.946  0.00  0.00    -0.225 OA
ATOM     22  H   UNL     1      55.178 151.600  26.410  0.00  0.00    +0.173 HD
BRANCH  20  23
ATOM     23  O   UNL     1      54.673 150.452  24.051  0.00  0.00    -0.465 OA
ATOM     24  H   UNL     1      55.337 149.987  24.522  0.00  0.00    +0.297 HD
ENDBRANCH  20  23
ENDBRANCH   1  19
TORSDOF 4
