REMARK  Name = =
REMARK  6 active torsions:
REMARK  status: ('A' for Active; 'I' for Inactive)
REMARK    1  A    between atoms: C_1  and  C_11
REMARK    2  A    between atoms: N_3  and  N_4
REMARK    3  A    between atoms: N_7  and  N_8
REMARK    4  A    between atoms: N_12  and  O_13
REMARK    5  A    between atoms: O_13  and  C_14
REMARK    6  A    between atoms: C_17  and  C_20
REMARK                            x       y       z     vdW  Elec       q    Type
REMARK                         _______ _______ _______ _____ _____    ______ ____
ROOT
ATOM      1  C   UNL     1      55.498 154.861  26.092  0.00  0.00    +0.284 C 
ATOM      2  O   UNL     1      56.558 155.314  25.602  0.00  0.00    -0.267 OA
ATOM      3  N   UNL     1      55.560 153.685  26.893  0.00  0.00    -0.228 N 
ATOM      4  H   UNL     1      54.720 153.337  27.272  0.00  0.00    +0.173 HD
ENDROOT
BRANCH   3   5
ATOM      5  N   UNL     1      56.742 152.996  27.173  0.00  0.00    -0.217 N 
ATOM      6  C   UNL     1      57.455 152.212  26.248  0.00  0.00    +0.332 C 
ATOM      7  O   UNL     1      56.986 152.131  25.079  0.00  0.00    -0.250 OA
ATOM      8  N   UNL     1      58.654 151.516  26.541  0.00  0.00    -0.217 N 
ATOM      9  H   UNL     1      57.103 153.064  28.086  0.00  0.00    +0.174 HD
ATOM     10  H   UNL     1      59.027 151.575  27.450  0.00  0.00    +0.174 HD
BRANCH   8  11
ATOM     11  N   UNL     1      59.335 150.738  25.572  0.00  0.00    -0.225 N 
ATOM     12  C   UNL     1      59.948 149.512  25.925  0.00  0.00    +0.316 C 
ATOM     13  O   UNL     1      59.897 149.089  27.111  0.00  0.00    -0.264 OA
ATOM     14  H   UNL     1      59.382 151.054  24.641  0.00  0.00    +0.173 HD
ENDBRANCH   8  11
ENDBRANCH   3   5
BRANCH   1  15
ATOM     15  C   UNL     1      54.196 155.499  25.867  0.00  0.00    +0.200 C 
ATOM     16  N   UNL     1      53.229 155.302  26.683  0.00  0.00    -0.071 NA
BRANCH  16  17
ATOM     17  O   UNL     1      51.985 155.858  26.549  0.00  0.00    -0.353 OA
BRANCH  17  18
ATOM     18  C   UNL     1      51.438 156.711  27.500  0.00  0.00    +0.175 C 
ATOM     19  C   UNL     1      51.407 158.059  27.277  0.00  0.00    +0.040 C 
ATOM     20  C   UNL     1      50.862 158.890  28.228  0.00  0.00    +0.007 C 
ATOM     21  C   UNL     1      50.340 158.431  29.406  0.00  0.00    +0.042 C 
ATOM     22  C   UNL     1      50.376 157.066  29.625  0.00  0.00    +0.007 C 
ATOM     23  C   UNL     1      50.923 156.212  28.672  0.00  0.00    +0.040 C 
BRANCH  21  24
ATOM     24  C   UNL     1      49.774 159.343  30.386  0.00  0.00    +0.234 C 
ATOM     25  O   UNL     1      49.629 159.025  31.588  0.00  0.00    -0.283 OA
ENDBRANCH  21  24
ENDBRANCH  17  18
ENDBRANCH  16  17
ENDBRANCH   1  15
TORSDOF 6
