REMARK  Name = =
REMARK  7 active torsions:
REMARK  status: ('A' for Active; 'I' for Inactive)
REMARK    1  A    between atoms: C_1  and  C_3
REMARK    2  A    between atoms: C_1  and  C_17
REMARK    3  A    between atoms: N_2  and  O_27
REMARK    4  A    between atoms: N_19  and  N_20
REMARK    5  A    between atoms: N_23  and  N_24
REMARK    6  A    between atoms: O_27  and  C_28
REMARK    7  A    between atoms: C_31  and  C_34
REMARK                            x       y       z     vdW  Elec       q    Type
REMARK                         _______ _______ _______ _____ _____    ______ ____
ROOT
ATOM      1  C   UNL     1      52.974 156.456  28.176  0.00  0.00    +0.174 C 
ATOM      2  N   UNL     1      53.154 157.640  28.696  0.00  0.00    -0.072 NA
ENDROOT
BRANCH   1   3
ATOM      3  C   UNL     1      53.606 156.098  26.927  0.00  0.00    +0.027 C 
ATOM      4  C   UNL     1      53.600 154.787  26.465  0.00  0.00    +0.003 C 
ATOM      5  C   UNL     1      54.036 154.524  25.174  0.00  0.00    +0.019 C 
ATOM      6  C   UNL     1      54.488 155.522  24.305  0.00  0.00    +0.099 C 
ATOM      7  N   UNL     1      54.895 155.191  23.067  0.00  0.00    -0.241 NA
ATOM      8  C   UNL     1      55.322 156.207  22.272  0.00  0.00    +0.119 C 
ATOM      9  C   UNL     1      55.342 157.524  22.707  0.00  0.00    +0.119 C 
ATOM     10  N   UNL     1      54.928 157.823  23.952  0.00  0.00    -0.241 NA
ATOM     11  C   UNL     1      54.494 156.803  24.764  0.00  0.00    +0.099 C 
ATOM     12  C   UNL     1      54.062 157.077  26.040  0.00  0.00    +0.022 C 
ATOM     13  C   UNL     1      54.049 153.206  24.729  0.00  0.00    +0.002 C 
ATOM     14  C   UNL     1      53.642 152.181  25.549  0.00  0.00    +0.000 C 
ATOM     15  C   UNL     1      53.218 152.462  26.821  0.00  0.00    +0.000 C 
ATOM     16  C   UNL     1      53.191 153.774  27.301  0.00  0.00    +0.000 C 
ENDBRANCH   1   3
BRANCH   1  17
ATOM     17  C   UNL     1      52.083 155.622  28.925  0.00  0.00    +0.282 C 
ATOM     18  O   UNL     1      51.178 155.010  28.189  0.00  0.00    -0.267 OA
ATOM     19  N   UNL     1      52.000 155.326  30.283  0.00  0.00    -0.228 N 
ATOM     20  H   UNL     1      52.641 155.707  30.926  0.00  0.00    +0.173 HD
BRANCH  19  21
ATOM     21  N   UNL     1      50.956 154.452  30.713  0.00  0.00    -0.217 N 
ATOM     22  C   UNL     1      49.623 154.625  30.272  0.00  0.00    +0.332 C 
ATOM     23  O   UNL     1      49.316 155.575  29.473  0.00  0.00    -0.250 OA
ATOM     24  N   UNL     1      48.559 153.776  30.676  0.00  0.00    -0.217 N 
ATOM     25  H   UNL     1      51.168 153.714  31.329  0.00  0.00    +0.174 HD
ATOM     26  H   UNL     1      48.730 153.026  31.290  0.00  0.00    +0.174 HD
BRANCH  24  27
ATOM     27  N   UNL     1      47.270 154.010  30.198  0.00  0.00    -0.225 N 
ATOM     28  C   UNL     1      46.209 153.096  30.436  0.00  0.00    +0.316 C 
ATOM     29  O   UNL     1      46.381 152.045  31.084  0.00  0.00    -0.264 OA
ATOM     30  H   UNL     1      47.091 154.829  29.683  0.00  0.00    +0.173 HD
ENDBRANCH  24  27
ENDBRANCH  19  21
ENDBRANCH   1  17
BRANCH   2  31
ATOM     31  O   UNL     1      52.601 158.043  29.853  0.00  0.00    -0.353 OA
BRANCH  31  32
ATOM     32  C   UNL     1      51.405 158.746  29.950  0.00  0.00    +0.175 C 
ATOM     33  C   UNL     1      50.356 158.130  30.566  0.00  0.00    +0.040 C 
ATOM     34  C   UNL     1      49.145 158.802  30.681  0.00  0.00    +0.007 C 
ATOM     35  C   UNL     1      48.991 160.075  30.185  0.00  0.00    +0.042 C 
ATOM     36  C   UNL     1      50.085 160.659  29.567  0.00  0.00    +0.007 C 
ATOM     37  C   UNL     1      51.299 160.010  29.442  0.00  0.00    +0.040 C 
BRANCH  35  38
ATOM     38  C   UNL     1      47.715 160.781  30.306  0.00  0.00    +0.234 C 
ATOM     39  O   UNL     1      47.449 161.416  31.374  0.00  0.00    -0.283 OA
ENDBRANCH  35  38
ENDBRANCH  31  32
ENDBRANCH   2  31
TORSDOF 7
