REMARK  Name = =
REMARK  8 active torsions:
REMARK  status: ('A' for Active; 'I' for Inactive)
REMARK    1  A    between atoms: C_1  and  C_3
REMARK    2  A    between atoms: C_1  and  C_20
REMARK    3  A    between atoms: N_2  and  O_30
REMARK    4  A    between atoms: C_15  and  S_17
REMARK    5  A    between atoms: N_22  and  N_23
REMARK    6  A    between atoms: N_26  and  N_27
REMARK    7  A    between atoms: O_30  and  C_31
REMARK    8  A    between atoms: C_34  and  C_37
REMARK                            x       y       z     vdW  Elec       q    Type
REMARK                         _______ _______ _______ _____ _____    ______ ____
ROOT
ATOM      1  C   UNL     1      52.424 155.408  27.448  0.00  0.00    +0.174 C 
ATOM      2  N   UNL     1      51.335 154.983  26.825  0.00  0.00    -0.072 NA
ENDROOT
BRANCH   1   3
ATOM      3  C   UNL     1      53.683 155.034  26.882  0.00  0.00    +0.027 C 
ATOM      4  C   UNL     1      54.175 155.594  25.730  0.00  0.00    +0.004 C 
ATOM      5  C   UNL     1      55.226 155.006  25.071  0.00  0.00    +0.019 C 
ATOM      6  C   UNL     1      55.817 153.837  25.557  0.00  0.00    +0.099 C 
ATOM      7  N   UNL     1      56.845 153.257  24.915  0.00  0.00    -0.241 NA
ATOM      8  C   UNL     1      57.413 152.127  25.396  0.00  0.00    +0.119 C 
ATOM      9  C   UNL     1      56.963 151.532  26.555  0.00  0.00    +0.119 C 
ATOM     10  N   UNL     1      55.935 152.113  27.194  0.00  0.00    -0.241 NA
ATOM     11  C   UNL     1      55.358 153.256  26.710  0.00  0.00    +0.099 C 
ATOM     12  C   UNL     1      54.304 153.845  27.365  0.00  0.00    +0.022 C 
ATOM     13  C   UNL     1      55.748 155.641  23.961  0.00  0.00    +0.002 C 
ATOM     14  C   UNL     1      55.269 156.844  23.485  0.00  0.00    +0.007 C 
ATOM     15  C   UNL     1      54.214 157.459  24.143  0.00  0.00    +0.031 C 
ATOM     16  C   UNL     1      53.699 156.819  25.242  0.00  0.00    +0.007 C 
BRANCH  15  17
ATOM     17  S   UNL     1      53.573 158.996  23.577  0.00  0.00    -0.073 S 
ATOM     18  O   UNL     1      54.630 159.748  22.768  0.00  0.00    -0.170 OA
ATOM     19  C   UNL     1      52.482 158.723  22.447  0.00  0.00    +0.081 C 
ATOM     20  H   UNL     1      53.127 159.660  24.677  0.00  0.00    +0.118 HD
ENDBRANCH  15  17
ENDBRANCH   1   3
BRANCH   1  21
ATOM     21  C   UNL     1      52.154 156.302  28.526  0.00  0.00    +0.282 C 
ATOM     22  O   UNL     1      51.723 155.757  29.642  0.00  0.00    -0.267 OA
ATOM     23  N   UNL     1      52.244 157.703  28.625  0.00  0.00    -0.228 N 
ATOM     24  H   UNL     1      52.534 158.214  27.835  0.00  0.00    +0.173 HD
BRANCH  23  25
ATOM     25  N   UNL     1      51.937 158.404  29.804  0.00  0.00    -0.217 N 
ATOM     26  C   UNL     1      50.623 158.643  30.244  0.00  0.00    +0.332 C 
ATOM     27  O   UNL     1      49.670 158.203  29.539  0.00  0.00    -0.250 OA
ATOM     28  N   UNL     1      50.348 159.361  31.451  0.00  0.00    -0.217 N 
ATOM     29  H   UNL     1      52.681 158.746  30.351  0.00  0.00    +0.174 HD
ATOM     30  H   UNL     1      51.106 159.695  31.984  0.00  0.00    +0.174 HD
BRANCH  28  31
ATOM     31  N   UNL     1      49.057 159.607  31.903  0.00  0.00    -0.225 N 
ATOM     32  C   UNL     1      48.336 160.694  31.359  0.00  0.00    +0.316 C 
ATOM     33  O   UNL     1      48.900 161.394  30.482  0.00  0.00    -0.264 OA
ATOM     34  H   UNL     1      48.651 159.033  32.592  0.00  0.00    +0.173 HD
ENDBRANCH  28  31
ENDBRANCH  23  25
ENDBRANCH   1  21
BRANCH   2  35
ATOM     35  O   UNL     1      51.317 154.236  25.723  0.00  0.00    -0.353 OA
BRANCH  35  36
ATOM     36  C   UNL     1      51.940 153.020  25.671  0.00  0.00    +0.175 C 
ATOM     37  C   UNL     1      52.821 152.759  24.631  0.00  0.00    +0.040 C 
ATOM     38  C   UNL     1      53.469 151.555  24.535  0.00  0.00    +0.007 C 
ATOM     39  C   UNL     1      53.256 150.566  25.481  0.00  0.00    +0.042 C 
ATOM     40  C   UNL     1      52.384 150.827  26.509  0.00  0.00    +0.007 C 
ATOM     41  C   UNL     1      51.715 152.047  26.623  0.00  0.00    +0.040 C 
BRANCH  39  42
ATOM     42  C   UNL     1      53.952 149.291  25.366  0.00  0.00    +0.234 C 
ATOM     43  O   UNL     1      54.600 149.016  24.337  0.00  0.00    -0.283 OA
ENDBRANCH  39  42
ENDBRANCH  35  36
ENDBRANCH   2  35
TORSDOF 8
