MODEL 1
REMARK VINA RESULT:    -6.403      0.000      0.000
REMARK INTER + INTRA:          -9.204
REMARK INTER:                  -8.836
REMARK INTRA:                  -0.368
REMARK UNBOUND:                -0.368
REMARK  Name = =
REMARK  8 active torsions:
REMARK  status: ('A' for Active; 'I' for Inactive)
REMARK    1  A    between atoms: C_4  and  O_20
REMARK    2  A    between atoms: C_6  and  O_19
REMARK    3  A    between atoms: C_10  and  S_21
REMARK    4  A    between atoms: C_11  and  C_12
REMARK    5  A    between atoms: C_15  and  O_18
REMARK    6  A    between atoms: S_21  and  C_22
REMARK    7  A    between atoms: S_21  and  S_28
REMARK    8  A    between atoms: S_28  and  C_31
REMARK                            x       y       z     vdW  Elec       q    Type
REMARK                         _______ _______ _______ _____ _____    ______ ____
ROOT
ATOM      1  O   UNL     1      62.208 162.025  38.454  0.00  0.00    -0.453 OA
ATOM      2  C   UNL     1      63.053 161.693  39.381  0.00  0.00    +0.154 A 
ATOM      3  C   UNL     1      62.576 161.466  40.651  0.00  0.00    +0.108 A 
ATOM      4  C   UNL     1      63.433 161.113  41.662  0.00  0.00    +0.143 C 
ATOM      5  C   UNL     1      64.790 160.986  41.393  0.00  0.00    +0.073 C 
ATOM      6  C   UNL     1      65.304 161.202  40.132  0.00  0.00    +0.140 C 
ATOM      7  C   UNL     1      64.416 161.555  39.144  0.00  0.00    +0.074 C 
ATOM      8  C   UNL     1      61.208 161.606  40.871  0.00  0.00    +0.210 A 
ATOM      9  O   UNL     1      60.822 161.391  42.041  0.00  0.00    -0.286 OA
ATOM     10  C   UNL     1      60.307 161.965  39.850  0.00  0.00    +0.101 A 
ATOM     11  C   UNL     1      60.895 162.172  38.622  0.00  0.00    +0.154 A 
ENDROOT
BRANCH  11  12
ATOM     12  C   UNL     1      60.188 162.562  37.384  0.00  0.00    +0.035 C 
ATOM     13  C   UNL     1      60.271 163.930  37.072  0.00  0.00    +0.006 C 
ATOM     14  C   UNL     1      59.593 164.464  36.012  0.00  0.00    +0.037 C 
ATOM     15  C   UNL     1      58.819 163.622  35.247  0.00  0.00    +0.134 C 
ATOM     16  C   UNL     1      58.727 162.280  35.541  0.00  0.00    +0.037 C 
ATOM     17  C   UNL     1      59.422 161.740  36.629  0.00  0.00    +0.006 C 
BRANCH  15  18
ATOM     18  O   UNL     1      58.139 164.200  34.168  0.00  0.00    -0.506 OA
ATOM     19  H   UNL     1      58.595 164.764  33.574  0.00  0.00    +0.292 HD
ENDBRANCH  15  18
ENDBRANCH  11  12
BRANCH   6  20
ATOM     20  O   UNL     1      66.684 161.065  39.889  0.00  0.00    -0.505 OA
ATOM     21  H   UNL     1      66.990 160.429  39.272  0.00  0.00    +0.292 HD
ENDBRANCH   6  20
BRANCH   4  22
ATOM     22  O   UNL     1      62.955 160.887  42.943  0.00  0.00    -0.505 OA
ATOM     23  H   UNL     1      62.164 161.300  43.228  0.00  0.00    +0.292 HD
ENDBRANCH   4  22
BRANCH  10  24
ATOM     24  S   UNL     1      58.704 162.048  40.063  0.00  0.00    -0.066 S 
ATOM     25  H   UNL     1      58.049 162.326  38.905  0.00  0.00    +0.114 HD
BRANCH  24  26
ATOM     26  C   UNL     1      58.314 160.578  40.718  0.00  0.00    +0.028 C 
ATOM     27  C   UNL     1      58.938 159.436  40.251  0.00  0.00    +0.006 C 
ATOM     28  C   UNL     1      58.668 158.199  40.744  0.00  0.00    +0.001 C 
ATOM     29  C   UNL     1      57.757 157.999  41.740  0.00  0.00    +0.000 C 
ATOM     30  C   UNL     1      57.112 159.093  42.237  0.00  0.00    +0.001 C 
ATOM     31  C   UNL     1      57.400 160.369  41.720  0.00  0.00    +0.006 C 
ENDBRANCH  24  26
BRANCH  24  32
ATOM     32  S   UNL     1      58.294 163.294  41.187  0.00  0.00    +0.037 S 
ATOM     33  O   UNL     1      59.198 164.458  41.056  0.00  0.00    -0.159 OA
ATOM     34  O   UNL     1      58.482 162.926  42.586  0.00  0.00    -0.159 OA
BRANCH  32  35
ATOM     35  C   UNL     1      56.771 163.986  41.177  0.00  0.00    +0.116 C 
ATOM     36  C   UNL     1      55.566 163.392  41.482  0.00  0.00    +0.019 C 
ATOM     37  C   UNL     1      54.395 164.057  41.425  0.00  0.00    +0.001 C 
ATOM     38  C   UNL     1      54.307 165.373  41.061  0.00  0.00    +0.000 C 
ATOM     39  C   UNL     1      55.483 166.011  40.747  0.00  0.00    +0.001 C 
ATOM     40  C   UNL     1      56.677 165.336  40.804  0.00  0.00    +0.019 C 
ENDBRANCH  32  35
ENDBRANCH  24  32
ENDBRANCH  10  24
TORSDOF 8
ENDMDL
