REMARK  Name = =
REMARK  8 active torsions:
REMARK  status: ('A' for Active; 'I' for Inactive)
REMARK    1  A    between atoms: C_1  and  C_2
REMARK    2  A    between atoms: C_1  and  C_8
REMARK    3  A    between atoms: C_1  and  O_18
REMARK    4  A    between atoms: C_8  and  C_10
REMARK    5  A    between atoms: C_10  and  C_13
REMARK    6  A    between atoms: O_18  and  C_19
REMARK    7  A    between atoms: N_21  and  S_22
REMARK    8  A    between atoms: S_22  and  N_25
REMARK                            x       y       z     vdW  Elec       q    Type
REMARK                         _______ _______ _______ _____ _____    ______ ____
ROOT
ATOM      1  C   UNL     1      50.981 158.908  30.566  0.00  0.00    +0.257 C 
ENDROOT
BRANCH   1   2
ATOM      2  C   UNL     1      49.590 159.428  30.711  0.00  0.00    +0.025 C 
ATOM      3  C   UNL     1      48.993 159.472  31.948  0.00  0.00    -0.000 C 
ATOM      4  C   UNL     1      47.707 159.941  32.145  0.00  0.00    -0.000 C 
ATOM      5  C   UNL     1      47.015 160.379  31.021  0.00  0.00    -0.000 C 
ATOM      6  C   UNL     1      47.612 160.337  29.766  0.00  0.00    -0.000 C 
ATOM      7  C   UNL     1      48.895 159.866  29.597  0.00  0.00    -0.000 C 
ENDBRANCH   1   2
BRANCH   1   8
ATOM      8  C   UNL     1      50.989 157.569  29.925  0.00  0.00    +0.259 C 
ATOM      9  O   UNL     1      50.058 156.761  30.196  0.00  0.00    -0.284 OA
BRANCH   8  10
ATOM     10  C   UNL     1      52.018 157.145  28.997  0.00  0.00    +0.269 C 
ATOM     11  O   UNL     1      52.908 157.948  28.650  0.00  0.00    -0.280 OA
BRANCH  10  13
ATOM     12  N   UNL     1      51.156 154.830  28.795  0.00  0.00    -0.202 NA
ATOM     13  C   UNL     1      52.024 155.810  28.469  0.00  0.00    +0.208 C 
ATOM     14  N   UNL     1      52.958 155.477  27.559  0.00  0.00    -0.202 NA
ATOM     15  C   UNL     1      53.076 154.288  26.982  0.00  0.00    +0.202 C 
ATOM     16  N   UNL     1      52.207 153.320  27.314  0.00  0.00    -0.202 NA
ATOM     17  C   UNL     1      51.241 153.614  28.235  0.00  0.00    +0.202 C 
ENDBRANCH  10  13
ENDBRANCH   8  10
ENDBRANCH   1   8
BRANCH   1  18
ATOM     18  O   UNL     1      51.747 159.846  29.860  0.00  0.00    -0.425 OA
BRANCH  18  19
ATOM     19  C   UNL     1      52.535 160.789  30.520  0.00  0.00    +0.422 C 
ATOM     20  O   UNL     1      52.505 160.793  31.751  0.00  0.00    -0.225 OA
ATOM     21  N   UNL     1      53.349 161.714  29.833  0.00  0.00    -0.141 N 
ATOM     22  H   UNL     1      53.342 161.665  28.850  0.00  0.00    +0.181 HD
BRANCH  21  23
ATOM     23  S   UNL     1      54.344 162.909  30.534  0.00  0.00    +0.118 S 
ATOM     24  O   UNL     1      53.622 164.250  30.612  0.00  0.00    -0.138 OA
ATOM     25  O   UNL     1      55.476 163.171  29.537  0.00  0.00    -0.138 OA
BRANCH  23  26
ATOM     26  N   UNL     1      55.040 162.525  32.027  0.00  0.00    -0.138 NA
ATOM     27  C   UNL     1      55.773 161.288  32.067  0.00  0.00    +0.129 C 
ATOM     28  C   UNL     1      57.260 161.587  32.223  0.00  0.00    +0.161 C 
ATOM     29  O   UNL     1      57.453 162.168  33.461  0.00  0.00    -0.351 OA
ATOM     30  C   UNL     1      56.590 163.192  33.757  0.00  0.00    +0.161 C 
ATOM     31  C   UNL     1      55.814 163.623  32.521  0.00  0.00    +0.129 C 
ENDBRANCH  23  26
ENDBRANCH  21  23
ENDBRANCH  18  19
ENDBRANCH   1  18
TORSDOF 8
