REMARK  Name = =
REMARK  9 active torsions:
REMARK  status: ('A' for Active; 'I' for Inactive)
REMARK    1  A    between atoms: O_2  and  C_3
REMARK    2  A    between atoms: C_3  and  N_5
REMARK    3  A    between atoms: N_5  and  N_6
REMARK    4  A    between atoms: N_5  and  N_9
REMARK    5  A    between atoms: N_9  and  O_10
REMARK    6  A    between atoms: C_13  and  O_16
REMARK    7  A    between atoms: N_14  and  O_15
REMARK    8  A    between atoms: O_16  and  C_17
REMARK    9  A    between atoms: C_17  and  O_19
REMARK                            x       y       z     vdW  Elec       q    Type
REMARK                         _______ _______ _______ _____ _____    ______ ____
ROOT
ATOM      1  P   UNL     1      50.281 159.322  31.008  0.00  0.00    +0.000 P 
ENDROOT
TORSDOF 0
REMARK  Name = =
REMARK  9 active torsions:
REMARK  status: ('A' for Active; 'I' for Inactive)
REMARK    1  A    between atoms: O_2  and  C_3
REMARK    2  A    between atoms: C_3  and  N_5
REMARK    3  A    between atoms: N_5  and  N_6
REMARK    4  A    between atoms: N_5  and  N_9
REMARK    5  A    between atoms: N_9  and  O_10
REMARK    6  A    between atoms: C_13  and  O_16
REMARK    7  A    between atoms: N_14  and  O_15
REMARK    8  A    between atoms: O_16  and  C_17
REMARK    9  A    between atoms: C_17  and  O_19
REMARK                            x       y       z     vdW  Elec       q    Type
REMARK                         _______ _______ _______ _____ _____    ______ ____
ROOT
ATOM      1  N   UNL     1      50.605 157.027  29.739  0.00  0.00    -0.101 NA
ENDROOT
BRANCH   1   2
ATOM      2  N   UNL     1      51.202 157.025  28.473  0.00  0.00    -0.223 N 
ATOM      3  C   UNL     1      52.591 157.257  28.279  0.00  0.00    +0.315 C 
ATOM      4  O   UNL     1      53.344 157.477  29.258  0.00  0.00    -0.264 OA
ATOM      5  H   UNL     1      50.637 156.856  27.685  0.00  0.00    +0.171 HD
ENDBRANCH   1   2
BRANCH   1   6
ATOM      6  C   UNL     1      49.664 158.097  30.061  0.00  0.00    +0.205 C 
ATOM      7  C   UNL     1      48.463 157.877  29.548  0.00  0.00    +0.054 C 
BRANCH   6   8
ATOM      8  O   UNL     1      51.183 159.155  29.807  0.00  0.00    -0.368 OA
ATOM      9  H   UNL     1      50.955 160.087  29.949  0.00  0.00    +0.212 HD
ENDBRANCH   6   8
ENDBRANCH   1   6
BRANCH   1  10
ATOM     10  N   UNL     1      50.898 156.051  30.673  0.00  0.00    -0.116 NA
ATOM     11  H   UNL     1      50.032 155.667  31.051  0.00  0.00    +0.175 HD
BRANCH  10  12
ATOM     12  O   UNL     1      51.601 155.075  30.076  0.00  0.00    -0.299 OA
ATOM     13  H   UNL     1      52.424 155.442  29.718  0.00  0.00    +0.238 HD
ENDBRANCH  10  12
ENDBRANCH   1  10
TORSDOF 5
REMARK  Name = =
REMARK  9 active torsions:
REMARK  status: ('A' for Active; 'I' for Inactive)
REMARK    1  A    between atoms: O_2  and  C_3
REMARK    2  A    between atoms: C_3  and  N_5
REMARK    3  A    between atoms: N_5  and  N_6
REMARK    4  A    between atoms: N_5  and  N_9
REMARK    5  A    between atoms: N_9  and  O_10
REMARK    6  A    between atoms: C_13  and  O_16
REMARK    7  A    between atoms: N_14  and  O_15
REMARK    8  A    between atoms: O_16  and  C_17
REMARK    9  A    between atoms: C_17  and  O_19
REMARK                            x       y       z     vdW  Elec       q    Type
REMARK                         _______ _______ _______ _____ _____    ______ ____
ROOT
ATOM      1  O   HOH     1      48.790 160.124  31.317  0.00  0.00    -0.253 OA
ATOM      2  H   HOH     0      49.760 160.124  31.317  0.00  0.00    +0.253 HD
ENDROOT
TORSDOF 0
REMARK  Name = =
REMARK  9 active torsions:
REMARK  status: ('A' for Active; 'I' for Inactive)
REMARK    1  A    between atoms: O_2  and  C_3
REMARK    2  A    between atoms: C_3  and  N_5
REMARK    3  A    between atoms: N_5  and  N_6
REMARK    4  A    between atoms: N_5  and  N_9
REMARK    5  A    between atoms: N_9  and  O_10
REMARK    6  A    between atoms: C_13  and  O_16
REMARK    7  A    between atoms: N_14  and  O_15
REMARK    8  A    between atoms: O_16  and  C_17
REMARK    9  A    between atoms: C_17  and  O_19
REMARK                            x       y       z     vdW  Elec       q    Type
REMARK                         _______ _______ _______ _____ _____    ______ ____
ROOT
ATOM      1  O   HOH     1      49.478 158.980  32.494  0.00  0.00    -0.253 OA
ATOM      2  H   HOH     0      50.448 158.980  32.494  0.00  0.00    +0.253 HD
ENDROOT
TORSDOF 0
REMARK  Name = =
REMARK  9 active torsions:
REMARK  status: ('A' for Active; 'I' for Inactive)
REMARK    1  A    between atoms: O_2  and  C_3
REMARK    2  A    between atoms: C_3  and  N_5
REMARK    3  A    between atoms: N_5  and  N_6
REMARK    4  A    between atoms: N_5  and  N_9
REMARK    5  A    between atoms: N_9  and  O_10
REMARK    6  A    between atoms: C_13  and  O_16
REMARK    7  A    between atoms: N_14  and  O_15
REMARK    8  A    between atoms: O_16  and  C_17
REMARK    9  A    between atoms: C_17  and  O_19
REMARK                            x       y       z     vdW  Elec       q    Type
REMARK                         _______ _______ _______ _____ _____    ______ ____
ROOT
ATOM      1  O   UNL     1      52.145 161.259  30.297  0.00  0.00    -0.368 OA
ENDROOT
BRANCH   1   2
ATOM      2  C   UNL     1      51.092 160.856  31.121  0.00  0.00    +0.327 C 
ATOM      3  N   UNL     1      50.656 161.563  31.994  0.00  0.00    -0.042 NA
BRANCH   3   4
ATOM      4  O   UNL     1      50.626 162.620  32.669  0.00  0.00    -0.406 OA
ATOM      5  H   UNL     1      50.001 162.717  33.361  0.00  0.00    +0.328 HD
ENDBRANCH   3   4
ENDBRANCH   1   2
BRANCH   1   6
ATOM      6  C   UNL     1      53.262 161.896  30.725  0.00  0.00    +0.515 C 
ATOM      7  O   UNL     1      53.178 162.885  31.481  0.00  0.00    -0.203 OA
BRANCH   6   8
ATOM      8  O   UNL     1      54.558 161.520  30.372  0.00  0.00    -0.449 OA
ATOM      9  H   UNL     1      55.292 162.001  30.701  0.00  0.00    +0.299 HD
ENDBRANCH   6   8
ENDBRANCH   1   6
TORSDOF 4
