REMARK  Name = =
REMARK  5 active torsions:
REMARK  status: ('A' for Active; 'I' for Inactive)
REMARK    1  A    between atoms: O_2  and  O_19
REMARK    2  A    between atoms: C_3  and  C_14
REMARK    3  A    between atoms: O_19  and  O_20
REMARK    4  A    between atoms: O_20  and  C_21
REMARK    5  A    between atoms: C_24  and  C_27
REMARK                            x       y       z     vdW  Elec       q    Type
REMARK                         _______ _______ _______ _____ _____    ______ ____
ROOT
ATOM      1  P   UNL     1      52.787 156.702  28.116  0.00  0.00    +0.000 P 
ENDROOT
TORSDOF 0
REMARK  Name = =
REMARK  5 active torsions:
REMARK  status: ('A' for Active; 'I' for Inactive)
REMARK    1  A    between atoms: O_2  and  O_19
REMARK    2  A    between atoms: C_3  and  C_14
REMARK    3  A    between atoms: O_19  and  O_20
REMARK    4  A    between atoms: O_20  and  C_21
REMARK    5  A    between atoms: C_24  and  C_27
REMARK                            x       y       z     vdW  Elec       q    Type
REMARK                         _______ _______ _______ _____ _____    ______ ____
ROOT
ATOM      1  C   UNL     1      50.508 158.600  30.440  0.00  0.00    +0.186 C 
ATOM      2  C   UNL     1      51.005 159.709  31.087  0.00  0.00    +0.041 C 
ATOM      3  C   UNL     1      50.153 160.732  31.531  0.00  0.00    +0.003 C 
ATOM      4  C   UNL     1      48.798 160.669  31.338  0.00  0.00    +0.000 C 
ATOM      5  C   UNL     1      48.294 159.548  30.684  0.00  0.00    +0.003 C 
ATOM      6  C   UNL     1      49.143 158.554  30.255  0.00  0.00    +0.041 C 
ENDROOT
BRANCH   4   7
ATOM      7  C   UNL     1      47.896 161.731  31.798  0.00  0.00    +0.000 C 
ATOM      8  C   UNL     1      48.282 162.770  32.492  0.00  0.00    +0.000 C 
ENDBRANCH   4   7
BRANCH   1   9
ATOM      9  O   UNL     1      51.328 157.573  29.990  0.00  0.00    -0.306 OA
BRANCH   9  10
ATOM     10  O   UNL     1      51.383 157.233  28.709  0.00  0.00    -0.015 OA
BRANCH  10  11
ATOM     11  O   UNL     1      51.750 157.727  27.696  0.00  0.00    -0.210 OA
ATOM     12  H   UNL     1      51.602 157.109  26.963  0.00  0.00    +0.257 HD
ENDBRANCH  10  11
ENDBRANCH   9  10
ENDBRANCH   1   9
TORSDOF 4
REMARK  Name = =
REMARK  5 active torsions:
REMARK  status: ('A' for Active; 'I' for Inactive)
REMARK    1  A    between atoms: O_2  and  O_19
REMARK    2  A    between atoms: C_3  and  C_14
REMARK    3  A    between atoms: O_19  and  O_20
REMARK    4  A    between atoms: O_20  and  C_21
REMARK    5  A    between atoms: C_24  and  C_27
REMARK                            x       y       z     vdW  Elec       q    Type
REMARK                         _______ _______ _______ _____ _____    ______ ____
ROOT
ATOM      1  C   UNL     1      52.722 154.081  27.311  0.00  0.00    +0.094 C 
ATOM      2  C   UNL     1      53.096 155.393  26.977  0.00  0.00    +0.011 C 
ATOM      3  C   UNL     1      53.739 155.613  25.798  0.00  0.00    +0.035 C 
ATOM      4  C   UNL     1      53.999 154.530  24.981  0.00  0.00    +0.149 C 
ATOM      5  C   UNL     1      54.654 154.777  23.785  0.00  0.00    +0.038 C 
ATOM      6  C   UNL     1      55.037 156.021  23.400  0.00  0.00    +0.003 C 
ATOM      7  C   UNL     1      54.766 157.082  24.228  0.00  0.00    +0.000 C 
ATOM      8  C   UNL     1      54.110 156.868  25.436  0.00  0.00    +0.003 C 
ATOM      9  O   UNL     1      53.662 153.309  25.278  0.00  0.00    -0.421 OA
ATOM     10  C   UNL     1      53.033 153.092  26.425  0.00  0.00    +0.347 C 
ATOM     11  O   UNL     1      52.733 151.898  26.654  0.00  0.00    -0.244 OA
ENDROOT
BRANCH   1  12
ATOM     12  C   UNL     1      52.016 153.799  28.542  0.00  0.00    +0.095 C 
ATOM     13  N   UNL     1      51.786 152.659  29.003  0.00  0.00    -0.297 NA
ATOM     14  H   UNL     1      51.296 152.561  29.851  0.00  0.00    +0.187 HD
ENDBRANCH   1  12
TORSDOF 1
REMARK  Name = =
REMARK  5 active torsions:
REMARK  status: ('A' for Active; 'I' for Inactive)
REMARK    1  A    between atoms: O_2  and  O_19
REMARK    2  A    between atoms: C_3  and  C_14
REMARK    3  A    between atoms: O_19  and  O_20
REMARK    4  A    between atoms: O_20  and  C_21
REMARK    5  A    between atoms: C_24  and  C_27
REMARK                            x       y       z     vdW  Elec       q    Type
REMARK                         _______ _______ _______ _____ _____    ______ ____
ROOT
ATOM      1  O   HOH     1      53.495 156.459  29.623  0.00  0.00    -0.253 OA
ATOM      2  H   HOH     0      54.465 156.459  29.623  0.00  0.00    +0.253 HD
ENDROOT
TORSDOF 0
REMARK  Name = =
REMARK  5 active torsions:
REMARK  status: ('A' for Active; 'I' for Inactive)
REMARK    1  A    between atoms: O_2  and  O_19
REMARK    2  A    between atoms: C_3  and  C_14
REMARK    3  A    between atoms: O_19  and  O_20
REMARK    4  A    between atoms: O_20  and  C_21
REMARK    5  A    between atoms: C_24  and  C_27
REMARK                            x       y       z     vdW  Elec       q    Type
REMARK                         _______ _______ _______ _____ _____    ______ ____
ROOT
ATOM      1  C   UNL     1      54.187 157.836  28.074  0.00  0.00    +0.000 C 
ATOM      2  C   UNL     1      54.434 158.753  28.962  0.00  0.00    +0.000 C 
ENDROOT
TORSDOF 0
