REMARK  Name = =
REMARK  7 active torsions:
REMARK  status: ('A' for Active; 'I' for Inactive)
REMARK    1  A    between atoms: N_1  and  S_14
REMARK    2  A    between atoms: N_1  and  O_27
REMARK    3  A    between atoms: C_4  and  O_30
REMARK    4  A    between atoms: S_14  and  C_17
REMARK    5  A    between atoms: O_27  and  C_28
REMARK    6  A    between atoms: O_30  and  N_31
REMARK    7  A    between atoms: N_31  and  N_34
REMARK                            x       y       z     vdW  Elec       q    Type
REMARK                         _______ _______ _______ _____ _____    ______ ____
ROOT
ATOM      1  N   UNL     1      59.782 166.997  40.415  0.00  0.00    -0.050 N 
ATOM      2  C   UNL     1      60.957 167.508  39.785  0.00  0.00    +0.199 C 
ATOM      3  N   UNL     1      61.254 167.036  38.644  0.00  0.00    -0.212 NA
ATOM      4  C   UNL     1      62.253 167.185  37.644  0.00  0.00    +0.324 C 
ATOM      5  C   UNL     1      63.394 168.026  37.969  0.00  0.00    +0.280 C 
ATOM      6  O   UNL     1      64.208 168.250  37.022  0.00  0.00    -0.270 OA
ATOM      7  N   UNL     1      63.807 168.676  39.176  0.00  0.00    -0.280 N 
ATOM      8  C   UNL     1      62.954 169.035  40.258  0.00  0.00    +0.053 C 
ATOM      9  C   UNL     1      61.683 168.505  40.511  0.00  0.00    +0.052 C 
ATOM     10  C   UNL     1      61.032 169.007  41.617  0.00  0.00    +0.004 C 
ATOM     11  C   UNL     1      61.607 169.984  42.431  0.00  0.00    +0.000 C 
ATOM     12  C   UNL     1      62.850 170.481  42.159  0.00  0.00    +0.001 C 
ATOM     13  C   UNL     1      63.516 169.998  41.066  0.00  0.00    +0.015 C 
ATOM     14  H   UNL     1      64.763 168.893  39.265  0.00  0.00    +0.155 HD
ENDROOT
BRANCH   1  15
ATOM     15  S   UNL     1      59.947 165.862  41.701  0.00  0.00    +0.130 S 
ATOM     16  O   UNL     1      59.596 166.617  42.971  0.00  0.00    -0.144 OA
ATOM     17  O   UNL     1      61.326 165.341  41.786  0.00  0.00    -0.144 OA
BRANCH  15  18
ATOM     18  C   UNL     1      58.775 164.580  41.556  0.00  0.00    +0.214 C 
ATOM     19  C   UNL     1      59.018 163.466  40.814  0.00  0.00    +0.055 C 
ATOM     20  C   UNL     1      58.092 162.438  40.727  0.00  0.00    +0.086 C 
ATOM     21  N   UNL     1      56.919 162.579  41.416  0.00  0.00    -0.224 NA
ATOM     22  C   UNL     1      56.702 163.685  42.141  0.00  0.00    +0.200 C 
ATOM     23  N   UNL     1      57.589 164.660  42.219  0.00  0.00    -0.203 NA
ATOM     24  C   UNL     1      58.274 161.287  39.978  0.00  0.00    +0.019 C 
ATOM     25  C   UNL     1      59.459 161.178  39.281  0.00  0.00    +0.002 C 
ATOM     26  C   UNL     1      60.414 162.162  39.325  0.00  0.00    +0.000 C 
ATOM     27  C   UNL     1      60.202 163.306  40.086  0.00  0.00    +0.004 C 
ENDBRANCH  15  18
ENDBRANCH   1  15
BRANCH   1  28
ATOM     28  O   UNL     1      58.583 167.380  39.981  0.00  0.00    -0.350 OA
BRANCH  28  29
ATOM     29  C   UNL     1      57.675 168.262  40.483  0.00  0.00    +0.212 C 
ATOM     30  C   UNL     1      56.652 167.974  41.223  0.00  0.00    +0.047 C 
ENDBRANCH  28  29
ENDBRANCH   1  28
BRANCH   4  31
ATOM     31  O   UNL     1      61.663 167.501  36.418  0.00  0.00    -0.213 OA
BRANCH  31  32
ATOM     32  N   UNL     1      61.712 166.522  35.516  0.00  0.00    -0.078 N 
ATOM     33  C   UNL     1      62.758 166.276  34.605  0.00  0.00    +0.345 C 
ATOM     34  O   UNL     1      62.695 165.332  33.793  0.00  0.00    -0.261 OA
BRANCH  32  35
ATOM     35  N   UNL     1      60.597 165.646  35.476  0.00  0.00    -0.191 N 
ATOM     36  C   UNL     1      60.598 164.379  36.115  0.00  0.00    +0.315 C 
ATOM     37  O   UNL     1      61.664 164.049  36.744  0.00  0.00    -0.251 OA
ATOM     38  N   UNL     1      59.486 163.494  36.080  0.00  0.00    -0.312 N 
ATOM     39  H   UNL     1      59.791 165.928  34.986  0.00  0.00    +0.177 HD
ATOM     40  H   UNL     1      58.668 163.750  35.596  0.00  0.00    +0.147 HD
ATOM     41  H   UNL     1      59.534 162.625  36.540  0.00  0.00    +0.147 HD
ENDBRANCH  32  35
ENDBRANCH  31  32
ENDBRANCH   4  31
TORSDOF 7
