REMARK  Name = =
REMARK  0 active torsions:
REMARK  status: ('A' for Active; 'I' for Inactive)
REMARK                            x       y       z     vdW  Elec       q    Type
REMARK                         _______ _______ _______ _____ _____    ______ ____
ROOT
ATOM      1  C   UNL     1      52.228 156.231  28.108  0.00  0.00    +0.102 C 
ATOM      2  N   UNL     1      51.720 155.738  29.266  0.00  0.00    -0.222 NA
ATOM      3  C   UNL     1      51.694 154.413  29.500  0.00  0.00    +0.199 C 
ATOM      4  N   UNL     1      52.189 153.607  28.543  0.00  0.00    -0.222 NA
ATOM      5  C   UNL     1      52.697 154.043  27.393  0.00  0.00    +0.104 C 
ATOM      6  C   UNL     1      53.203 153.208  26.415  0.00  0.00    +0.118 C 
ATOM      7  N   UNL     1      53.714 153.682  25.252  0.00  0.00    -0.241 NA
ATOM      8  C   UNL     1      53.758 154.998  24.981  0.00  0.00    +0.099 C 
ATOM      9  C   UNL     1      53.258 155.867  25.939  0.00  0.00    +0.024 C 
ATOM     10  C   UNL     1      52.734 155.400  27.130  0.00  0.00    +0.040 C 
ENDROOT
TORSDOF 0
