REMARK  Name = =
REMARK  2 active torsions:
REMARK  status: ('A' for Active; 'I' for Inactive)
REMARK    1  A    between atoms: C_1  and  C_11
REMARK    2  A    between atoms: C_11  and  N_12
REMARK                            x       y       z     vdW  Elec       q    Type
REMARK                         _______ _______ _______ _____ _____    ______ ____
ROOT
ATOM      1  C   UNL     1      52.392 155.589  27.834  0.00  0.00    +0.080 C 
ATOM      2  N   UNL     1      51.784 154.777  28.717  0.00  0.00    -0.227 NA
ATOM      3  C   UNL     1      51.706 153.460  28.457  0.00  0.00    +0.199 C 
ATOM      4  N   UNL     1      52.217 152.913  27.341  0.00  0.00    -0.222 NA
ATOM      5  C   UNL     1      52.831 153.732  26.446  0.00  0.00    +0.103 C 
ATOM      6  C   UNL     1      53.379 153.241  25.277  0.00  0.00    +0.118 C 
ATOM      7  N   UNL     1      53.982 154.090  24.416  0.00  0.00    -0.241 NA
ATOM      8  C   UNL     1      54.071 155.419  24.657  0.00  0.00    +0.099 C 
ATOM      9  C   UNL     1      53.543 155.972  25.810  0.00  0.00    +0.023 C 
ATOM     10  C   UNL     1      52.935 155.089  26.670  0.00  0.00    +0.036 C 
ENDROOT
BRANCH   1  11
ATOM     11  C   UNL     1      52.488 157.022  28.095  0.00  0.00    +0.134 C 
BRANCH  11  12
ATOM     12  N   UNL     1      52.160 157.261  29.490  0.00  0.00    -0.210 NA
ATOM     13  C   UNL     1      51.805 158.685  29.586  0.00  0.00    +0.108 C 
ENDBRANCH  11  12
ENDBRANCH   1  11
TORSDOF 2
