REMARK  Name = =
REMARK  1 active torsions:
REMARK  status: ('A' for Active; 'I' for Inactive)
REMARK    1  A    between atoms: C_7  and  C_10
REMARK                            x       y       z     vdW  Elec       q    Type
REMARK                         _______ _______ _______ _____ _____    ______ ____
ROOT
ATOM      1  S   UNL     1      -0.600  -7.301  33.629  0.00  0.00    -0.114 S 
ATOM      2  C   UNL     1      -0.953  -8.293  32.209  0.00  0.00    +0.086 C 
ATOM      3  C   UNL     1      -0.046  -8.199  31.072  0.00  0.00    +0.001 C 
ATOM      4  C   UNL     1       1.026  -7.431  30.974  0.00  0.00    +0.060 C 
ATOM      5  N   UNL     1       1.421  -6.575  32.025  0.00  0.00    -0.275 N 
ATOM      6  C   UNL     1       0.529  -6.027  33.016  0.00  0.00    +0.147 C 
ATOM      7  C   UNL     1       1.756  -6.023  33.934  0.00  0.00    +0.100 C 
ATOM      8  C   UNL     1       2.456  -5.892  32.660  0.00  0.00    +0.215 C 
ATOM      9  O   UNL     1       3.535  -5.395  32.226  0.00  0.00    -0.202 OA
ENDROOT
BRANCH   7  10
ATOM     10  C   UNL     1       1.825  -4.840  34.863  0.00  0.00    +0.125 C 
ATOM     11  N   UNL     1       2.574  -3.746  34.337  0.00  0.00    -0.268 N 
ATOM     12  C   UNL     1       3.899  -3.868  34.841  0.00  0.00    +0.402 C 
ATOM     13  O   UNL     1       4.857  -3.102  34.560  0.00  0.00    -0.226 OA
ATOM     14  O   UNL     1       3.980  -4.971  35.698  0.00  0.00    -0.433 OA
ATOM     15  C   UNL     1       2.636  -5.267  36.071  0.00  0.00    +0.230 C 
ATOM     16  H   UNL     1       2.238  -3.040  33.739  0.00  0.00    +0.153 HD
ENDBRANCH   7  10
TORSDOF 1
