REMARK  Name = =
REMARK  2 active torsions:
REMARK  status: ('A' for Active; 'I' for Inactive)
REMARK    1  A    between atoms: S_1  and  C_11
REMARK    2  A    between atoms: C_7  and  C_19
REMARK                            x       y       z     vdW  Elec       q    Type
REMARK                         _______ _______ _______ _____ _____    ______ ____
ROOT
ATOM      1  S   UNL     1      -8.624  -1.925  22.447  0.00  0.00    -0.082 S 
ATOM      2  C   UNL     1      -9.121  -3.605  22.175  0.00  0.00    +0.085 C 
ATOM      3  C   UNL     1      -8.036  -4.516  21.898  0.00  0.00    +0.001 C 
ATOM      4  C   UNL     1      -6.887  -4.149  21.434  0.00  0.00    +0.064 C 
ATOM      5  N   UNL     1      -6.563  -2.803  21.144  0.00  0.00    -0.250 N 
ATOM      6  C   UNL     1      -7.422  -1.688  21.479  0.00  0.00    +0.138 C 
ATOM      7  C   UNL     1      -6.246  -0.827  21.520  0.00  0.00    +0.127 C 
ATOM      8  C   UNL     1      -5.664  -1.828  20.593  0.00  0.00    +0.234 C 
ATOM      9  O   UNL     1      -4.775  -1.778  19.729  0.00  0.00    -0.274 OA
ENDROOT
BRANCH   1  10
ATOM     10  C   UNL     1     -10.015  -0.790  22.591  0.00  0.00    +0.269 C 
ATOM     11  O   UNL     1     -10.471  -0.433  23.708  0.00  0.00    -0.263 OA
ATOM     12  N   UNL     1     -10.616  -0.285  21.418  0.00  0.00    -0.269 N 
ATOM     13  C   UNL     1     -11.718   0.611  21.513  0.00  0.00    +0.113 C 
ATOM     14  C   UNL     1     -11.662   1.739  20.518  0.00  0.00    +0.110 C 
ATOM     15  N   UNL     1     -11.128   1.378  19.238  0.00  0.00    -0.214 NA
ATOM     16  C   UNL     1     -10.967  -0.027  19.022  0.00  0.00    +0.110 C 
ATOM     17  C   UNL     1     -10.126  -0.667  20.131  0.00  0.00    +0.113 C 
ENDBRANCH   1  10
BRANCH   7  18
ATOM     18  C   UNL     1      -5.490  -0.611  22.792  0.00  0.00    +0.130 C 
ATOM     19  N   UNL     1      -6.001   0.658  23.350  0.00  0.00    -0.268 N 
ATOM     20  C   UNL     1      -5.184   1.676  22.782  0.00  0.00    +0.402 C 
ATOM     21  O   UNL     1      -5.389   2.927  22.744  0.00  0.00    -0.226 OA
ATOM     22  O   UNL     1      -4.026   1.119  22.215  0.00  0.00    -0.433 OA
ATOM     23  C   UNL     1      -4.050  -0.247  22.627  0.00  0.00    +0.230 C 
ATOM     24  H   UNL     1      -6.748   0.775  23.981  0.00  0.00    +0.153 HD
ENDBRANCH   7  18
TORSDOF 2
REMARK  Name = =
REMARK  2 active torsions:
REMARK  status: ('A' for Active; 'I' for Inactive)
REMARK    1  A    between atoms: S_1  and  C_11
REMARK    2  A    between atoms: C_7  and  C_19
REMARK                            x       y       z     vdW  Elec       q    Type
REMARK                         _______ _______ _______ _____ _____    ______ ____
ROOT
ATOM      1  H   UNK     1      -8.002  -1.930  24.170  0.00  0.00    +0.000 HD
ENDROOT
TORSDOF 0
