REMARK  Name = =
REMARK  4 active torsions:
REMARK  status: ('A' for Active; 'I' for Inactive)
REMARK    1  A    between atoms: S_1  and  C_11
REMARK    2  A    between atoms: C_4  and  N_21
REMARK    3  A    between atoms: C_7  and  C_28
REMARK    4  A    between atoms: C_17  and  P_19
REMARK                            x       y       z     vdW  Elec       q    Type
REMARK                         _______ _______ _______ _____ _____    ______ ____
ROOT
ATOM      1  S   UNL     1      -8.698  -1.980  22.334  0.00  0.00    -0.081 S 
ATOM      2  C   UNL     1      -8.000  -0.739  23.419  0.00  0.00    +0.087 C 
ATOM      3  C   UNL     1      -9.045  -0.264  24.341  0.00  0.00    +0.016 C 
ATOM      4  C   UNL     1     -10.006  -1.032  24.795  0.00  0.00    +0.104 C 
ATOM      5  N   UNL     1     -10.161  -2.397  24.452  0.00  0.00    -0.264 N 
ATOM      6  C   UNL     1      -9.361  -3.028  23.399  0.00  0.00    +0.148 C 
ATOM      7  C   UNL     1     -10.567  -3.857  23.142  0.00  0.00    +0.100 C 
ATOM      8  C   UNL     1     -10.768  -3.664  24.602  0.00  0.00    +0.215 C 
ATOM      9  O   UNL     1     -11.268  -4.378  25.486  0.00  0.00    -0.202 OA
ENDROOT
BRANCH   1  10
ATOM     10  C   UNL     1      -7.820  -2.508  20.922  0.00  0.00    +0.269 C 
ATOM     11  O   UNL     1      -7.503  -3.755  20.957  0.00  0.00    -0.263 OA
ATOM     12  N   UNL     1      -7.454  -1.727  19.817  0.00  0.00    -0.268 N 
ATOM     13  C   UNL     1      -7.763  -0.318  19.683  0.00  0.00    +0.113 C 
ATOM     14  C   UNL     1      -6.694   0.300  18.781  0.00  0.00    +0.111 C 
ATOM     15  N   UNL     1      -6.710  -0.266  17.459  0.00  0.00    -0.208 NA
ATOM     16  C   UNL     1      -7.047  -1.656  17.422  0.00  0.00    +0.158 C 
ATOM     17  C   UNL     1      -6.721  -2.337  18.727  0.00  0.00    +0.120 C 
BRANCH  16  18
ATOM     18  P   UNL     1      -8.849  -1.872  17.003  0.00  0.00    +0.240 P 
ATOM     19  O   UNL     1      -9.688  -0.691  16.428  0.00  0.00    -0.303 OA
ENDBRANCH  16  18
ENDBRANCH   1  10
BRANCH   4  20
ATOM     20  N   UNL     1     -10.982  -0.489  25.691  0.00  0.00    -0.247 N 
ATOM     21  C   UNL     1     -12.341  -0.326  25.302  0.00  0.00    +0.230 C 
ATOM     22  O   UNL     1     -12.591  -0.251  24.071  0.00  0.00    -0.275 OA
ATOM     23  C   UNL     1     -13.346  -0.258  26.368  0.00  0.00    +0.086 C 
ATOM     24  C   UNL     1     -12.944   0.772  27.370  0.00  0.00    +0.011 C 
ATOM     25  C   UNL     1     -11.495   1.104  27.387  0.00  0.00    +0.022 C 
ATOM     26  C   UNL     1     -10.604  -0.083  27.046  0.00  0.00    +0.099 C 
ENDBRANCH   4  20
BRANCH   7  27
ATOM     27  C   UNL     1     -10.311  -5.291  22.737  0.00  0.00    +0.125 C 
ATOM     28  N   UNL     1     -11.332  -6.180  23.249  0.00  0.00    -0.268 N 
ATOM     29  C   UNL     1     -11.571  -7.136  22.224  0.00  0.00    +0.402 C 
ATOM     30  O   UNL     1     -12.259  -8.176  22.273  0.00  0.00    -0.226 OA
ATOM     31  O   UNL     1     -10.885  -6.733  21.064  0.00  0.00    -0.433 OA
ATOM     32  C   UNL     1     -10.558  -5.381  21.240  0.00  0.00    +0.230 C 
ATOM     33  H   UNL     1     -11.772  -6.132  24.129  0.00  0.00    +0.153 HD
ENDBRANCH   7  27
TORSDOF 4
REMARK  Name = =
REMARK  4 active torsions:
REMARK  status: ('A' for Active; 'I' for Inactive)
REMARK    1  A    between atoms: S_1  and  C_11
REMARK    2  A    between atoms: C_4  and  N_21
REMARK    3  A    between atoms: C_7  and  C_28
REMARK    4  A    between atoms: C_17  and  P_19
REMARK                            x       y       z     vdW  Elec       q    Type
REMARK                         _______ _______ _______ _____ _____    ______ ____
ROOT
ATOM      1  H   UNK     1     -10.054  -0.971  21.574  0.00  0.00    +0.000 HD
ENDROOT
TORSDOF 0
