MODEL 1
REMARK VINA RESULT:    -9.272      0.000      0.000
REMARK INTER + INTRA:         -15.272
REMARK INTER:                 -13.337
REMARK INTRA:                  -1.935
REMARK UNBOUND:                -1.935
REMARK  Name = =
REMARK  8 active torsions:
REMARK  status: ('A' for Active; 'I' for Inactive)
REMARK    1  A    between atoms: C_1  and  S_35
REMARK    2  A    between atoms: C_6  and  C_15
REMARK    3  A    between atoms: C_11  and  O_20
REMARK    4  A    between atoms: O_20  and  C_21
REMARK    5  A    between atoms: C_21  and  C_23
REMARK    6  A    between atoms: C_24  and  C_29
REMARK    7  A    between atoms: C_32  and  O_34
REMARK    8  A    between atoms: S_35  and  C_36
REMARK                            x       y       z     vdW  Elec       q    Type
REMARK                         _______ _______ _______ _____ _____    ______ ____
ROOT
ATOM      1  C   UNL     1       1.236  -6.261  27.461  0.00  0.00    +0.033 C 
ATOM      2  C   UNL     1       0.383  -5.692  28.386  0.00  0.00    +0.021 C 
ATOM      3  C   UNL     1      -0.469  -6.470  29.182  0.00  0.00    +0.055 C 
ATOM      4  C   UNL     1      -0.395  -7.823  28.978  0.00  0.00    +0.043 C 
ATOM      5  C   UNL     1       0.454  -8.385  28.060  0.00  0.00    +0.006 C 
ATOM      6  C   UNL     1       1.300  -7.621  27.270  0.00  0.00    +0.012 C 
ATOM      7  S   UNL     1      -1.459  -8.890  29.965  0.00  0.00    -0.084 S 
ATOM      8  C   UNL     1      -2.391  -7.811  31.016  0.00  0.00    +0.043 C 
ATOM      9  C   UNL     1      -2.228  -6.449  30.978  0.00  0.00    +0.057 C 
ATOM     10  C   UNL     1      -3.005  -5.662  31.845  0.00  0.00    +0.053 C 
ATOM     11  C   UNL     1      -3.915  -6.206  32.722  0.00  0.00    +0.150 C 
ATOM     12  C   UNL     1      -4.053  -7.576  32.735  0.00  0.00    +0.038 C 
ATOM     13  C   UNL     1      -3.281  -8.346  31.874  0.00  0.00    +0.011 C 
ATOM     14  N   UNL     1      -1.311  -5.827  30.101  0.00  0.00    -0.312 N 
ATOM     15  H   UNL     1      -1.258  -4.844  30.139  0.00  0.00    +0.152 HD
ENDROOT
BRANCH   6  16
ATOM     16  C   UNL     1       2.201  -8.254  26.305  0.00  0.00    +0.169 C 
ATOM     17  N   UNL     1       3.411  -8.789  26.828  0.00  0.00    -0.241 NA
ATOM     18  C   UNL     1       3.517 -10.007  26.437  0.00  0.00    +0.195 C 
ATOM     19  N   UNL     1       2.397 -10.358  25.637  0.00  0.00    -0.225 NA
ATOM     20  C   UNL     1       1.604  -9.352  25.538  0.00  0.00    +0.103 C 
ENDBRANCH   6  16
BRANCH  11  21
ATOM     21  O   UNL     1      -4.666  -5.394  33.565  0.00  0.00    -0.421 OA
BRANCH  21  22
ATOM     22  C   UNL     1      -4.712  -3.993  33.417  0.00  0.00    +0.347 C 
ATOM     23  O   UNL     1      -3.711  -3.413  33.885  0.00  0.00    -0.244 OA
BRANCH  22  24
ATOM     24  C   UNL     1      -5.853  -3.374  32.769  0.00  0.00    +0.098 C 
ATOM     25  C   UNL     1      -5.780  -2.835  31.532  0.00  0.00    +0.141 C 
ATOM     26  N   UNL     1      -6.834  -2.140  30.988  0.00  0.00    -0.239 NA
ATOM     27  C   UNL     1      -7.967  -1.981  31.663  0.00  0.00    +0.099 C 
ATOM     28  C   UNL     1      -8.087  -2.519  32.925  0.00  0.00    +0.021 C 
ATOM     29  C   UNL     1      -7.050  -3.213  33.495  0.00  0.00    +0.010 C 
BRANCH  25  30
ATOM     30  C   UNL     1      -4.682  -3.039  30.620  0.00  0.00    +0.272 C 
ATOM     31  O   UNL     1      -4.751  -4.033  29.806  0.00  0.00    -0.268 OA
ATOM     32  N   UNL     1      -3.510  -2.267  30.517  0.00  0.00    -0.216 N 
ATOM     33  C   UNL     1      -2.501  -2.537  29.532  0.00  0.00    +0.404 C 
ATOM     34  O   UNL     1      -2.676  -3.489  28.746  0.00  0.00    -0.226 OA
ATOM     35  H   UNL     1      -3.377  -1.517  31.141  0.00  0.00    +0.161 HD
BRANCH  33  36
ATOM     36  O   UNL     1      -1.354  -1.787  29.425  0.00  0.00    -0.466 OA
ATOM     37  H   UNL     1      -1.219  -1.054  29.992  0.00  0.00    +0.297 HD
ENDBRANCH  33  36
ENDBRANCH  25  30
ENDBRANCH  22  24
ENDBRANCH  21  22
ENDBRANCH  11  21
BRANCH   1  38
ATOM     38  S   UNL     1       2.322  -5.237  26.462  0.00  0.00    -0.031 S 
BRANCH  38  39
ATOM     39  C   UNL     1       3.803  -4.939  27.395  0.00  0.00    +0.274 C 
ATOM     40  O   UNL     1       4.350  -3.810  27.490  0.00  0.00    -0.263 OA
ATOM     41  N   UNL     1       4.423  -6.014  28.080  0.00  0.00    -0.320 N 
ATOM     42  H   UNL     1       4.032  -6.917  28.035  0.00  0.00    +0.146 HD
ATOM     43  H   UNL     1       5.244  -5.858  28.600  0.00  0.00    +0.146 HD
ENDBRANCH  38  39
ENDBRANCH   1  38
TORSDOF 8
ENDMDL
