REMARK  Name = =
REMARK  8 active torsions:
REMARK  status: ('A' for Active; 'I' for Inactive)
REMARK    1  A    between atoms: C_1  and  S_35
REMARK    2  A    between atoms: C_6  and  C_15
REMARK    3  A    between atoms: C_11  and  O_20
REMARK    4  A    between atoms: O_20  and  C_21
REMARK    5  A    between atoms: C_21  and  C_23
REMARK    6  A    between atoms: C_24  and  C_29
REMARK    7  A    between atoms: C_32  and  O_34
REMARK    8  A    between atoms: S_35  and  C_36
REMARK                            x       y       z     vdW  Elec       q    Type
REMARK                         _______ _______ _______ _____ _____    ______ ____
ROOT
ATOM      1  C   UNL     1      -2.132  -5.391  30.254  0.00  0.00    +0.033 C 
ATOM      2  C   UNL     1      -3.402  -5.165  30.747  0.00  0.00    +0.021 C 
ATOM      3  C   UNL     1      -3.930  -3.872  30.865  0.00  0.00    +0.055 C 
ATOM      4  C   UNL     1      -3.103  -2.858  30.460  0.00  0.00    +0.043 C 
ATOM      5  C   UNL     1      -1.843  -3.085  29.970  0.00  0.00    +0.006 C 
ATOM      6  C   UNL     1      -1.315  -4.362  29.850  0.00  0.00    +0.012 C 
ATOM      7  S   UNL     1      -3.711  -1.167  30.581  0.00  0.00    -0.084 S 
ATOM      8  C   UNL     1      -5.348  -1.284  31.247  0.00  0.00    +0.043 C 
ATOM      9  C   UNL     1      -5.914  -2.494  31.562  0.00  0.00    +0.057 C 
ATOM     10  C   UNL     1      -7.218  -2.502  32.086  0.00  0.00    +0.053 C 
ATOM     11  C   UNL     1      -7.939  -1.349  32.292  0.00  0.00    +0.150 C 
ATOM     12  C   UNL     1      -7.342  -0.152  31.965  0.00  0.00    +0.038 C 
ATOM     13  C   UNL     1      -6.053  -0.154  31.448  0.00  0.00    +0.011 C 
ATOM     14  N   UNL     1      -5.227  -3.715  31.375  0.00  0.00    -0.312 N 
ATOM     15  H   UNL     1      -5.707  -4.537  31.628  0.00  0.00    +0.152 HD
ENDROOT
BRANCH   6  16
ATOM     16  C   UNL     1       0.032  -4.570  29.314  0.00  0.00    +0.169 C 
ATOM     17  N   UNL     1       1.025  -4.981  30.246  0.00  0.00    -0.241 NA
ATOM     18  C   UNL     1       1.604  -6.030  29.785  0.00  0.00    +0.195 C 
ATOM     19  N   UNL     1       1.039  -6.382  28.530  0.00  0.00    -0.225 NA
ATOM     20  C   UNL     1       0.113  -5.546  28.222  0.00  0.00    +0.103 C 
ENDBRANCH   6  16
BRANCH  11  21
ATOM     21  O   UNL     1      -9.228  -1.398  32.813  0.00  0.00    -0.421 OA
BRANCH  21  22
ATOM     22  C   UNL     1     -10.274  -2.090  32.171  0.00  0.00    +0.347 C 
ATOM     23  O   UNL     1     -10.376  -1.818  30.957  0.00  0.00    -0.244 OA
BRANCH  22  24
ATOM     24  C   UNL     1     -11.100  -3.011  32.929  0.00  0.00    +0.098 C 
ATOM     25  C   UNL     1     -12.393  -2.752  33.224  0.00  0.00    +0.141 C 
ATOM     26  N   UNL     1     -13.121  -3.574  34.050  0.00  0.00    -0.239 NA
ATOM     27  C   UNL     1     -12.574  -4.660  34.585  0.00  0.00    +0.099 C 
ATOM     28  C   UNL     1     -11.260  -4.966  34.308  0.00  0.00    +0.021 C 
ATOM     29  C   UNL     1     -10.509  -4.161  33.490  0.00  0.00    +0.010 C 
BRANCH  25  30
ATOM     30  C   UNL     1     -13.170  -1.700  32.615  0.00  0.00    +0.272 C 
ATOM     31  O   UNL     1     -13.910  -0.977  33.380  0.00  0.00    -0.268 OA
ATOM     32  N   UNL     1     -13.224  -1.367  31.249  0.00  0.00    -0.216 N 
ATOM     33  C   UNL     1     -13.999  -0.262  30.761  0.00  0.00    +0.404 C 
ATOM     34  O   UNL     1     -14.644   0.421  31.582  0.00  0.00    -0.226 OA
ATOM     35  H   UNL     1     -12.713  -1.910  30.606  0.00  0.00    +0.161 HD
BRANCH  33  36
ATOM     36  O   UNL     1     -14.056   0.070  29.429  0.00  0.00    -0.466 OA
ATOM     37  H   UNL     1     -13.577  -0.433  28.800  0.00  0.00    +0.297 HD
ENDBRANCH  33  36
ENDBRANCH  25  30
ENDBRANCH  22  24
ENDBRANCH  21  22
ENDBRANCH  11  21
BRANCH   1  38
ATOM     38  S   UNL     1      -1.487  -7.061  30.107  0.00  0.00    -0.031 S 
BRANCH  38  39
ATOM     39  C   UNL     1      -0.984  -7.596  31.724  0.00  0.00    +0.274 C 
ATOM     40  O   UNL     1      -0.467  -8.719  31.955  0.00  0.00    -0.263 OA
ATOM     41  N   UNL     1      -1.163  -6.730  32.831  0.00  0.00    -0.320 N 
ATOM     42  H   UNL     1      -1.564  -5.840  32.700  0.00  0.00    +0.146 HD
ATOM     43  H   UNL     1      -0.887  -7.018  33.731  0.00  0.00    +0.146 HD
ENDBRANCH  38  39
ENDBRANCH   1  38
TORSDOF 8
