REMARK  Name = =
REMARK  4 active torsions:
REMARK  status: ('A' for Active; 'I' for Inactive)
REMARK    1  A    between atoms: C_1  and  C_20
REMARK    2  A    between atoms: C_13  and  N_15
REMARK    3  A    between atoms: C_20  and  O_22
REMARK    4  A    between atoms: O_22  and  N_23
REMARK                            x       y       z     vdW  Elec       q    Type
REMARK                         _______ _______ _______ _____ _____    ______ ____
ROOT
ATOM      1  C   UNL     1      -3.016  -5.943  30.693  0.00  0.00    +0.003 C 
ATOM      2  C   UNL     1      -2.178  -4.989  30.184  0.00  0.00    -0.023 C 
ATOM      3  C   UNL     1      -2.668  -3.718  30.086  0.00  0.00    -0.022 C 
ATOM      4  C   UNL     1      -3.968  -3.412  30.490  0.00  0.00    -0.004 C 
ATOM      5  C   UNL     1      -4.785  -4.394  30.995  0.00  0.00    -0.001 C 
ATOM      6  C   UNL     1      -4.279  -5.663  31.087  0.00  0.00    -0.002 C 
ATOM      7  C   UNL     1      -1.895  -2.600  29.448  0.00  0.00    +0.052 C 
ATOM      8  C   UNL     1      -0.919  -3.158  28.451  0.00  0.00    -0.020 C 
ATOM      9  C   UNL     1      -0.453  -4.418  28.543  0.00  0.00    -0.021 C 
ATOM     10  C   UNL     1      -0.829  -5.293  29.681  0.00  0.00    +0.052 C 
ATOM     11  C   UNL     1       0.421  -4.866  27.542  0.00  0.00    -0.003 C 
ATOM     12  C   UNL     1       0.797  -4.063  26.509  0.00  0.00    +0.014 C 
ATOM     13  C   UNL     1       0.318  -2.767  26.426  0.00  0.00    +0.048 C 
ATOM     14  C   UNL     1      -0.539  -2.326  27.397  0.00  0.00    +0.010 C 
ENDROOT
BRANCH  13  15
ATOM     15  N   UNL     1       0.776  -1.960  25.367  0.00  0.00    -0.307 N 
ATOM     16  C   UNL     1       0.089  -1.361  24.274  0.00  0.00    +0.091 C 
ATOM     17  C   UNL     1       1.126  -1.098  23.180  0.00  0.00    +0.023 C 
ATOM     18  C   UNL     1       2.313  -1.936  23.647  0.00  0.00    +0.023 C 
ATOM     19  C   UNL     1       2.230  -1.668  25.161  0.00  0.00    +0.091 C 
ENDBRANCH  13  15
BRANCH   1  20
ATOM     20  C   UNL     1      -2.407  -7.315  30.932  0.00  0.00    +0.160 C 
ATOM     21  C   UNL     1      -3.579  -8.083  31.639  0.00  0.00    +0.039 C 
BRANCH  20  22
ATOM     22  O   UNL     1      -1.509  -7.166  31.992  0.00  0.00    -0.280 OA
BRANCH  22  23
ATOM     23  N   UNL     1      -0.313  -7.528  31.963  0.00  0.00    -0.161 NA
ATOM     24  C   UNL     1       0.761  -6.791  31.429  0.00  0.00    +0.135 C 
ATOM     25  C   UNL     1       1.396  -5.910  32.488  0.00  0.00    +0.170 C 
ATOM     26 CL   UNL     1       3.117  -6.335  32.760  0.00  0.00    -0.094 Cl
ATOM     27  N   UNL     1       0.648  -5.930  33.722  0.00  0.00    -0.200 NA
ATOM     28  C   UNL     1       0.363  -7.258  34.221  0.00  0.00    +0.110 C 
ATOM     29  C   UNL     1       0.157  -8.267  33.122  0.00  0.00    +0.120 C 
ENDBRANCH  22  23
ENDBRANCH  20  22
ENDBRANCH   1  20
TORSDOF 4
