REMARK  Name = =
REMARK  11 active torsions:
REMARK  status: ('A' for Active; 'I' for Inactive)
REMARK    1  A    between atoms: C_1  and  S_20
REMARK    2  A    between atoms: C_4  and  C_25
REMARK    3  A    between atoms: C_10  and  C_27
REMARK    4  A    between atoms: C_14  and  O_37
REMARK    5  A    between atoms: S_20  and  P_21
REMARK    6  A    between atoms: P_21  and  O_23
REMARK    7  A    between atoms: P_21  and  O_24
REMARK    8  A    between atoms: C_27  and  P_29
REMARK    9  A    between atoms: P_29  and  O_31
REMARK   10  A    between atoms: P_29  and  O_32
REMARK   11  A    between atoms: C_34  and  O_36
REMARK                            x       y       z     vdW  Elec       q    Type
REMARK                         _______ _______ _______ _____ _____    ______ ____
ROOT
ATOM      1  C   UNL     1      50.482 161.057  31.713  0.00  0.00    +0.062 C 
ATOM      2  C   UNL     1      49.544 160.059  32.198  0.00  0.00    +0.015 C 
ATOM      3  C   UNL     1      49.330 159.810  33.634  0.00  0.00    +0.027 C 
ATOM      4  C   UNL     1      49.504 161.046  34.448  0.00  0.00    -0.019 C 
ATOM      5  C   UNL     1      50.386 161.942  34.093  0.00  0.00    -0.029 C 
ATOM      6  C   UNL     1      51.205 161.700  32.868  0.00  0.00    +0.037 C 
ATOM      7  C   UNL     1      49.191 158.865  31.425  0.00  0.00    +0.004 C 
ATOM      8  C   UNL     1      49.690 158.964  30.055  0.00  0.00    +0.032 C 
ATOM      9  C   UNL     1      51.082 159.412  30.057  0.00  0.00    +0.012 C 
ATOM     10  C   UNL     1      51.552 160.436  30.816  0.00  0.00    +0.040 C 
ATOM     11  C   UNL     1      52.077 158.516  29.393  0.00  0.00    +0.027 C 
ATOM     12  C   UNL     1      51.631 157.075  29.572  0.00  0.00    -0.024 C 
ATOM     13  C   UNL     1      50.285 156.776  29.398  0.00  0.00    +0.000 C 
ATOM     14  C   UNL     1      49.375 157.901  29.097  0.00  0.00    +0.132 C 
ATOM     15  C   UNL     1      49.896 155.490  29.534  0.00  0.00    -0.002 C 
ATOM     16  C   UNL     1      50.819 154.478  29.843  0.00  0.00    -0.000 C 
ATOM     17  C   UNL     1      52.138 154.782  30.012  0.00  0.00    -0.000 C 
ATOM     18  C   UNL     1      52.534 156.113  29.870  0.00  0.00    -0.005 C 
ENDROOT
BRANCH   1  20
ATOM     19  F   UNL     1      49.481 161.539  29.196  0.00  0.00    -0.181 F 
ATOM     20  S   UNL     1      49.668 162.325  30.871  0.00  0.00    -0.024 S 
ATOM     21  H   UNL     1      50.315 163.503  31.079  0.00  0.00    +0.124 HD
BRANCH  20  22
ATOM     22  P   UNL     1      47.923 162.432  31.264  0.00  0.00    +0.231 P 
ATOM     23  S   UNL     1      47.598 162.399  32.958  0.00  0.00    +0.003 S 
BRANCH  22  24
ATOM     24  O   UNL     1      47.306 163.945  30.729  0.00  0.00    -0.339 OA
ATOM     25  H   UNL     1      47.788 164.664  31.168  0.00  0.00    +0.218 HD
ENDBRANCH  22  24
BRANCH  22  26
ATOM     26  O   UNL     1      47.008 161.274  30.433  0.00  0.00    -0.339 OA
ATOM     27  H   UNL     1      47.303 160.386  30.687  0.00  0.00    +0.218 HD
ENDBRANCH  22  26
ENDBRANCH  20  22
ENDBRANCH   1  20
BRANCH   4  28
ATOM     28  C   UNL     1      48.689 161.223  35.617  0.00  0.00    +0.038 C 
ATOM     29  S   UNL     1      47.794 162.565  35.879  0.00  0.00    -0.051 S 
ENDBRANCH   4  28
BRANCH  10  30
ATOM     30  C   UNL     1      52.828 161.075  30.516  0.00  0.00    +0.058 C 
ATOM     31  C   UNL     1      54.038 160.652  30.764  0.00  0.00    +0.003 C 
BRANCH  30  32
ATOM     32  P   UNL     1      52.895 162.856  30.035  0.00  0.00    +0.356 P 
ATOM     33  O   UNL     1      53.109 163.711  31.220  0.00  0.00    -0.254 OA
BRANCH  32  34
ATOM     34  O   UNL     1      51.600 163.251  29.106  0.00  0.00    -0.321 OA
ATOM     35  H   UNL     1      50.792 163.202  29.640  0.00  0.00    +0.220 HD
ENDBRANCH  32  34
BRANCH  32  36
ATOM     36  O   UNL     1      54.318 162.959  29.031  0.00  0.00    -0.321 OA
ATOM     37  H   UNL     1      55.101 162.730  29.556  0.00  0.00    +0.220 HD
ENDBRANCH  32  36
ENDBRANCH  30  32
ENDBRANCH  10  30
BRANCH  14  38
ATOM     38  O   UNL     1      48.120 158.809  29.048  0.00  0.00    -0.380 OA
ATOM     39  H   UNL     1      47.481 158.443  28.416  0.00  0.00    +0.211 HD
ENDBRANCH  14  38
TORSDOF 10
REMARK  Name = =
REMARK  11 active torsions:
REMARK  status: ('A' for Active; 'I' for Inactive)
REMARK    1  A    between atoms: C_1  and  S_20
REMARK    2  A    between atoms: C_4  and  C_25
REMARK    3  A    between atoms: C_10  and  C_27
REMARK    4  A    between atoms: C_14  and  O_37
REMARK    5  A    between atoms: S_20  and  P_21
REMARK    6  A    between atoms: P_21  and  O_23
REMARK    7  A    between atoms: P_21  and  O_24
REMARK    8  A    between atoms: C_27  and  P_29
REMARK    9  A    between atoms: P_29  and  O_31
REMARK   10  A    between atoms: P_29  and  O_32
REMARK   11  A    between atoms: C_34  and  O_36
REMARK                            x       y       z     vdW  Elec       q    Type
REMARK                         _______ _______ _______ _____ _____    ______ ____
ROOT
ATOM      1  O   HOH     1      52.837 157.214  23.542  0.00  0.00    -0.253 OA
ATOM      2  H   HOH     0      53.807 157.214  23.542  0.00  0.00    +0.253 HD
ENDROOT
TORSDOF 0
REMARK  Name = =
REMARK  11 active torsions:
REMARK  status: ('A' for Active; 'I' for Inactive)
REMARK    1  A    between atoms: C_1  and  S_20
REMARK    2  A    between atoms: C_4  and  C_25
REMARK    3  A    between atoms: C_10  and  C_27
REMARK    4  A    between atoms: C_14  and  O_37
REMARK    5  A    between atoms: S_20  and  P_21
REMARK    6  A    between atoms: P_21  and  O_23
REMARK    7  A    between atoms: P_21  and  O_24
REMARK    8  A    between atoms: C_27  and  P_29
REMARK    9  A    between atoms: P_29  and  O_31
REMARK   10  A    between atoms: P_29  and  O_32
REMARK   11  A    between atoms: C_34  and  O_36
REMARK                            x       y       z     vdW  Elec       q    Type
REMARK                         _______ _______ _______ _____ _____    ______ ____
ROOT
ATOM      1  C   UNL     1      50.809 158.514  24.860  0.00  0.00    +0.325 C 
ATOM      2  O   UNL     1      50.426 158.898  23.688  0.00  0.00    -0.184 OA
ENDROOT
BRANCH   1   3
ATOM      3  O   UNL     1      50.280 159.345  25.842  0.00  0.00    -0.354 OA
ATOM      4  H   UNL     1      50.474 159.186  26.745  0.00  0.00    +0.213 HD
ENDBRANCH   1   3
TORSDOF 1
