REMARK  Name = =
REMARK  1 active torsions:
REMARK  status: ('A' for Active; 'I' for Inactive)
REMARK    1  A    between atoms: S_1  and  N_4
REMARK                            x       y       z     vdW  Elec       q    Type
REMARK                         _______ _______ _______ _____ _____    ______ ____
ROOT
ATOM      1  S   UNL     1      -5.006  -3.382  31.251  0.00  0.00    +0.017 S 
ATOM      2  O   UNL     1      -4.589  -3.933  29.907  0.00  0.00    -0.161 OA
ATOM      3  O   UNL     1      -6.264  -2.568  31.038  0.00  0.00    -0.161 OA
ATOM      4  H   UNL     1      -5.274  -4.415  32.094  0.00  0.00    +0.229 HD
ENDROOT
BRANCH   1   5
ATOM      5  N   UNL     1      -3.798  -2.590  32.088  0.00  0.00    -0.211 NA
ATOM      6  H   UNL     1      -3.495  -1.774  31.556  0.00  0.00    +0.144 HD
ATOM      7  H   UNL     1      -3.008  -3.221  32.223  0.00  0.00    +0.144 HD
ENDBRANCH   1   5
TORSDOF 1
