REMARK  Name = =
REMARK  6 active torsions:
REMARK  status: ('A' for Active; 'I' for Inactive)
REMARK    1  A    between atoms: N_1  and  S_2
REMARK    2  A    between atoms: N_1  and  N_5
REMARK    3  A    between atoms: N_1  and  C_9
REMARK    4  A    between atoms: N_5  and  C_6
REMARK    5  A    between atoms: C_6  and  N_8
REMARK    6  A    between atoms: C_10  and  N_11
REMARK                            x       y       z     vdW  Elec       q    Type
REMARK                         _______ _______ _______ _____ _____    ______ ____
ROOT
ATOM      1  N   UNL     1      -1.914  -6.867  31.087  0.00  0.00    -0.122 N 
ENDROOT
BRANCH   1   2
ATOM      2  S   UNL     1      -2.362  -8.476  30.689  0.00  0.00    +0.051 S 
ATOM      3  O   UNL     1      -1.681  -8.946  29.424  0.00  0.00    -0.156 OA
ATOM      4  O   UNL     1      -3.822  -8.640  30.497  0.00  0.00    -0.156 OA
ATOM      5  H   UNL     1      -1.965  -9.223  31.754  0.00  0.00    +0.235 HD
ENDBRANCH   1   2
BRANCH   1   6
ATOM      6  N   UNL     1      -2.608  -5.803  30.487  0.00  0.00    -0.226 N 
ATOM      7  H   UNL     1      -3.557  -5.927  30.258  0.00  0.00    +0.174 HD
BRANCH   6   8
ATOM      8  C   UNL     1      -1.996  -4.559  30.199  0.00  0.00    +0.146 C 
ATOM      9  S   UNL     1      -1.030  -4.405  28.894  0.00  0.00    -0.018 S 
BRANCH   8  10
ATOM     10  N   UNL     1      -2.225  -3.462  31.040  0.00  0.00    -0.339 N 
ATOM     11  H   UNL     1      -2.809  -3.558  31.827  0.00  0.00    +0.144 HD
ATOM     12  H   UNL     1      -1.802  -2.595  30.844  0.00  0.00    +0.144 HD
ENDBRANCH   8  10
ENDBRANCH   6   8
ENDBRANCH   1   6
BRANCH   1  13
ATOM     13  C   UNL     1      -0.878  -6.544  31.993  0.00  0.00    +0.121 C 
ATOM     14  C   UNL     1       0.072  -7.383  32.350  0.00  0.00    +0.084 C 
BRANCH  14  15
ATOM     15  N   UNL     1       1.107  -7.049  33.260  0.00  0.00    -0.275 N 
ATOM     16  C   UNL     1       2.208  -6.271  32.809  0.00  0.00    +0.304 C 
ATOM     17  O   UNL     1       2.298  -5.863  31.611  0.00  0.00    -0.265 OA
ATOM     18  H   UNL     1       1.063  -7.353  34.195  0.00  0.00    +0.155 HD
ENDBRANCH  14  15
ENDBRANCH   1  13
TORSDOF 6
