REMARK  Name = =
REMARK  11 active torsions:
REMARK  status: ('A' for Active; 'I' for Inactive)
REMARK    1  A    between atoms: N_1  and  C_2
REMARK    2  A    between atoms: N_1  and  N_13
REMARK    3  A    between atoms: C_2  and  N_4
REMARK    4  A    between atoms: N_4  and  C_7
REMARK    5  A    between atoms: C_5  and  O_10
REMARK    6  A    between atoms: C_7  and  O_9
REMARK    7  A    between atoms: O_10  and  C_11
REMARK    8  A    between atoms: N_13  and  S_14
REMARK    9  A    between atoms: N_13  and  C_19
REMARK   10  A    between atoms: S_14  and  N_17
REMARK   11  A    between atoms: C_20  and  N_21
REMARK                            x       y       z     vdW  Elec       q    Type
REMARK                         _______ _______ _______ _____ _____    ______ ____
ROOT
ATOM      1  N   UNL     1       2.029  -5.814  26.283  0.00  0.00    -0.224 N 
ATOM      2  H   UNL     1       1.125  -6.202  26.321  0.00  0.00    +0.174 HD
ENDROOT
BRANCH   1   3
ATOM      3  C   UNL     1       2.494  -5.394  27.522  0.00  0.00    +0.162 C 
ATOM      4  S   UNL     1       4.194  -5.539  27.659  0.00  0.00    -0.017 S 
BRANCH   3   5
ATOM      5  N   UNL     1       1.909  -4.889  28.663  0.00  0.00    -0.183 N 
ATOM      6  C   UNL     1       1.866  -3.600  29.210  0.00  0.00    +0.416 C 
ATOM      7  O   UNL     1       1.237  -3.408  30.313  0.00  0.00    -0.225 OA
BRANCH   5   8
ATOM      8  C   UNL     1       1.158  -5.881  29.523  0.00  0.00    +0.199 C 
ATOM      9  C   UNL     1      -0.292  -5.532  29.543  0.00  0.00    +0.056 C 
BRANCH   8  10
ATOM     10  O   UNL     1       1.649  -5.797  30.822  0.00  0.00    -0.367 OA
ATOM     11  H   UNL     1       2.593  -6.021  30.826  0.00  0.00    +0.212 HD
ENDBRANCH   8  10
ENDBRANCH   5   8
BRANCH   6  12
ATOM     12  O   UNL     1       2.433  -2.483  28.689  0.00  0.00    -0.407 OA
BRANCH  12  13
ATOM     13  C   UNL     1       1.750  -1.325  28.327  0.00  0.00    +0.185 C 
ATOM     14  C   UNL     1       0.692  -1.342  27.542  0.00  0.00    +0.044 C 
ENDBRANCH  12  13
ENDBRANCH   6  12
ENDBRANCH   3   5
ENDBRANCH   1   3
BRANCH   1  15
ATOM     15  N   UNL     1       2.564  -5.804  25.005  0.00  0.00    -0.097 N 
BRANCH  15  16
ATOM     16  S   UNL     1       2.766  -4.263  24.216  0.00  0.00    +0.203 S 
ATOM     17  O   UNL     1       1.907  -3.223  24.919  0.00  0.00    -0.127 OA
ATOM     18  O   UNL     1       2.223  -4.343  22.796  0.00  0.00    -0.127 OA
BRANCH  16  19
ATOM     19  N   UNL     1       4.377  -3.769  24.123  0.00  0.00    +0.116 NA
ATOM     20  O   UNL     1       4.771  -3.224  23.142  0.00  0.00    -0.121 OA
ENDBRANCH  16  19
ENDBRANCH  15  16
BRANCH  15  21
ATOM     21  C   UNL     1       2.926  -6.982  24.338  0.00  0.00    +0.123 C 
ATOM     22  C   UNL     1       2.369  -8.119  24.179  0.00  0.00    +0.084 C 
BRANCH  22  23
ATOM     23  N   UNL     1       1.166  -8.639  24.618  0.00  0.00    -0.275 N 
ATOM     24  C   UNL     1       0.803  -9.428  25.709  0.00  0.00    +0.304 C 
ATOM     25  O   UNL     1       1.668  -9.786  26.501  0.00  0.00    -0.265 OA
ATOM     26  H   UNL     1       0.406  -8.403  24.039  0.00  0.00    +0.155 HD
ENDBRANCH  22  23
ENDBRANCH  15  21
ENDBRANCH   1  15
TORSDOF 11
