REMARK  Name = =
REMARK  2 active torsions:
REMARK  status: ('A' for Active; 'I' for Inactive)
REMARK    1  A    between atoms: C_1  and  C_7
REMARK    2  A    between atoms: C_7  and  O_9
REMARK                            x       y       z     vdW  Elec       q    Type
REMARK                         _______ _______ _______ _____ _____    ______ ____
ROOT
ATOM      1  C   UNL     1      52.407 155.904  27.814  0.00  0.00    +0.095 C 
ATOM      2  C   UNL     1      51.772 154.698  28.021  0.00  0.00    +0.105 C 
ATOM      3  N   UNL     1      51.804 153.744  27.084  0.00  0.00    -0.242 NA
ATOM      4  C   UNL     1      52.436 153.885  25.910  0.00  0.00    +0.099 C 
ATOM      5  C   UNL     1      53.086 155.075  25.657  0.00  0.00    +0.021 C 
ATOM      6  C   UNL     1      53.065 156.080  26.619  0.00  0.00    +0.010 C 
ENDROOT
BRANCH   1   7
ATOM      7  C   UNL     1      52.361 156.930  28.844  0.00  0.00    +0.340 C 
ATOM      8  O   UNL     1      51.415 156.956  29.668  0.00  0.00    -0.245 OA
BRANCH   7   9
ATOM      9  O   UNL     1      53.332 157.914  28.977  0.00  0.00    -0.477 OA
ATOM     10  H   UNL     1      54.059 157.938  28.386  0.00  0.00    +0.295 HD
ENDBRANCH   7   9
ENDBRANCH   1   7
TORSDOF 2
