REMARK  Name = =
REMARK  1 active torsions:
REMARK  status: ('A' for Active; 'I' for Inactive)
REMARK    1  A    between atoms: S_1  and  S_2
REMARK                            x       y       z     vdW  Elec       q    Type
REMARK                         _______ _______ _______ _____ _____    ______ ____
ROOT
ATOM      1  S   UNL     1      51.641 155.028  28.453  0.00  0.00    -0.114 S 
ATOM      2  H   UNL     1      50.300 155.065  28.679  0.00  0.00    +0.114 HD
ENDROOT
BRANCH   1   3
ATOM      3  S   UNL     1      52.465 156.977  28.740  0.00  0.00    -0.114 S 
ATOM      4  H   UNL     1      53.806 156.940  28.514  0.00  0.00    +0.114 HD
ENDBRANCH   1   3
TORSDOF 1
