REMARK  Name = =
REMARK  0 active torsions:
REMARK  status: ('A' for Active; 'I' for Inactive)
REMARK                            x       y       z     vdW  Elec       q    Type
REMARK                         _______ _______ _______ _____ _____    ______ ____
ROOT
ATOM      1  C   UNL     1      51.156 155.630  28.948  0.00  0.00    +0.000 C 
ATOM      2  C   UNL     1      51.889 156.790  29.064  0.00  0.00    +0.006 C 
ATOM      3  C   UNL     1      51.352 157.903  29.678  0.00  0.00    +0.067 C 
ATOM      4  C   UNL     1      50.059 157.884  30.197  0.00  0.00    +0.061 C 
ATOM      5  N   UNL     1      49.361 158.942  30.861  0.00  0.00    -0.249 N 
ATOM      6  C   UNL     1      48.355 158.724  31.719  0.00  0.00    +0.172 C 
ATOM      7  N   UNL     1      47.956 159.943  32.127  0.00  0.00    -0.225 NA
ATOM      8  C   UNL     1      48.679 160.921  31.556  0.00  0.00    +0.113 C 
ATOM      9  C   UNL     1      49.582 160.286  30.742  0.00  0.00    +0.073 C 
ATOM     10  C   UNL     1      50.567 161.037  29.937  0.00  0.00    +0.134 C 
ATOM     11  N   UNL     1      51.878 160.419  29.901  0.00  0.00    -0.296 N 
ATOM     12  C   UNL     1      52.256 159.062  29.712  0.00  0.00    +0.247 C 
ATOM     13  O   UNL     1      53.465 158.773  29.554  0.00  0.00    -0.270 OA
ATOM     14  C   UNL     1      49.321 156.728  30.084  0.00  0.00    +0.015 C 
ATOM     15  C   UNL     1      49.857 155.617  29.471  0.00  0.00    +0.001 C 
ATOM     16  H   UNL     1      52.630 161.042  30.028  0.00  0.00    +0.150 HD
ENDROOT
TORSDOF 0
