REMARK  Name = =
REMARK  2 active torsions:
REMARK  status: ('A' for Active; 'I' for Inactive)
REMARK    1  A    between atoms: S_1  and  N_2
REMARK    2  A    between atoms: S_1  and  S_4
REMARK                            x       y       z     vdW  Elec       q    Type
REMARK                         _______ _______ _______ _____ _____    ______ ____
ROOT
ATOM      1  S   UNL     1      52.613 156.101  28.044  0.00  0.00    +0.042 S 
ENDROOT
BRANCH   1   2
ATOM      2  N   UNL     1      51.380 156.579  29.159  0.00  0.00    -0.200 NA
ATOM      3  C   UNL     1      50.640 155.795  29.824  0.00  0.00    +0.129 C 
ENDBRANCH   1   2
BRANCH   1   4
ATOM      4  S   UNL     1      52.346 154.105  27.354  0.00  0.00    -0.086 S 
ATOM      5  H   UNL     1      53.342 153.789  26.484  0.00  0.00    +0.116 HD
ENDBRANCH   1   4
TORSDOF 2
