REMARK  Name = =
REMARK  6 active torsions:
REMARK  status: ('A' for Active; 'I' for Inactive)
REMARK    1  A    between atoms: C_1  and  O_13
REMARK    2  A    between atoms: C_4  and  C_10
REMARK    3  A    between atoms: C_5  and  S_9
REMARK    4  A    between atoms: C_10  and  O_12
REMARK    5  A    between atoms: O_13  and  C_14
REMARK    6  A    between atoms: C_14  and  C_16
REMARK                            x       y       z     vdW  Elec       q    Type
REMARK                         _______ _______ _______ _____ _____    ______ ____
ROOT
ATOM      1  C   UNL     1      52.156 154.548  27.575  0.00  0.00    +0.263 C 
ATOM      2  C   UNL     1      52.597 153.305  28.313  0.00  0.00    +0.134 C 
ATOM      3  N   UNL     1      51.667 153.803  29.351  0.00  0.00    -0.247 N 
ATOM      4  C   UNL     1      51.063 152.670  29.952  0.00  0.00    +0.132 C 
ATOM      5  C   UNL     1      51.170 151.612  29.181  0.00  0.00    +0.021 C 
ATOM      6  C   UNL     1      51.909 152.013  27.923  0.00  0.00    +0.058 C 
ATOM      7  C   UNL     1      52.069 155.108  28.974  0.00  0.00    +0.272 C 
ATOM      8  O   UNL     1      52.258 156.207  29.557  0.00  0.00    -0.271 OA
ENDROOT
BRANCH   5   9
ATOM      9  S   UNL     1      50.596 149.939  29.437  0.00  0.00    -0.144 S 
ATOM     10  H   UNL     1      49.969 149.854  30.641  0.00  0.00    +0.107 HD
ENDBRANCH   5   9
BRANCH   4  11
ATOM     11  C   UNL     1      50.410 152.675  31.254  0.00  0.00    +0.352 C 
ATOM     12  O   UNL     1      49.943 151.628  31.762  0.00  0.00    -0.244 OA
BRANCH  11  13
ATOM     13  O   UNL     1      50.266 153.834  32.008  0.00  0.00    -0.476 OA
ATOM     14  H   UNL     1      50.595 154.649  31.682  0.00  0.00    +0.295 HD
ENDBRANCH  11  13
ENDBRANCH   4  11
BRANCH   1  15
ATOM     15  O   UNL     1      53.128 155.158  26.770  0.00  0.00    -0.438 OA
BRANCH  15  16
ATOM     16  C   UNL     1      53.581 154.503  25.658  0.00  0.00    +0.343 C 
ATOM     17  O   UNL     1      53.287 153.300  25.494  0.00  0.00    -0.245 OA
BRANCH  16  18
ATOM     18  C   UNL     1      54.412 155.179  24.642  0.00  0.00    +0.095 C 
ATOM     19  C   UNL     1      54.960 154.459  23.600  0.00  0.00    +0.105 C 
ATOM     20  N   UNL     1      55.719 155.064  22.666  0.00  0.00    -0.242 NA
ATOM     21  C   UNL     1      55.987 156.383  22.689  0.00  0.00    +0.099 C 
ATOM     22  C   UNL     1      55.446 157.115  23.726  0.00  0.00    +0.021 C 
ATOM     23  C   UNL     1      54.663 156.528  24.702  0.00  0.00    +0.010 C 
ENDBRANCH  16  18
ENDBRANCH  15  16
ENDBRANCH   1  15
TORSDOF 6
