REMARK  Name = =
REMARK  4 active torsions:
REMARK  status: ('A' for Active; 'I' for Inactive)
REMARK    1  A    between atoms: N_1  and  S_8
REMARK    2  A    between atoms: C_3  and  O_13
REMARK    3  A    between atoms: S_8  and  N_10
REMARK    4  A    between atoms: S_8  and  S_12
REMARK                            x       y       z     vdW  Elec       q    Type
REMARK                         _______ _______ _______ _____ _____    ______ ____
ROOT
ATOM      1  N   UNL     1      51.728 154.189  28.760  0.00  0.00    -0.219 N 
ATOM      2  C   UNL     1      52.857 154.320  28.030  0.00  0.00    +0.118 C 
ATOM      3  C   UNL     1      53.260 153.387  27.094  0.00  0.00    +0.189 C 
ATOM      4  C   UNL     1      52.503 152.281  26.882  0.00  0.00    +0.232 C 
ATOM      5  O   UNL     1      52.882 151.446  26.030  0.00  0.00    -0.283 OA
ATOM      6  C   UNL     1      51.346 152.123  27.613  0.00  0.00    +0.062 C 
ATOM      7  C   UNL     1      50.994 153.084  28.530  0.00  0.00    +0.081 C 
ENDROOT
BRANCH   3   8
ATOM      8  O   UNL     1      54.435 153.610  26.394  0.00  0.00    -0.502 OA
ATOM      9  H   UNL     1      54.940 154.382  26.559  0.00  0.00    +0.292 HD
ENDBRANCH   3   8
BRANCH   1  10
ATOM     10  S   UNL     1      51.193 155.275  29.900  0.00  0.00    +0.057 S 
BRANCH  10  11
ATOM     11  N   UNL     1      50.949 154.911  31.309  0.00  0.00    -0.194 NA
ATOM     12  C   UNL     1      50.280 154.115  32.040  0.00  0.00    +0.130 C 
ENDBRANCH  10  11
BRANCH  10  13
ATOM     13  S   UNL     1      51.400 156.656  29.454  0.00  0.00    -0.079 S 
ATOM     14  H   UNL     1      51.599 156.673  28.109  0.00  0.00    +0.116 HD
ENDBRANCH  10  13
ENDBRANCH   1  10
TORSDOF 4
REMARK  Name = =
REMARK  4 active torsions:
REMARK  status: ('A' for Active; 'I' for Inactive)
REMARK    1  A    between atoms: N_1  and  S_8
REMARK    2  A    between atoms: C_3  and  O_13
REMARK    3  A    between atoms: S_8  and  N_10
REMARK    4  A    between atoms: S_8  and  S_12
REMARK                            x       y       z     vdW  Elec       q    Type
REMARK                         _______ _______ _______ _____ _____    ______ ____
ROOT
ATOM      1  H   UNK     1      49.411 154.790  29.405  0.00  0.00    +0.000 HD
ENDROOT
TORSDOF 0
