REMARK  Name = =
REMARK  4 active torsions:
REMARK  status: ('A' for Active; 'I' for Inactive)
REMARK    1  A    between atoms: C_1  and  C_16
REMARK    2  A    between atoms: C_2  and  N_26
REMARK    3  A    between atoms: N_26  and  C_27
REMARK    4  A    between atoms: C_30  and  C_33
REMARK                            x       y       z     vdW  Elec       q    Type
REMARK                         _______ _______ _______ _____ _____    ______ ____
ROOT
ATOM      1  C   UNL     1      51.430 158.671  29.849  0.00  0.00    +0.010 C 
ATOM      2  C   UNL     1      50.754 157.499  29.796  0.00  0.00    +0.051 C 
ATOM      3  C   UNL     1      51.103 156.453  28.932  0.00  0.00    +0.080 C 
ATOM      4  C   UNL     1      52.199 156.591  28.072  0.00  0.00    +0.062 C 
ATOM      5  N   UNL     1      52.708 155.617  27.160  0.00  0.00    -0.249 N 
ATOM      6  C   UNL     1      53.963 155.706  26.691  0.00  0.00    +0.172 C 
ATOM      7  N   UNL     1      54.117 154.639  25.867  0.00  0.00    -0.225 NA
ATOM      8  C   UNL     1      52.994 153.903  25.821  0.00  0.00    +0.113 C 
ATOM      9  C   UNL     1      52.095 154.535  26.652  0.00  0.00    +0.073 C 
ATOM     10  C   UNL     1      50.736 153.985  26.855  0.00  0.00    +0.134 C 
ATOM     11  N   UNL     1      50.294 154.077  28.218  0.00  0.00    -0.296 N 
ATOM     12  C   UNL     1      50.212 155.308  28.977  0.00  0.00    +0.249 C 
ATOM     13  O   UNL     1      49.263 155.407  29.767  0.00  0.00    -0.270 OA
ATOM     14  C   UNL     1      52.891 157.757  28.109  0.00  0.00    +0.015 C 
ATOM     15  C   UNL     1      52.523 158.774  28.971  0.00  0.00    -0.000 C 
ATOM     16  H   UNL     1      50.028 153.244  28.669  0.00  0.00    +0.150 HD
ENDROOT
BRANCH   1  17
ATOM     17  C   UNL     1      51.057 159.832  30.607  0.00  0.00    +0.101 C 
ATOM     18  N   UNL     1      49.883 160.441  29.903  0.00  0.00    -0.291 NA
ATOM     19  C   UNL     1      50.294 160.806  28.608  0.00  0.00    +0.074 C 
ATOM     20  C   UNL     1      51.119 162.105  28.700  0.00  0.00    +0.043 C 
ATOM     21  C   UNL     1      51.974 162.035  29.921  0.00  0.00    -0.023 C 
ATOM     22  C   UNL     1      51.925 160.976  30.796  0.00  0.00    -0.008 C 
ATOM     23  C   UNL     1      52.727 161.048  31.917  0.00  0.00    -0.003 C 
ATOM     24  C   UNL     1      53.534 162.143  32.129  0.00  0.00    -0.000 C 
ATOM     25  C   UNL     1      53.591 163.208  31.259  0.00  0.00    -0.000 C 
ATOM     26  C   UNL     1      52.790 163.142  30.134  0.00  0.00    -0.004 C 
ATOM     27  H   UNL     1      49.565 161.266  30.411  0.00  0.00    +0.124 HD
ENDBRANCH   1  17
BRANCH   2  28
ATOM     28  N   UNL     1      49.690 157.253  30.700  0.00  0.00    -0.313 N 
ATOM     29  H   UNL     1      49.287 156.360  30.793  0.00  0.00    +0.152 HD
BRANCH  28  30
ATOM     30  C   UNL     1      49.225 158.384  31.482  0.00  0.00    +0.048 C 
ATOM     31  C   UNL     1      48.137 159.125  31.085  0.00  0.00    +0.015 C 
ATOM     32  C   UNL     1      47.705 160.207  31.847  0.00  0.00    +0.006 C 
ATOM     33  C   UNL     1      48.350 160.562  33.010  0.00  0.00    +0.053 C 
ATOM     34  C   UNL     1      49.440 159.820  33.410  0.00  0.00    +0.006 C 
ATOM     35  C   UNL     1      49.863 158.743  32.643  0.00  0.00    +0.015 C 
BRANCH  33  36
ATOM     36  C   UNL     1      47.890 161.710  33.813  0.00  0.00    +0.243 C 
ATOM     37  O   UNL     1      47.649 161.597  35.030  0.00  0.00    -0.270 OA
ATOM     38  N   UNL     1      47.720 162.963  33.184  0.00  0.00    -0.325 N 
ATOM     39  H   UNL     1      47.908 163.061  32.223  0.00  0.00    +0.145 HD
ATOM     40  H   UNL     1      47.413 163.739  33.707  0.00  0.00    +0.145 HD
ENDBRANCH  33  36
ENDBRANCH  28  30
ENDBRANCH   2  28
TORSDOF 4
