REMARK  Name = =
REMARK  5 active torsions:
REMARK  status: ('A' for Active; 'I' for Inactive)
REMARK    1  A    between atoms: N_1  and  S_14
REMARK    2  A    between atoms: C_2  and  N_8
REMARK    3  A    between atoms: C_3  and  O_18
REMARK    4  A    between atoms: S_14  and  N_15
REMARK    5  A    between atoms: S_14  and  S_17
REMARK                            x       y       z     vdW  Elec       q    Type
REMARK                         _______ _______ _______ _____ _____    ______ ____
ROOT
ATOM      1  N   UNL     1      53.229 154.357  28.042  0.00  0.00    -0.220 N 
ATOM      2  C   UNL     1      53.257 154.850  26.790  0.00  0.00    +0.151 C 
ATOM      3  C   UNL     1      52.775 156.120  26.549  0.00  0.00    +0.202 C 
ATOM      4  C   UNL     1      52.265 156.899  27.577  0.00  0.00    +0.233 C 
ATOM      5  O   UNL     1      51.828 158.065  27.337  0.00  0.00    -0.283 OA
ATOM      6  C   UNL     1      52.244 156.381  28.856  0.00  0.00    +0.062 C 
ATOM      7  C   UNL     1      52.733 155.098  29.077  0.00  0.00    +0.081 C 
ENDROOT
BRANCH   2   8
ATOM      8  N   UNL     1      53.785 154.082  25.751  0.00  0.00    -0.293 N 
ATOM      9  C   UNL     1      55.076 154.493  25.317  0.00  0.00    +0.092 C 
ATOM     10  C   UNL     1      55.200 154.684  23.833  0.00  0.00    +0.022 C 
ATOM     11  C   UNL     1      54.666 153.515  23.045  0.00  0.00    +0.004 C 
ATOM     12  C   UNL     1      53.683 152.681  23.837  0.00  0.00    +0.022 C 
ATOM     13  C   UNL     1      52.897 153.612  24.771  0.00  0.00    +0.092 C 
ENDBRANCH   2   8
BRANCH   1  14
ATOM     14  S   UNL     1      53.816 152.779  28.393  0.00  0.00    -0.032 S 
ATOM     15  H   UNL     1      54.560 152.024  27.541  0.00  0.00    +0.135 HD
BRANCH  14  16
ATOM     16  N   UNL     1      54.691 152.755  29.513  0.00  0.00    -0.208 NA
ATOM     17  C   UNL     1      55.775 152.358  30.074  0.00  0.00    +0.129 C 
ENDBRANCH  14  16
BRANCH  14  18
ATOM     18  S   UNL     1      51.964 152.380  28.778  0.00  0.00    -0.095 S 
ATOM     19  H   UNL     1      51.476 153.296  29.657  0.00  0.00    +0.115 HD
ENDBRANCH  14  18
ENDBRANCH   1  14
BRANCH   3  20
ATOM     20  O   UNL     1      52.829 156.573  25.242  0.00  0.00    -0.501 OA
ATOM     21  H   UNL     1      53.179 156.023  24.569  0.00  0.00    +0.292 HD
ENDBRANCH   3  20
TORSDOF 5
