REMARK  Name = =
REMARK  14 active torsions:
REMARK  status: ('A' for Active; 'I' for Inactive)
REMARK    1  A    between atoms: C_1  and  C_3
REMARK    2  A    between atoms: C_1  and  O_20
REMARK    3  A    between atoms: C_4  and  N_9
REMARK    4  A    between atoms: N_9  and  N_12
REMARK    5  A    between atoms: C_10  and  C_17
REMARK    6  A    between atoms: N_15  and  N_16
REMARK    7  A    between atoms: C_17  and  O_19
REMARK    8  A    between atoms: O_20  and  C_21
REMARK    9  A    between atoms: C_21  and  O_33
REMARK   10  A    between atoms: C_24  and  C_30
REMARK   11  A    between atoms: C_25  and  S_29
REMARK   12  A    between atoms: C_30  and  O_32
REMARK   13  A    between atoms: O_33  and  C_34
REMARK   14  A    between atoms: C_34  and  O_36
REMARK                            x       y       z     vdW  Elec       q    Type
REMARK                         _______ _______ _______ _____ _____    ______ ____
ROOT
ATOM      1  C   UNL     1      52.242 152.290  26.517  0.00  0.00    +0.347 C 
ATOM      2  O   UNL     1      51.309 151.836  27.297  0.00  0.00    -0.245 OA
ENDROOT
BRANCH   1   3
ATOM      3  C   UNL     1      53.018 151.338  25.759  0.00  0.00    +0.109 C 
ATOM      4  C   UNL     1      54.041 151.682  24.975  0.00  0.00    +0.161 C 
ATOM      5  N   UNL     1      54.751 150.711  24.288  0.00  0.00    -0.227 NA
ATOM      6  C   UNL     1      54.470 149.411  24.360  0.00  0.00    +0.100 C 
ATOM      7  C   UNL     1      53.414 149.050  25.167  0.00  0.00    +0.021 C 
ATOM      8  C   UNL     1      52.672 149.959  25.873  0.00  0.00    +0.011 C 
BRANCH   4   9
ATOM      9  N   UNL     1      54.485 153.020  24.784  0.00  0.00    -0.159 N 
ATOM     10  C   UNL     1      55.817 153.254  25.253  0.00  0.00    +0.346 C 
ATOM     11  O   UNL     1      56.401 154.303  24.958  0.00  0.00    -0.261 OA
BRANCH   9  12
ATOM     12  N   UNL     1      53.757 154.028  24.176  0.00  0.00    -0.208 N 
ATOM     13  C   UNL     1      53.883 155.377  24.495  0.00  0.00    +0.330 C 
ATOM     14  O   UNL     1      54.715 155.716  25.408  0.00  0.00    -0.250 OA
ATOM     15  N   UNL     1      53.146 156.454  23.881  0.00  0.00    -0.236 N 
ATOM     16  H   UNL     1      53.112 153.776  23.476  0.00  0.00    +0.175 HD
ATOM     17  H   UNL     1      52.488 156.273  23.172  0.00  0.00    +0.170 HD
BRANCH  15  18
ATOM     18  N   UNL     1      53.389 157.774  24.319  0.00  0.00    -0.253 NA
ATOM     19  H   UNL     1      54.097 157.764  25.053  0.00  0.00    +0.141 HD
ATOM     20  H   UNL     1      52.526 158.175  24.685  0.00  0.00    +0.141 HD
ENDBRANCH  15  18
ENDBRANCH   9  12
BRANCH  10  21
ATOM     21  C   UNL     1      56.508 152.279  26.074  0.00  0.00    +0.394 C 
ATOM     22  O   UNL     1      55.925 151.757  27.058  0.00  0.00    -0.240 OA
BRANCH  21  23
ATOM     23  O   UNL     1      57.819 151.906  25.787  0.00  0.00    -0.474 OA
ATOM     24  H   UNL     1      58.265 152.287  25.057  0.00  0.00    +0.296 HD
ENDBRANCH  21  23
ENDBRANCH  10  21
ENDBRANCH   4   9
ENDBRANCH   1   3
BRANCH   1  25
ATOM     25  O   UNL     1      52.342 153.656  26.543  0.00  0.00    -0.408 OA
BRANCH  25  26
ATOM     26  C   UNL     1      52.686 154.384  27.731  0.00  0.00    +0.364 C 
ATOM     27  C   UNL     1      52.155 155.760  27.658  0.00  0.00    +0.171 C 
ATOM     28  N   UNL     1      51.419 155.509  28.913  0.00  0.00    -0.241 N 
ATOM     29  C   UNL     1      51.124 156.798  29.392  0.00  0.00    +0.132 C 
ATOM     30  C   UNL     1      51.985 157.693  28.927  0.00  0.00    +0.021 C 
ATOM     31  C   UNL     1      52.959 156.946  28.043  0.00  0.00    +0.062 C 
ATOM     32  C   UNL     1      51.546 154.116  28.719  0.00  0.00    +0.309 C 
ATOM     33  O   UNL     1      51.003 153.090  29.137  0.00  0.00    -0.267 OA
BRANCH  30  34
ATOM     34  S   UNL     1      51.998 159.453  29.269  0.00  0.00    -0.144 S 
ATOM     35  H   UNL     1      50.970 159.760  30.105  0.00  0.00    +0.107 HD
ENDBRANCH  30  34
BRANCH  29  36
ATOM     36  C   UNL     1      49.986 157.069  30.297  0.00  0.00    +0.352 C 
ATOM     37  O   UNL     1      49.590 156.220  31.127  0.00  0.00    -0.244 OA
BRANCH  36  38
ATOM     38  O   UNL     1      49.294 158.279  30.273  0.00  0.00    -0.476 OA
ATOM     39  H   UNL     1      49.547 158.952  29.672  0.00  0.00    +0.295 HD
ENDBRANCH  36  38
ENDBRANCH  29  36
BRANCH  26  40
ATOM     40  O   UNL     1      53.931 154.122  28.273  0.00  0.00    -0.380 OA
BRANCH  40  41
ATOM     41  C   UNL     1      54.194 153.105  29.151  0.00  0.00    +0.511 C 
ATOM     42  O   UNL     1      53.296 152.338  29.625  0.00  0.00    -0.203 OA
BRANCH  41  43
ATOM     43  O   UNL     1      55.488 152.805  29.617  0.00  0.00    -0.450 OA
ATOM     44  H   UNL     1      55.617 152.098  30.218  0.00  0.00    +0.299 HD
ENDBRANCH  41  43
ENDBRANCH  40  41
ENDBRANCH  26  40
ENDBRANCH  25  26
ENDBRANCH   1  25
TORSDOF 14
