REMARK  Name = =
REMARK  7 active torsions:
REMARK  status: ('A' for Active; 'I' for Inactive)
REMARK    1  A    between atoms: N_1  and  S_23
REMARK    2  A    between atoms: C_2  and  N_8
REMARK    3  A    between atoms: C_3  and  O_27
REMARK    4  A    between atoms: C_9  and  N_14
REMARK    5  A    between atoms: N_14  and  C_17
REMARK    6  A    between atoms: S_23  and  N_24
REMARK    7  A    between atoms: S_23  and  S_26
REMARK                            x       y       z     vdW  Elec       q    Type
REMARK                         _______ _______ _______ _____ _____    ______ ____
ROOT
ATOM      1  N   UNL     1      53.220 156.423  26.814  0.00  0.00    -0.220 N 
ATOM      2  C   UNL     1      53.574 155.301  26.169  0.00  0.00    +0.156 C 
ATOM      3  C   UNL     1      54.388 155.419  25.055  0.00  0.00    +0.202 C 
ATOM      4  C   UNL     1      54.853 156.624  24.576  0.00  0.00    +0.233 C 
ATOM      5  O   UNL     1      55.600 156.689  23.546  0.00  0.00    -0.283 OA
ATOM      6  C   UNL     1      54.472 157.758  25.260  0.00  0.00    +0.062 C 
ATOM      7  C   UNL     1      53.661 157.641  26.369  0.00  0.00    +0.081 C 
ENDROOT
BRANCH   2   8
ATOM      8  N   UNL     1      53.118 154.068  26.634  0.00  0.00    -0.256 N 
ATOM      9  C   UNL     1      53.885 152.942  26.370  0.00  0.00    +0.162 C 
ATOM     10  C   UNL     1      53.594 151.904  27.468  0.00  0.00    +0.046 C 
ATOM     11  C   UNL     1      52.157 151.568  27.590  0.00  0.00    +0.031 C 
ATOM     12  C   UNL     1      51.224 152.724  27.493  0.00  0.00    -0.010 C 
ATOM     13  C   UNL     1      51.814 154.017  27.116  0.00  0.00    +0.063 C 
BRANCH   9  14
ATOM     14  N   UNL     1      53.862 152.347  25.077  0.00  0.00    -0.236 N 
ATOM     15  C   UNL     1      53.964 152.988  23.831  0.00  0.00    +0.308 C 
ATOM     16  O   UNL     1      53.906 152.398  22.728  0.00  0.00    -0.265 OA
BRANCH  14  17
ATOM     17  C   UNL     1      53.695 150.911  24.999  0.00  0.00    +0.056 C 
ATOM     18  C   UNL     1      52.474 150.352  25.307  0.00  0.00    +0.015 C 
ATOM     19  C   UNL     1      52.358 148.982  25.220  0.00  0.00    +0.001 C 
ATOM     20  C   UNL     1      53.401 148.183  24.845  0.00  0.00    +0.000 C 
ATOM     21  C   UNL     1      54.605 148.734  24.543  0.00  0.00    +0.001 C 
ATOM     22  C   UNL     1      54.752 150.126  24.621  0.00  0.00    +0.015 C 
ENDBRANCH  14  17
ENDBRANCH   9  14
ENDBRANCH   2   8
BRANCH   1  23
ATOM     23  S   UNL     1      52.224 156.389  28.167  0.00  0.00    -0.032 S 
ATOM     24  H   UNL     1      50.985 156.102  27.686  0.00  0.00    +0.135 HD
BRANCH  23  25
ATOM     25  N   UNL     1      52.618 157.839  28.939  0.00  0.00    -0.208 NA
ATOM     26  C   UNL     1      51.857 158.648  29.495  0.00  0.00    +0.129 C 
ENDBRANCH  23  25
BRANCH  23  27
ATOM     27  S   UNL     1      52.538 155.315  29.404  0.00  0.00    -0.095 S 
ATOM     28  H   UNL     1      53.772 155.564  29.918  0.00  0.00    +0.115 HD
ENDBRANCH  23  27
ENDBRANCH   1  23
BRANCH   3  29
ATOM     29  O   UNL     1      54.736 154.248  24.409  0.00  0.00    -0.501 OA
ATOM     30  H   UNL     1      54.423 153.425  24.730  0.00  0.00    +0.292 HD
ENDBRANCH   3  29
TORSDOF 7
