MODEL 1
REMARK VINA RESULT:    -5.600      0.000      0.000
REMARK INTER + INTRA:         -10.988
REMARK INTER:                  -8.711
REMARK INTRA:                  -2.277
REMARK UNBOUND:                -2.277
REMARK  Name = =
REMARK  12 active torsions:
REMARK  status: ('A' for Active; 'I' for Inactive)
REMARK    1  A    between atoms: C_1  and  C_14
REMARK    2  A    between atoms: C_1  and  O_23
REMARK    3  A    between atoms: C_5  and  C_7
REMARK    4  A    between atoms: C_19  and  S_20
REMARK    5  A    between atoms: S_20  and  S_21
REMARK    6  A    between atoms: S_20  and  S_22
REMARK    7  A    between atoms: O_23  and  P_24
REMARK    8  A    between atoms: P_24  and  O_26
REMARK    9  A    between atoms: P_24  and  O_27
REMARK   10  A    between atoms: O_27  and  P_28
REMARK   11  A    between atoms: P_28  and  O_30
REMARK   12  A    between atoms: P_28  and  O_31
REMARK                            x       y       z     vdW  Elec       q    Type
REMARK                         _______ _______ _______ _____ _____    ______ ____
ROOT
ATOM      1  C   UNL     1      60.430 161.837  39.317  0.00  0.00    +0.104 C 
ATOM      2  C   UNL     1      60.627 160.311  39.251  0.00  0.00    +0.028 C 
ATOM      3  C   UNL     1      59.364 159.831  38.516  0.00  0.00    +0.002 C 
ATOM      4  C   UNL     1      58.248 159.945  39.530  0.00  0.00    +0.001 C 
ATOM      5  C   UNL     1      58.130 161.289  40.149  0.00  0.00    +0.009 C 
ATOM      6  C   UNL     1      59.432 161.958  40.473  0.00  0.00    +0.028 C 
ENDROOT
BRANCH   5   7
ATOM      7  C   UNL     1      57.322 161.189  41.427  0.00  0.00    +0.051 C 
ATOM      8  C   UNL     1      56.769 162.522  41.853  0.00  0.00    +0.146 C 
ATOM      9  O   UNL     1      55.940 162.546  42.972  0.00  0.00    -0.353 OA
ATOM     10  C   UNL     1      55.497 162.912  41.602  0.00  0.00    +0.147 C 
ATOM     11  C   UNL     1      54.401 161.987  41.192  0.00  0.00    +0.058 C 
ATOM     12  C   UNL     1      54.914 160.593  41.195  0.00  0.00    -0.028 C 
ATOM     13  C   UNL     1      56.185 160.247  41.298  0.00  0.00    -0.028 C 
ENDBRANCH   5   7
BRANCH   1  14
ATOM     14  C   UNL     1      61.711 162.543  39.714  0.00  0.00    +0.040 C 
ATOM     15  C   UNL     1      61.435 163.242  41.022  0.00  0.00    +0.008 C 
ATOM     16  C   UNL     1      62.709 163.693  41.700  0.00  0.00    +0.026 C 
ATOM     17  C   UNL     1      63.467 162.464  42.067  0.00  0.00    -0.030 C 
ATOM     18  C   UNL     1      63.503 161.382  41.061  0.00  0.00    -0.020 C 
ATOM     19  C   UNL     1      62.885 161.629  39.764  0.00  0.00    +0.069 C 
BRANCH  19  20
ATOM     20  S   UNL     1      64.165 162.140  38.556  0.00  0.00    -0.148 S 
ATOM     21  H   UNL     1      63.703 163.020  37.628  0.00  0.00    +0.104 HD
BRANCH  20  22
ATOM     22  S   UNL     1      64.774 160.391  38.357  0.00  0.00    -0.122 S 
ATOM     23  H   UNL     1      63.953 159.720  37.506  0.00  0.00    +0.113 HD
ENDBRANCH  20  22
BRANCH  20  24
ATOM     24  S   UNL     1      65.590 162.632  39.256  0.00  0.00    -0.122 S 
ATOM     25  H   UNL     1      66.361 163.256  38.325  0.00  0.00    +0.113 HD
ENDBRANCH  20  24
ENDBRANCH  19  20
ENDBRANCH   1  14
BRANCH   1  26
ATOM     26  O   UNL     1      59.921 162.210  38.127  0.00  0.00    -0.278 OA
BRANCH  26  27
ATOM     27  P   UNL     1      60.099 163.711  37.529  0.00  0.00    +0.484 P 
ATOM     28  O   UNL     1      59.510 164.783  38.459  0.00  0.00    -0.227 OA
BRANCH  27  29
ATOM     29  O   UNL     1      61.629 164.218  37.117  0.00  0.00    -0.302 OA
ATOM     30  H   UNL     1      61.994 164.760  37.835  0.00  0.00    +0.222 HD
ENDBRANCH  27  29
BRANCH  27  31
ATOM     31  O   UNL     1      59.129 163.838  36.116  0.00  0.00    -0.186 OA
BRANCH  31  32
ATOM     32  P   UNL     1      59.631 165.187  35.220  0.00  0.00    +0.481 P 
ATOM     33  O   UNL     1      60.877 164.876  34.418  0.00  0.00    -0.227 OA
BRANCH  32  34
ATOM     34  O   UNL     1      58.405 165.568  34.136  0.00  0.00    -0.302 OA
ATOM     35  H   UNL     1      58.661 166.347  33.618  0.00  0.00    +0.222 HD
ENDBRANCH  32  34
BRANCH  32  36
ATOM     36  O   UNL     1      59.923 166.437  36.309  0.00  0.00    -0.302 OA
ATOM     37  H   UNL     1      59.369 166.316  37.097  0.00  0.00    +0.222 HD
ENDBRANCH  32  36
ENDBRANCH  31  32
ENDBRANCH  27  31
ENDBRANCH  26  27
ENDBRANCH   1  26
TORSDOF 12
ENDMDL
