MODEL 1
REMARK VINA RESULT:   -10.089      0.000      0.000
REMARK INTER + INTRA:         -11.644
REMARK INTER:                 -11.859
REMARK INTRA:                   0.215
REMARK UNBOUND:                 0.215
REMARK  Name = =
REMARK  3 active torsions:
REMARK  status: ('A' for Active; 'I' for Inactive)
REMARK    1  A    between atoms: N_1  and  S_16
REMARK    2  A    between atoms: C_2  and  C_4
REMARK    3  A    between atoms: S_16  and  C_19
REMARK                            x       y       z     vdW  Elec       q    Type
REMARK                         _______ _______ _______ _____ _____    ______ ____
ROOT
ATOM      1  N   UNL     1      52.850 154.816  27.701  0.00  0.00    -0.182 N 
ATOM      2  C   UNL     1      52.773 156.194  27.300  0.00  0.00    +0.318 C 
ATOM      3  O   UNL     1      52.692 156.387  26.075  0.00  0.00    -0.264 OA
ATOM      4  H   UNL     1      52.917 154.592  28.657  0.00  0.00    +0.177 HD
ENDROOT
BRANCH   2   5
ATOM      5  C   UNL     1      52.792 157.276  28.277  0.00  0.00    +0.304 C 
ATOM      6  O   UNL     1      53.780 158.060  28.325  0.00  0.00    -0.265 OA
ATOM      7  N   UNL     1      51.723 157.475  29.180  0.00  0.00    -0.268 N 
ATOM      8  C   UNL     1      50.572 156.591  29.137  0.00  0.00    +0.099 C 
ATOM      9  C   UNL     1      49.491 156.959  30.112  0.00  0.00    +0.048 C 
ATOM     10  C   UNL     1      49.374 158.398  30.378  0.00  0.00    -0.023 C 
ATOM     11  C   UNL     1      50.505 159.192  30.389  0.00  0.00    -0.006 C 
ATOM     12  C   UNL     1      50.470 160.548  30.633  0.00  0.00    -0.003 C 
ATOM     13  C   UNL     1      49.256 161.154  30.879  0.00  0.00    -0.000 C 
ATOM     14  C   UNL     1      48.106 160.408  30.880  0.00  0.00    -0.000 C 
ATOM     15  C   UNL     1      48.177 159.036  30.629  0.00  0.00    -0.004 C 
ATOM     16  C   UNL     1      51.823 158.563  30.126  0.00  0.00    +0.120 C 
ENDBRANCH   2   5
BRANCH   1  17
ATOM     17  S   UNL     1      52.827 153.546  26.525  0.00  0.00    +0.055 S 
ATOM     18  O   UNL     1      52.582 152.221  27.141  0.00  0.00    -0.154 OA
ATOM     19  O   UNL     1      51.731 153.778  25.519  0.00  0.00    -0.154 OA
BRANCH  17  20
ATOM     20  C   UNL     1      54.419 153.524  25.739  0.00  0.00    +0.149 C 
ATOM     21  C   UNL     1      54.948 152.135  25.568  0.00  0.00    +0.025 C 
ATOM     22  C   UNL     1      54.245 151.683  24.290  0.00  0.00    +0.002 C 
ATOM     23  C   UNL     1      54.144 152.953  23.549  0.00  0.00    +0.002 C 
ATOM     24  C   UNL     1      54.241 153.994  24.352  0.00  0.00    +0.025 C 
ENDBRANCH  17  20
ENDBRANCH   1  17
TORSDOF 3
ENDMDL
