REMARK  Name = =
REMARK  3 active torsions:
REMARK  status: ('A' for Active; 'I' for Inactive)
REMARK    1  A    between atoms: N_1  and  S_16
REMARK    2  A    between atoms: C_2  and  C_4
REMARK    3  A    between atoms: S_16  and  C_19
REMARK                            x       y       z     vdW  Elec       q    Type
REMARK                         _______ _______ _______ _____ _____    ______ ____
ROOT
ATOM      1  N   UNL     1      53.390 154.752  24.912  0.00  0.00    -0.182 N 
ATOM      2  C   UNL     1      53.315 154.878  26.341  0.00  0.00    +0.318 C 
ATOM      3  O   UNL     1      53.334 153.806  26.971  0.00  0.00    -0.264 OA
ATOM      4  H   UNL     1      53.379 155.562  24.352  0.00  0.00    +0.177 HD
ENDROOT
BRANCH   2   5
ATOM      5  C   UNL     1      53.222 156.180  26.990  0.00  0.00    +0.304 C 
ATOM      6  O   UNL     1      53.736 157.193  26.439  0.00  0.00    -0.265 OA
ATOM      7  N   UNL     1      52.566 156.342  28.231  0.00  0.00    -0.268 N 
ATOM      8  C   UNL     1      51.960 155.192  28.878  0.00  0.00    +0.099 C 
ATOM      9  C   UNL     1      51.248 155.525  30.158  0.00  0.00    +0.048 C 
ATOM     10  C   UNL     1      50.640 156.861  30.187  0.00  0.00    -0.023 C 
ATOM     11  C   UNL     1      51.255 157.914  29.537  0.00  0.00    -0.006 C 
ATOM     12  C   UNL     1      50.743 159.193  29.524  0.00  0.00    -0.003 C 
ATOM     13  C   UNL     1      49.561 159.449  30.187  0.00  0.00    -0.000 C 
ATOM     14  C   UNL     1      48.914 158.438  30.848  0.00  0.00    -0.000 C 
ATOM     15  C   UNL     1      49.461 157.152  30.841  0.00  0.00    -0.004 C 
ATOM     16  C   UNL     1      52.527 157.663  28.815  0.00  0.00    +0.120 C 
ENDBRANCH   2   5
BRANCH   1  17
ATOM     17  S   UNL     1      53.499 153.196  24.161  0.00  0.00    +0.055 S 
ATOM     18  O   UNL     1      52.651 152.189  24.840  0.00  0.00    -0.154 OA
ATOM     19  O   UNL     1      53.042 153.269  22.728  0.00  0.00    -0.154 OA
BRANCH  17  20
ATOM     20  C   UNL     1      55.194 152.677  24.264  0.00  0.00    +0.149 C 
ATOM     21  C   UNL     1      55.936 153.376  25.359  0.00  0.00    +0.025 C 
ATOM     22  C   UNL     1      55.546 152.551  26.584  0.00  0.00    +0.002 C 
ATOM     23  C   UNL     1      55.403 151.207  25.995  0.00  0.00    +0.002 C 
ATOM     24  C   UNL     1      55.205 151.265  24.693  0.00  0.00    +0.025 C 
ENDBRANCH  17  20
ENDBRANCH   1  17
TORSDOF 3
