REMARK  Name = =
REMARK  1 active torsions:
REMARK  status: ('A' for Active; 'I' for Inactive)
REMARK    1  A    between atoms: C_2  and  O_13
REMARK                            x       y       z     vdW  Elec       q    Type
REMARK                         _______ _______ _______ _____ _____    ______ ____
ROOT
ATOM      1  C   UNL     1      49.767 158.435  29.784  0.00  0.00    +0.082 C 
ATOM      2  C   UNL     1      48.461 158.500  29.976  0.00  0.00    +0.176 C 
ATOM      3  C   UNL     1      47.970 159.521  30.897  0.00  0.00    +0.229 C 
ATOM      4  O   UNL     1      46.720 159.592  31.090  0.00  0.00    -0.283 OA
ATOM      5  C   UNL     1      48.858 160.446  31.593  0.00  0.00    +0.045 C 
ATOM      6  C   UNL     1      50.221 160.377  31.390  0.00  0.00    +0.042 C 
ATOM      7  C   UNL     1      51.080 161.241  32.036  0.00  0.00    +0.003 C 
ATOM      8  C   UNL     1      50.616 162.210  32.912  0.00  0.00    +0.000 C 
ATOM      9  C   UNL     1      49.239 162.288  33.123  0.00  0.00    +0.000 C 
ATOM     10  C   UNL     1      48.407 161.413  32.465  0.00  0.00    +0.003 C 
ATOM     11  C   UNL     1      50.687 159.343  30.461  0.00  0.00    +0.199 C 
ATOM     12  O   UNL     1      51.930 159.253  30.252  0.00  0.00    -0.286 OA
ENDROOT
BRANCH   2  13
ATOM     13  O   UNL     1      47.607 157.620  29.316  0.00  0.00    -0.503 OA
ATOM     14  H   UNL     1      47.957 156.977  28.732  0.00  0.00    +0.292 HD
ENDBRANCH   2  13
TORSDOF 1
