REMARK  Name = =
REMARK  3 active torsions:
REMARK  status: ('A' for Active; 'I' for Inactive)
REMARK    1  A    between atoms: C_1  and  O_14
REMARK    2  A    between atoms: C_2  and  O_13
REMARK    3  A    between atoms: O_14  and  C_19
REMARK                            x       y       z     vdW  Elec       q    Type
REMARK                         _______ _______ _______ _____ _____    ______ ____
ROOT
ATOM      1  C   UNL     1      50.250 158.843  29.939  0.00  0.00    +0.220 C 
ATOM      2  C   UNL     1      48.955 158.585  29.998  0.00  0.00    +0.211 C 
ATOM      3  C   UNL     1      48.187 159.299  31.016  0.00  0.00    +0.232 C 
ATOM      4  O   UNL     1      46.943 159.095  31.123  0.00  0.00    -0.283 OA
ATOM      5  C   UNL     1      48.810 160.257  31.933  0.00  0.00    +0.045 C 
ATOM      6  C   UNL     1      50.163 160.522  31.866  0.00  0.00    +0.045 C 
ATOM      7  C   UNL     1      50.779 161.418  32.715  0.00  0.00    +0.003 C 
ATOM      8  C   UNL     1      50.055 162.092  33.675  0.00  0.00    +0.000 C 
ATOM      9  C   UNL     1      48.702 161.826  33.740  0.00  0.00    +0.000 C 
ATOM     10  C   UNL     1      48.085 160.930  32.893  0.00  0.00    +0.003 C 
ATOM     11  C   UNL     1      50.915 159.787  30.828  0.00  0.00    +0.233 C 
ATOM     12  O   UNL     1      52.140 160.020  30.760  0.00  0.00    -0.283 OA
ENDROOT
BRANCH   2  13
ATOM     13  O   UNL     1      48.320 157.686  29.152  0.00  0.00    -0.501 OA
ATOM     14  H   UNL     1      48.813 157.228  28.499  0.00  0.00    +0.292 HD
ENDBRANCH   2  13
BRANCH   1  15
ATOM     15  O   UNL     1      51.002 158.181  28.985  0.00  0.00    -0.447 OA
BRANCH  15  20
ATOM     16  F   UNL     1      52.628 152.886  29.051  0.00  0.00    -0.204 F 
ATOM     17  C   UNL     1      52.209 154.176  29.062  0.00  0.00    +0.140 C 
ATOM     18  C   UNL     1      52.712 155.080  28.143  0.00  0.00    +0.033 C 
ATOM     19  C   UNL     1      52.287 156.390  28.151  0.00  0.00    +0.040 C 
ATOM     20  C   UNL     1      51.357 156.847  29.066  0.00  0.00    +0.146 C 
ATOM     21  C   UNL     1      50.854 155.970  29.977  0.00  0.00    +0.040 C 
ATOM     22  C   UNL     1      51.285 154.657  29.961  0.00  0.00    +0.033 C 
ENDBRANCH  15  20
ENDBRANCH   1  15
TORSDOF 3
