REMARK  Name = =
REMARK  5 active torsions:
REMARK  status: ('A' for Active; 'I' for Inactive)
REMARK    1  A    between atoms: C_1  and  O_13
REMARK    2  A    between atoms: C_2  and  O_21
REMARK    3  A    between atoms: O_13  and  C_18
REMARK    4  A    between atoms: O_21  and  S_22
REMARK    5  A    between atoms: S_22  and  S_23
REMARK                            x       y       z     vdW  Elec       q    Type
REMARK                         _______ _______ _______ _____ _____    ______ ____
ROOT
ATOM      1  C   UNL     1      50.538 160.538  31.727  0.00  0.00    +0.222 C 
ATOM      2  C   UNL     1      50.406 161.741  32.304  0.00  0.00    +0.232 C 
ATOM      3  C   UNL     1      51.436 162.755  32.219  0.00  0.00    +0.234 C 
ATOM      4  O   UNL     1      51.262 163.878  32.785  0.00  0.00    -0.283 OA
ATOM      5  C   UNL     1      52.657 162.450  31.479  0.00  0.00    +0.045 C 
ATOM      6  C   UNL     1      52.818 161.206  30.869  0.00  0.00    +0.045 C 
ATOM      7  C   UNL     1      53.957 160.887  30.164  0.00  0.00    +0.003 C 
ATOM      8  C   UNL     1      54.944 161.821  30.066  0.00  0.00    +0.000 C 
ATOM      9  C   UNL     1      54.808 163.066  30.664  0.00  0.00    +0.000 C 
ATOM     10  C   UNL     1      53.670 163.380  31.367  0.00  0.00    +0.003 C 
ATOM     11  C   UNL     1      51.752 160.216  30.982  0.00  0.00    +0.233 C 
ATOM     12  O   UNL     1      51.849 159.063  30.444  0.00  0.00    -0.283 OA
ENDROOT
BRANCH   1  13
ATOM     13  O   UNL     1      49.551 159.579  31.813  0.00  0.00    -0.447 OA
BRANCH  13  18
ATOM     14  F   UNL     1      49.292 155.209  28.441  0.00  0.00    -0.204 F 
ATOM     15  C   UNL     1      49.343 156.296  29.270  0.00  0.00    +0.140 C 
ATOM     16  C   UNL     1      48.378 157.279  29.237  0.00  0.00    +0.033 C 
ATOM     17  C   UNL     1      48.426 158.391  30.083  0.00  0.00    +0.040 C 
ATOM     18  C   UNL     1      49.482 158.484  30.965  0.00  0.00    +0.146 C 
ATOM     19  C   UNL     1      50.469 157.521  31.029  0.00  0.00    +0.040 C 
ATOM     20  C   UNL     1      50.373 156.446  30.176  0.00  0.00    +0.033 C 
ENDBRANCH  13  18
ENDBRANCH   1  13
BRANCH   2  21
ATOM     21  O   UNL     1      49.232 162.005  33.004  0.00  0.00    -0.406 OA
BRANCH  21  22
ATOM     22  S   UNL     1      47.841 162.733  32.256  0.00  0.00    +0.124 S 
BRANCH  22  23
ATOM     23  S   UNL     1      47.305 161.561  30.555  0.00  0.00    -0.068 S 
ATOM     24  H   UNL     1      46.217 162.110  29.951  0.00  0.00    +0.117 HD
ENDBRANCH  22  23
ENDBRANCH  21  22
ENDBRANCH   2  21
TORSDOF 5
