REMARK  Name = =
REMARK  8 active torsions:
REMARK  status: ('A' for Active; 'I' for Inactive)
REMARK    1  A    between atoms: C_3  and  C_18
REMARK    2  A    between atoms: C_3  and  N_34
REMARK    3  A    between atoms: C_6  and  S_13
REMARK    4  A    between atoms: C_18  and  S_19
REMARK    5  A    between atoms: S_19  and  C_20
REMARK    6  A    between atoms: N_34  and  C_35
REMARK    7  A    between atoms: C_35  and  C_36
REMARK    8  A    between atoms: C_36  and  O_38
REMARK                            x       y       z     vdW  Elec       q    Type
REMARK                         _______ _______ _______ _____ _____    ______ ____
ROOT
ATOM      1  N   UNL     1       2.635  -6.727  21.256  0.00  0.00    -0.261 N 
ATOM      2  C   UNL     1       2.738  -6.835  22.675  0.00  0.00    +0.116 C 
ATOM      3  C   UNL     1       4.175  -6.756  23.148  0.00  0.00    +0.105 C 
ATOM      4  C   UNL     1       5.122  -6.522  22.046  0.00  0.00    -0.007 C 
ATOM      5  C   UNL     1       4.777  -5.974  20.829  0.00  0.00    +0.002 C 
ATOM      6  C   UNL     1       3.346  -5.627  20.632  0.00  0.00    +0.129 C 
ATOM      7  C   UNL     1       5.723  -5.774  19.847  0.00  0.00    -0.002 C 
ATOM      8  C   UNL     1       7.062  -6.116  20.039  0.00  0.00    -0.000 C 
ATOM      9  C   UNL     1       7.415  -6.663  21.249  0.00  0.00    -0.000 C 
ATOM     10  C   UNL     1       6.473  -6.863  22.231  0.00  0.00    -0.003 C 
ATOM     11  C   UNL     1       1.896  -7.624  20.487  0.00  0.00    +0.304 C 
ATOM     12  O   UNL     1       1.253  -8.601  21.015  0.00  0.00    -0.265 OA
ENDROOT
BRANCH   6  13
ATOM     13  S   UNL     1       2.899  -5.547  18.907  0.00  0.00    -0.192 S 
ATOM     14  C   UNL     1       1.129  -5.440  18.629  0.00  0.00    +0.057 C 
ATOM     15  C   UNL     1       1.037  -3.949  18.362  0.00  0.00    +0.079 C 
ATOM     16  N   UNL     1       2.120  -3.617  17.508  0.00  0.00    -0.289 NA
ATOM     17  C   UNL     1       3.363  -4.014  18.081  0.00  0.00    +0.109 C 
ATOM     18  H   UNL     1       3.518  -6.668  18.449  0.00  0.00    +0.087 HD
ATOM     19  H   UNL     1       1.998  -4.093  16.614  0.00  0.00    +0.124 HD
ENDBRANCH   6  13
BRANCH   3  20
ATOM     20  C   UNL     1       4.438  -8.055  23.841  0.00  0.00    +0.070 C 
BRANCH  20  21
ATOM     21  S   UNL     1       4.261  -8.216  25.428  0.00  0.00    -0.180 S 
ATOM     22  H   UNL     1       2.973  -7.932  25.759  0.00  0.00    +0.097 HD
BRANCH  21  23
ATOM     23  C   UNL     1       4.641  -9.854  25.965  0.00  0.00    +0.016 A 
ATOM     24  C   UNL     1       3.742 -10.880  25.743  0.00  0.00    +0.022 A 
ATOM     25  C   UNL     1       4.050 -12.158  26.168  0.00  0.00    +0.082 A 
ATOM     26  N   UNL     1       5.206 -12.428  26.793  0.00  0.00    -0.245 NA
ATOM     27  C   UNL     1       6.123 -11.454  27.036  0.00  0.00    +0.082 A 
ATOM     28  C   UNL     1       5.818 -10.162  26.610  0.00  0.00    +0.022 A 
ATOM     29  C   UNL     1       6.757  -9.202  26.864  0.00  0.00    +0.002 C 
ATOM     30  C   UNL     1       7.936  -9.510  27.509  0.00  0.00    +0.000 C 
ATOM     31  C   UNL     1       8.225 -10.790  27.926  0.00  0.00    +0.002 C 
ATOM     32  C   UNL     1       7.298 -11.773  27.681  0.00  0.00    +0.019 C 
ATOM     33  C   UNL     1       3.126 -13.180  25.930  0.00  0.00    +0.019 C 
ATOM     34  C   UNL     1       1.925 -12.963  25.292  0.00  0.00    +0.002 C 
ATOM     35  C   UNL     1       1.631 -11.673  24.872  0.00  0.00    +0.000 C 
ATOM     36  C   UNL     1       2.535 -10.656  25.101  0.00  0.00    +0.002 C 
ENDBRANCH  21  23
ENDBRANCH  20  21
ENDBRANCH   3  20
BRANCH   3  37
ATOM     37  N   UNL     1       4.262  -5.628  24.057  0.00  0.00    -0.212 NA
BRANCH  37  38
ATOM     38  C   UNL     1       3.032  -4.930  24.211  0.00  0.00    +0.118 C 
BRANCH  38  39
ATOM     39  C   UNL     1       3.189  -3.772  25.180  0.00  0.00    +0.128 C 
ATOM     40  C   UNL     1       2.005  -3.641  26.113  0.00  0.00    +0.033 C 
BRANCH  39  41
ATOM     41  O   UNL     1       3.312  -2.582  24.465  0.00  0.00    -0.383 OA
ATOM     42  H   UNL     1       4.067  -2.645  23.859  0.00  0.00    +0.210 HD
ENDBRANCH  39  41
ENDBRANCH  38  39
ENDBRANCH  37  38
ENDBRANCH   3  37
TORSDOF 8
