REMARK  Name = =
REMARK  0 active torsions:
REMARK  status: ('A' for Active; 'I' for Inactive)
REMARK                            x       y       z     vdW  Elec       q    Type
REMARK                         _______ _______ _______ _____ _____    ______ ____
ROOT
ATOM      1  C   UNL     1      59.269 162.692  35.695  0.00  0.00    +0.000 C 
ATOM      2  C   UNL     1      59.184 164.094  35.161  0.00  0.00    +0.000 C 
ATOM      3  C   UNL     1      58.044 164.124  34.170  0.00  0.00    +0.000 C 
ATOM      4  C   UNL     1      57.199 162.947  34.625  0.00  0.00    +0.000 C 
ATOM      5  C   UNL     1      58.265 161.904  34.876  0.00  0.00    +0.000 C 
ATOM      6  C   UNL     1      58.967 161.502  33.600  0.00  0.00    +0.000 C 
ATOM      7  C   UNL     1      58.038 161.242  32.469  0.00  0.00    +0.001 C 
ATOM      8  C   UNL     1      57.018 162.343  32.277  0.00  0.00    +0.008 C 
ATOM      9  C   UNL     1      56.240 162.612  33.546  0.00  0.00    +0.001 C 
ATOM     10  C   UNL     1      55.336 161.467  33.843  0.00  0.00    +0.004 C 
ATOM     11  C   UNL     1      54.188 161.450  32.845  0.00  0.00    +0.022 C 
ATOM     12  C   UNL     1      54.673 162.070  31.553  0.00  0.00    -0.037 C 
ATOM     13  C   UNL     1      53.777 162.658  30.802  0.00  0.00    +0.034 C 
ATOM     14  C   UNL     1      54.131 163.293  29.538  0.00  0.00    +0.195 C 
ATOM     15  O   UNL     1      53.311 163.863  28.793  0.00  0.00    -0.287 OA
ATOM     16  C   UNL     1      55.525 163.251  29.133  0.00  0.00    +0.038 C 
ATOM     17  C   UNL     1      56.396 162.638  29.933  0.00  0.00    -0.019 C 
ATOM     18  C   UNL     1      56.071 161.998  31.186  0.00  0.00    +0.040 C 
ENDROOT
TORSDOF 0
