REMARK  Name = =
REMARK  2 active torsions:
REMARK  status: ('A' for Active; 'I' for Inactive)
REMARK    1  A    between atoms: C_1  and  S_19
REMARK    2  A    between atoms: S_19  and  N_22
REMARK                            x       y       z     vdW  Elec       q    Type
REMARK                         _______ _______ _______ _____ _____    ______ ____
ROOT
ATOM      1  C   UNL     1      59.246 161.478  35.091  0.00  0.00    +0.149 C 
ATOM      2  C   UNL     1      58.679 162.002  36.393  0.00  0.00    +0.026 C 
ATOM      3  C   UNL     1      57.302 162.484  35.913  0.00  0.00    +0.002 C 
ATOM      4  C   UNL     1      57.579 163.045  34.548  0.00  0.00    +0.006 C 
ATOM      5  C   UNL     1      58.937 162.579  34.132  0.00  0.00    +0.045 C 
ATOM      6  C   UNL     1      59.086 162.220  32.705  0.00  0.00    -0.029 C 
ATOM      7  C   UNL     1      58.119 162.739  31.733  0.00  0.00    -0.030 C 
ATOM      8  C   UNL     1      56.944 163.487  32.267  0.00  0.00    +0.029 C 
ATOM      9  C   UNL     1      56.514 162.774  33.535  0.00  0.00    +0.005 C 
ATOM     10  C   UNL     1      55.194 163.213  34.046  0.00  0.00    +0.005 C 
ATOM     11  C   UNL     1      54.118 163.347  33.038  0.00  0.00    +0.022 C 
ATOM     12  C   UNL     1      54.583 163.058  31.627  0.00  0.00    -0.037 C 
ATOM     13  C   UNL     1      53.805 162.389  30.807  0.00  0.00    +0.034 C 
ATOM     14  C   UNL     1      54.197 162.081  29.438  0.00  0.00    +0.195 C 
ATOM     15  O   UNL     1      53.467 161.444  28.645  0.00  0.00    -0.287 OA
ATOM     16  C   UNL     1      55.511 162.570  29.054  0.00  0.00    +0.038 C 
ATOM     17  C   UNL     1      56.278 163.240  29.889  0.00  0.00    -0.019 C 
ATOM     18  C   UNL     1      55.876 163.536  31.238  0.00  0.00    +0.044 C 
ENDROOT
BRANCH   1  19
ATOM     19  S   UNL     1      60.989 161.191  35.263  0.00  0.00    +0.036 S 
ATOM     20  O   UNL     1      61.546 160.487  34.065  0.00  0.00    -0.158 OA
ATOM     21  O   UNL     1      61.236 160.291  36.450  0.00  0.00    -0.158 OA
BRANCH  19  22
ATOM     22  N   UNL     1      61.804 162.677  35.590  0.00  0.00    -0.207 NA
ATOM     23  H   UNL     1      61.391 163.118  36.412  0.00  0.00    +0.144 HD
ATOM     24  H   UNL     1      61.711 163.299  34.787  0.00  0.00    +0.144 HD
ENDBRANCH  19  22
ENDBRANCH   1  19
TORSDOF 2
