REMARK  Name = =
REMARK  5 active torsions:
REMARK  status: ('A' for Active; 'I' for Inactive)
REMARK    1  A    between atoms: C_1  and  S_19
REMARK    2  A    between atoms: C_1  and  N_23
REMARK    3  A    between atoms: S_19  and  N_22
REMARK    4  A    between atoms: N_23  and  C_24
REMARK    5  A    between atoms: C_24  and  O_26
REMARK                            x       y       z     vdW  Elec       q    Type
REMARK                         _______ _______ _______ _____ _____    ______ ____
ROOT
ATOM      1  C   UNL     1      57.630 161.563  34.881  0.00  0.00    +0.183 C 
ATOM      2  C   UNL     1      56.208 161.050  34.730  0.00  0.00    +0.042 C 
ATOM      3  C   UNL     1      55.894 161.039  33.264  0.00  0.00    +0.004 C 
ATOM      4  C   UNL     1      57.130 161.416  32.522  0.00  0.00    +0.003 C 
ATOM      5  C   UNL     1      58.228 161.466  33.524  0.00  0.00    +0.039 C 
ATOM      6  C   UNL     1      59.335 162.403  33.214  0.00  0.00    +0.003 C 
ATOM      7  C   UNL     1      59.486 162.450  31.692  0.00  0.00    +0.001 C 
ATOM      8  C   UNL     1      58.258 162.986  31.044  0.00  0.00    +0.008 C 
ATOM      9  C   UNL     1      57.005 162.796  31.868  0.00  0.00    +0.001 C 
ATOM     10  C   UNL     1      55.743 162.889  31.082  0.00  0.00    +0.004 C 
ATOM     11  C   UNL     1      55.826 163.749  29.845  0.00  0.00    +0.022 C 
ATOM     12  C   UNL     1      57.025 163.407  29.050  0.00  0.00    -0.037 C 
ATOM     13  C   UNL     1      57.246 163.889  27.853  0.00  0.00    +0.034 C 
ATOM     14  C   UNL     1      58.426 163.560  27.058  0.00  0.00    +0.195 C 
ATOM     15  O   UNL     1      58.635 164.023  25.913  0.00  0.00    -0.287 OA
ATOM     16  C   UNL     1      59.392 162.646  27.644  0.00  0.00    +0.038 C 
ATOM     17  C   UNL     1      59.151 162.172  28.849  0.00  0.00    -0.019 C 
ATOM     18  C   UNL     1      57.991 162.476  29.668  0.00  0.00    +0.040 C 
ENDROOT
BRANCH   1  19
ATOM     19  S   UNL     1      57.548 163.181  35.546  0.00  0.00    +0.050 S 
ATOM     20  O   UNL     1      58.765 163.509  36.373  0.00  0.00    -0.156 OA
ATOM     21  O   UNL     1      57.277 164.225  34.502  0.00  0.00    -0.156 OA
BRANCH  19  22
ATOM     22  N   UNL     1      56.182 163.227  36.636  0.00  0.00    -0.206 NA
ATOM     23  H   UNL     1      56.311 162.533  37.372  0.00  0.00    +0.144 HD
ATOM     24  H   UNL     1      55.328 163.019  36.119  0.00  0.00    +0.144 HD
ENDBRANCH  19  22
ENDBRANCH   1  19
BRANCH   1  25
ATOM     25  N   UNL     1      58.398 160.719  35.776  0.00  0.00    -0.283 N 
ATOM     26  H   UNL     1      58.555 161.028  36.697  0.00  0.00    +0.152 HD
BRANCH  25  27
ATOM     27  C   UNL     1      58.932 159.468  35.380  0.00  0.00    +0.227 C 
ATOM     28  S   UNL     1      58.759 159.007  33.831  0.00  0.00    +0.006 S 
BRANCH  27  29
ATOM     29  O   UNL     1      59.578 158.685  36.313  0.00  0.00    -0.490 OA
ATOM     30  H   UNL     1      59.660 158.982  37.198  0.00  0.00    +0.294 HD
ENDBRANCH  27  29
ENDBRANCH  25  27
ENDBRANCH   1  25
TORSDOF 5
