REMARK  Name = =
REMARK  16 active torsions:
REMARK  status: ('A' for Active; 'I' for Inactive)
REMARK    1  A    between atoms: C_1  and  S_19
REMARK    2  A    between atoms: C_1  and  N_23
REMARK    3  A    between atoms: S_19  and  N_22
REMARK    4  A    between atoms: N_23  and  C_24
REMARK    5  A    between atoms: C_24  and  S_25
REMARK    6  A    between atoms: C_24  and  O_26
REMARK    7  A    between atoms: S_25  and  O_27
REMARK    8  A    between atoms: O_27  and  P_28
REMARK    9  A    between atoms: P_28  and  O_30
REMARK   10  A    between atoms: P_28  and  O_31
REMARK   11  A    between atoms: O_31  and  P_32
REMARK   12  A    between atoms: P_32  and  O_34
REMARK   13  A    between atoms: P_32  and  O_35
REMARK   14  A    between atoms: O_35  and  P_36
REMARK   15  A    between atoms: P_36  and  O_38
REMARK   16  A    between atoms: P_36  and  O_39
REMARK                            x       y       z     vdW  Elec       q    Type
REMARK                         _______ _______ _______ _____ _____    ______ ____
ROOT
ATOM      1  C   UNL     1      60.266 164.040  37.130  0.00  0.00    +0.171 C 
ATOM      2  C   UNL     1      61.575 164.122  36.335  0.00  0.00    +0.039 C 
ATOM      3  C   UNL     1      62.582 164.425  37.406  0.00  0.00    +0.003 C 
ATOM      4  C   UNL     1      61.871 165.414  38.291  0.00  0.00    +0.003 C 
ATOM      5  C   UNL     1      60.490 164.865  38.321  0.00  0.00    +0.036 C 
ATOM      6  C   UNL     1      59.388 165.789  38.636  0.00  0.00    +0.003 C 
ATOM      7  C   UNL     1      59.869 167.154  39.091  0.00  0.00    +0.001 C 
ATOM      8  C   UNL     1      60.883 167.733  38.133  0.00  0.00    +0.008 C 
ATOM      9  C   UNL     1      61.935 166.774  37.733  0.00  0.00    +0.001 C 
ATOM     10  C   UNL     1      63.262 167.412  37.617  0.00  0.00    +0.004 C 
ATOM     11  C   UNL     1      63.759 167.955  38.940  0.00  0.00    +0.022 C 
ATOM     12  C   UNL     1      62.665 168.872  39.432  0.00  0.00    -0.037 C 
ATOM     13  C   UNL     1      62.937 169.564  40.520  0.00  0.00    +0.034 C 
ATOM     14  C   UNL     1      61.970 170.487  41.104  0.00  0.00    +0.195 C 
ATOM     15  O   UNL     1      62.194 171.164  42.137  0.00  0.00    -0.287 OA
ATOM     16  C   UNL     1      60.690 170.597  40.419  0.00  0.00    +0.038 C 
ATOM     17  C   UNL     1      60.449 169.890  39.334  0.00  0.00    -0.019 C 
ATOM     18  C   UNL     1      61.398 168.990  38.766  0.00  0.00    +0.040 C 
ENDROOT
BRANCH   1  19
ATOM     19  S   UNL     1      60.156 162.283  37.575  0.00  0.00    +0.047 S 
ATOM     20  O   UNL     1      59.340 162.213  38.856  0.00  0.00    -0.157 OA
ATOM     21  O   UNL     1      61.493 161.693  37.788  0.00  0.00    -0.157 OA
BRANCH  19  22
ATOM     22  N   UNL     1      59.275 161.410  36.378  0.00  0.00    -0.206 NA
ATOM     23  H   UNL     1      59.788 161.430  35.496  0.00  0.00    +0.144 HD
ATOM     24  H   UNL     1      58.359 161.840  36.249  0.00  0.00    +0.144 HD
ENDBRANCH  19  22
ENDBRANCH   1  19
BRANCH   1  25
ATOM     25  N   UNL     1      59.135 164.327  36.314  0.00  0.00    -0.249 NA
ATOM     26  H   UNL     1      58.430 164.666  36.969  0.00  0.00    +0.128 HD
BRANCH  25  27
ATOM     27  C   UNL     1      59.035 165.192  35.216  0.00  0.00    +0.235 C 
BRANCH  27  28
ATOM     28  O   UNL     1      59.700 166.405  35.175  0.00  0.00    -0.361 OA
ATOM     29  H   UNL     1      60.208 166.523  35.993  0.00  0.00    +0.213 HD
ENDBRANCH  27  28
BRANCH  27  30
ATOM     30  S   UNL     1      58.098 164.780  33.912  0.00  0.00    -0.031 S 
ATOM     31  H   UNL     1      57.159 165.753  33.764  0.00  0.00    +0.125 HD
BRANCH  30  32
ATOM     32  O   UNL     1      57.268 163.268  33.962  0.00  0.00    -0.225 OA
BRANCH  32  33
ATOM     33  P   UNL     1      56.121 163.211  32.702  0.00  0.00    +0.494 P 
ATOM     34  O   UNL     1      56.632 164.046  31.549  0.00  0.00    -0.226 OA
BRANCH  33  35
ATOM     35  O   UNL     1      54.667 163.913  33.268  0.00  0.00    -0.302 OA
ATOM     36  H   UNL     1      54.836 164.826  33.547  0.00  0.00    +0.222 HD
ENDBRANCH  33  35
BRANCH  33  37
ATOM     37  O   UNL     1      55.840 161.615  32.211  0.00  0.00    -0.185 OA
BRANCH  37  38
ATOM     38  P   UNL     1      55.146 161.671  30.673  0.00  0.00    +0.492 P 
ATOM     39  O   UNL     1      54.944 160.259  30.155  0.00  0.00    -0.226 OA
BRANCH  38  40
ATOM     40  O   UNL     1      56.184 162.495  29.602  0.00  0.00    -0.302 OA
ATOM     41  H   UNL     1      57.050 162.059  29.592  0.00  0.00    +0.222 HD
ENDBRANCH  38  40
BRANCH  38  42
ATOM     42  O   UNL     1      53.660 162.451  30.665  0.00  0.00    -0.186 OA
BRANCH  42  43
ATOM     43  P   UNL     1      52.485 161.597  31.516  0.00  0.00    +0.481 P 
ATOM     44  O   UNL     1      51.784 160.572  30.676  0.00  0.00    -0.227 OA
BRANCH  43  45
ATOM     45  O   UNL     1      53.226 160.898  32.881  0.00  0.00    -0.302 OA
ATOM     46  H   UNL     1      53.668 161.589  33.399  0.00  0.00    +0.222 HD
ENDBRANCH  43  45
BRANCH  43  47
ATOM     47  O   UNL     1      51.336 162.704  32.104  0.00  0.00    -0.302 OA
ATOM     48  H   UNL     1      51.780 163.372  32.649  0.00  0.00    +0.222 HD
ENDBRANCH  43  47
ENDBRANCH  42  43
ENDBRANCH  38  42
ENDBRANCH  37  38
ENDBRANCH  33  37
ENDBRANCH  32  33
ENDBRANCH  30  32
ENDBRANCH  27  30
ENDBRANCH  25  27
ENDBRANCH   1  25
TORSDOF 16
