MODEL 1
REMARK VINA RESULT:    -8.234      0.000      0.000
REMARK INTER + INTRA:         -14.612
REMARK INTER:                 -12.808
REMARK INTRA:                  -1.804
REMARK UNBOUND:                -1.804
REMARK  Name = =
REMARK  11 active torsions:
REMARK  status: ('A' for Active; 'I' for Inactive)
REMARK    1  A    between atoms: C_1  and  C_10
REMARK    2  A    between atoms: C_1  and  S_18
REMARK    3  A    between atoms: C_4  and  C_15
REMARK    4  A    between atoms: C_5  and  S_25
REMARK    5  A    between atoms: C_15  and  O_17
REMARK    6  A    between atoms: S_18  and  C_19
REMARK    7  A    between atoms: S_18  and  S_23
REMARK    8  A    between atoms: N_21  and  N_22
REMARK    9  A    between atoms: S_23  and  S_24
REMARK   10  A    between atoms: S_25  and  N_26
REMARK   11  A    between atoms: C_28  and  N_32
REMARK                            x       y       z     vdW  Elec       q    Type
REMARK                         _______ _______ _______ _____ _____    ______ ____
ROOT
ATOM      1  C   UNL     1       3.998  -2.229  24.258  0.00  0.00    +0.115 C 
ATOM      2  C   UNL     1       3.356  -3.051  25.300  0.00  0.00    +0.120 C 
ATOM      3  N   UNL     1       3.068  -1.909  26.141  0.00  0.00    -0.278 N 
ATOM      4  C   UNL     1       2.755  -2.503  27.430  0.00  0.00    +0.129 C 
ATOM      5  C   UNL     1       3.297  -3.683  27.531  0.00  0.00    +0.043 C 
ATOM      6  C   UNL     1       4.052  -3.932  26.213  0.00  0.00    +0.059 C 
ATOM      7  C   UNL     1       3.333  -1.112  24.991  0.00  0.00    +0.213 C 
ATOM      8  O   UNL     1       3.081   0.086  24.732  0.00  0.00    -0.202 OA
ENDROOT
BRANCH   1  10
ATOM      9  N   UNL     1       3.361  -1.285  22.145  0.00  0.00    -0.294 NA
ATOM     10  C   UNL     1       3.211  -2.466  22.954  0.00  0.00    +0.098 C 
ATOM     11  C   UNL     1       1.791  -2.861  23.207  0.00  0.00    +0.159 C 
ATOM     12  O   UNL     1       1.241  -3.259  21.990  0.00  0.00    -0.351 OA
ATOM     13  C   UNL     1       1.935  -2.766  20.908  0.00  0.00    +0.159 C 
ATOM     14  C   UNL     1       2.403  -1.341  21.058  0.00  0.00    +0.101 C 
ATOM     15  H   UNL     1       4.307  -1.247  21.766  0.00  0.00    +0.123 HD
ENDBRANCH   1  10
BRANCH   4  16
ATOM     16  C   UNL     1       1.938  -1.727  28.375  0.00  0.00    +0.352 C 
ATOM     17  O   UNL     1       2.247  -0.590  28.763  0.00  0.00    -0.244 OA
BRANCH  16  18
ATOM     18  O   UNL     1       0.747  -2.228  28.902  0.00  0.00    -0.476 OA
ATOM     19  H   UNL     1       0.769  -2.920  29.534  0.00  0.00    +0.295 HD
ENDBRANCH  16  18
ENDBRANCH   4  16
BRANCH   1  20
ATOM     20  S   UNL     1       5.588  -2.012  24.021  0.00  0.00    -0.102 S 
ATOM     21  H   UNL     1       5.537  -0.939  23.186  0.00  0.00    +0.103 HD
BRANCH  20  22
ATOM     22  C   UNL     1       6.578  -1.385  25.179  0.00  0.00    +0.276 C 
ATOM     23  O   UNL     1       6.574  -1.841  26.378  0.00  0.00    -0.263 OA
ATOM     24  N   UNL     1       7.526  -0.309  25.028  0.00  0.00    -0.245 N 
ATOM     25  H   UNL     1       7.613   0.119  24.145  0.00  0.00    +0.169 HD
BRANCH  24  26
ATOM     26  N   UNL     1       8.326   0.157  26.072  0.00  0.00    -0.254 NA
ATOM     27  H   UNL     1       7.801   0.834  26.625  0.00  0.00    +0.140 HD
ATOM     28  H   UNL     1       9.159   0.604  25.689  0.00  0.00    +0.140 HD
ENDBRANCH  24  26
ENDBRANCH  20  22
BRANCH  20  29
ATOM     29  S   UNL     1       6.200  -3.245  23.416  0.00  0.00    -0.041 S 
BRANCH  29  30
ATOM     30  S   UNL     1       6.488  -3.756  21.571  0.00  0.00    -0.100 S 
ATOM     31  H   UNL     1       7.810  -3.644  21.271  0.00  0.00    +0.115 HD
ENDBRANCH  29  30
ENDBRANCH  20  29
ENDBRANCH   1  20
BRANCH   5  32
ATOM     32  S   UNL     1       3.282  -4.862  28.802  0.00  0.00    -0.015 S 
BRANCH  32  33
ATOM     33  N   UNL     1       1.914  -5.244  29.709  0.00  0.00    -0.188 N 
ATOM     34  C   UNL     1       0.838  -5.966  29.256  0.00  0.00    +0.111 C 
ATOM     35  C   UNL     1      -0.067  -6.133  30.260  0.00  0.00    +0.120 C 
ATOM     36  N   UNL     1       0.438  -5.512  31.353  0.00  0.00    -0.255 N 
ATOM     37  C   UNL     1       1.618  -4.986  31.016  0.00  0.00    +0.322 C 
ATOM     38  O   UNL     1       2.413  -4.328  31.744  0.00  0.00    -0.251 OA
ATOM     39  H   UNL     1       0.012  -5.458  32.238  0.00  0.00    +0.158 HD
BRANCH  35  40
ATOM     40  N   UNL     1      -1.319  -6.799  30.267  0.00  0.00    -0.290 N 
ATOM     41  C   UNL     1      -1.478  -8.169  29.846  0.00  0.00    +0.124 C 
ATOM     42  C   UNL     1      -2.591  -8.760  30.723  0.00  0.00    +0.164 C 
ATOM     43  O   UNL     1      -2.603  -8.150  31.971  0.00  0.00    -0.350 OA
ATOM     44  C   UNL     1      -3.050  -6.843  31.913  0.00  0.00    +0.164 C 
ATOM     45  C   UNL     1      -2.489  -6.081  30.714  0.00  0.00    +0.124 C 
ENDBRANCH  35  40
ENDBRANCH  32  33
ENDBRANCH   5  32
TORSDOF 11
ENDMDL
