MODEL 1
REMARK VINA RESULT:    -9.279      0.000      0.000
REMARK INTER + INTRA:         -16.361
REMARK INTER:                 -15.247
REMARK INTRA:                  -1.114
REMARK UNBOUND:                -1.114
REMARK  Name = =
REMARK  13 active torsions:
REMARK  status: ('A' for Active; 'I' for Inactive)
REMARK    1  A    between atoms: C_1  and  S_24
REMARK    2  A    between atoms: C_3  and  N_12
REMARK    3  A    between atoms: N_5  and  O_33
REMARK    4  A    between atoms: C_14  and  C_21
REMARK    5  A    between atoms: C_16  and  C_18
REMARK    6  A    between atoms: C_18  and  O_20
REMARK    7  A    between atoms: C_21  and  O_23
REMARK    8  A    between atoms: S_24  and  N_27
REMARK    9  A    between atoms: N_27  and  C_31
REMARK   10  A    between atoms: C_28  and  O_30
REMARK   11  A    between atoms: C_31  and  O_32
REMARK   12  A    between atoms: O_33  and  S_34
REMARK   13  A    between atoms: S_34  and  N_37
REMARK                            x       y       z     vdW  Elec       q    Type
REMARK                         _______ _______ _______ _____ _____    ______ ____
ROOT
ATOM      1  C   UNL     1      -2.324  -6.311  30.387  0.00  0.00    +0.205 C 
ATOM      2  N   UNL     1      -2.175  -5.303  29.586  0.00  0.00    -0.231 NA
ATOM      3  C   UNL     1      -2.638  -3.952  29.534  0.00  0.00    +0.205 C 
ATOM      4  C   UNL     1      -2.557  -3.210  30.851  0.00  0.00    +0.179 C 
ATOM      5  N   UNL     1      -3.382  -3.796  31.883  0.00  0.00    -0.211 N 
ATOM      6  C   UNL     1      -3.575  -5.151  32.277  0.00  0.00    +0.087 C 
ATOM      7  C   UNL     1      -3.115  -6.271  31.612  0.00  0.00    +0.054 C 
ATOM      8  C   UNL     1      -3.372  -7.554  32.072  0.00  0.00    +0.004 C 
ATOM      9  C   UNL     1      -4.103  -7.701  33.229  0.00  0.00    +0.000 C 
ATOM     10  C   UNL     1      -4.562  -6.607  33.897  0.00  0.00    +0.002 C 
ATOM     11  C   UNL     1      -4.304  -5.319  33.431  0.00  0.00    +0.019 C 
ENDROOT
BRANCH   3  12
ATOM     12  N   UNL     1      -1.743  -3.251  28.624  0.00  0.00    -0.283 N 
ATOM     13  C   UNL     1      -2.170  -2.842  27.333  0.00  0.00    +0.126 C 
ATOM     14  C   UNL     1      -1.330  -2.202  26.539  0.00  0.00    +0.073 C 
ATOM     15  C   UNL     1       0.054  -1.864  26.883  0.00  0.00    +0.012 C 
ATOM     16  C   UNL     1       0.430  -2.313  28.223  0.00  0.00    +0.090 C 
ATOM     17  C   UNL     1      -0.416  -2.949  29.001  0.00  0.00    +0.069 C 
BRANCH  16  18
ATOM     18  C   UNL     1       1.769  -2.065  28.740  0.00  0.00    +0.339 C 
ATOM     19  O   UNL     1       2.296  -0.905  28.713  0.00  0.00    -0.245 OA
BRANCH  18  20
ATOM     20  O   UNL     1       2.477  -3.130  29.272  0.00  0.00    -0.477 OA
ATOM     21  H   UNL     1       2.431  -3.973  28.865  0.00  0.00    +0.295 HD
ENDBRANCH  18  20
ENDBRANCH  16  18
BRANCH  14  22
ATOM     22  C   UNL     1      -1.852  -1.809  25.209  0.00  0.00    +0.336 C 
ATOM     23  O   UNL     1      -3.065  -1.813  24.940  0.00  0.00    -0.245 OA
BRANCH  22  24
ATOM     24  O   UNL     1      -0.979  -1.415  24.198  0.00  0.00    -0.477 OA
ATOM     25  H   UNL     1      -0.065  -1.610  24.265  0.00  0.00    +0.295 HD
ENDBRANCH  22  24
ENDBRANCH  14  22
ENDBRANCH   3  12
BRANCH   1  26
ATOM     26  S   UNL     1      -1.525  -7.798  30.000  0.00  0.00    +0.100 S 
ATOM     27  O   UNL     1      -0.699  -8.152  31.247  0.00  0.00    -0.148 OA
ATOM     28  O   UNL     1      -2.437  -8.977  29.845  0.00  0.00    -0.148 OA
BRANCH  26  29
ATOM     29  N   UNL     1      -0.351  -7.659  28.754  0.00  0.00    -0.095 N 
ATOM     30  C   UNL     1      -0.590  -7.942  27.395  0.00  0.00    +0.423 C 
ATOM     31  O   UNL     1       0.350  -7.805  26.572  0.00  0.00    -0.225 OA
BRANCH  30  32
ATOM     32  O   UNL     1      -1.800  -8.364  26.882  0.00  0.00    -0.465 OA
ATOM     33  H   UNL     1      -1.870  -9.208  26.482  0.00  0.00    +0.297 HD
ENDBRANCH  30  32
BRANCH  29  34
ATOM     34  C   UNL     1       0.972  -7.218  29.158  0.00  0.00    +0.264 C 
BRANCH  34  35
ATOM     35  O   UNL     1       0.948  -5.942  29.715  0.00  0.00    -0.363 OA
ATOM     36  H   UNL     1       1.432  -5.947  30.556  0.00  0.00    +0.212 HD
ENDBRANCH  34  35
ENDBRANCH  29  34
ENDBRANCH  26  29
ENDBRANCH   1  26
BRANCH   5  37
ATOM     37  O   UNL     1      -4.106  -2.917  32.603  0.00  0.00    -0.116 OA
BRANCH  37  38
ATOM     38  S   UNL     1      -5.136  -1.982  31.689  0.00  0.00    +0.086 S 
ATOM     39  O   UNL     1      -6.044  -2.916  30.911  0.00  0.00    -0.051 OA
ATOM     40  O   UNL     1      -4.417  -1.086  30.739  0.00  0.00    -0.051 OA
BRANCH  38  41
ATOM     41  N   UNL     1      -6.096  -0.976  32.733  0.00  0.00    -0.176 N 
ATOM     42  C   UNL     1      -7.177  -0.210  32.236  0.00  0.00    +0.320 C 
ATOM     43  O   UNL     1      -7.455  -0.254  31.013  0.00  0.00    -0.264 OA
ATOM     44  H   UNL     1      -5.882  -0.938  33.693  0.00  0.00    +0.177 HD
ENDBRANCH  38  41
ENDBRANCH  37  38
ENDBRANCH   5  37
TORSDOF 13
ENDMDL
