REMARK  Name = =
REMARK  13 active torsions:
REMARK  status: ('A' for Active; 'I' for Inactive)
REMARK    1  A    between atoms: C_1  and  S_24
REMARK    2  A    between atoms: C_3  and  N_12
REMARK    3  A    between atoms: N_5  and  O_33
REMARK    4  A    between atoms: C_14  and  C_21
REMARK    5  A    between atoms: C_16  and  C_18
REMARK    6  A    between atoms: C_18  and  O_20
REMARK    7  A    between atoms: C_21  and  O_23
REMARK    8  A    between atoms: S_24  and  N_27
REMARK    9  A    between atoms: N_27  and  C_31
REMARK   10  A    between atoms: C_28  and  O_30
REMARK   11  A    between atoms: C_31  and  O_32
REMARK   12  A    between atoms: O_33  and  S_34
REMARK   13  A    between atoms: S_34  and  N_37
REMARK                            x       y       z     vdW  Elec       q    Type
REMARK                         _______ _______ _______ _____ _____    ______ ____
ROOT
ATOM      1  C   UNL     1       2.167  -5.064  27.685  0.00  0.00    +0.205 C 
ATOM      2  N   UNL     1       1.398  -4.020  27.686  0.00  0.00    -0.231 NA
ATOM      3  C   UNL     1       1.567  -2.617  27.474  0.00  0.00    +0.205 C 
ATOM      4  C   UNL     1       2.431  -2.262  26.284  0.00  0.00    +0.179 C 
ATOM      5  N   UNL     1       3.791  -2.737  26.409  0.00  0.00    -0.211 N 
ATOM      6  C   UNL     1       4.314  -3.991  26.836  0.00  0.00    +0.087 C 
ATOM      7  C   UNL     1       3.599  -5.023  27.411  0.00  0.00    +0.054 C 
ATOM      8  C   UNL     1       4.208  -6.204  27.809  0.00  0.00    +0.004 C 
ATOM      9  C   UNL     1       5.564  -6.339  27.615  0.00  0.00    +0.000 C 
ATOM     10  C   UNL     1       6.282  -5.331  27.048  0.00  0.00    +0.002 C 
ATOM     11  C   UNL     1       5.668  -4.145  26.651  0.00  0.00    +0.019 C 
ENDROOT
BRANCH   3  12
ATOM     12  N   UNL     1       0.242  -2.089  27.179  0.00  0.00    -0.283 N 
ATOM     13  C   UNL     1      -0.243  -2.003  25.847  0.00  0.00    +0.126 C 
ATOM     14  C   UNL     1      -1.453  -1.525  25.621  0.00  0.00    +0.073 C 
ATOM     15  C   UNL     1      -2.375  -1.057  26.660  0.00  0.00    +0.012 C 
ATOM     16  C   UNL     1      -1.816  -1.171  28.006  0.00  0.00    +0.090 C 
ATOM     17  C   UNL     1      -0.610  -1.648  28.215  0.00  0.00    +0.069 C 
BRANCH  16  18
ATOM     18  C   UNL     1      -2.589  -0.754  29.169  0.00  0.00    +0.339 C 
ATOM     19  O   UNL     1      -3.108  -1.600  29.969  0.00  0.00    -0.245 OA
BRANCH  18  20
ATOM     20  O   UNL     1      -2.756   0.601  29.397  0.00  0.00    -0.477 OA
ATOM     21  H   UNL     1      -2.376   1.225  28.811  0.00  0.00    +0.295 HD
ENDBRANCH  18  20
ENDBRANCH  16  18
BRANCH  14  22
ATOM     22  C   UNL     1      -1.884  -1.469  24.205  0.00  0.00    +0.336 C 
ATOM     23  O   UNL     1      -1.086  -1.570  23.259  0.00  0.00    -0.245 OA
BRANCH  22  24
ATOM     24  O   UNL     1      -3.229  -1.297  23.884  0.00  0.00    -0.477 OA
ATOM     25  H   UNL     1      -3.867  -1.216  24.566  0.00  0.00    +0.295 HD
ENDBRANCH  22  24
ENDBRANCH  14  22
ENDBRANCH   3  12
BRANCH   1  26
ATOM     26  S   UNL     1       1.459  -6.611  28.010  0.00  0.00    +0.100 S 
ATOM     27  O   UNL     1       0.115  -6.607  27.265  0.00  0.00    -0.148 OA
ATOM     28  O   UNL     1       2.186  -7.772  27.403  0.00  0.00    -0.148 OA
BRANCH  26  29
ATOM     29  N   UNL     1       1.018  -6.849  29.653  0.00  0.00    -0.095 N 
ATOM     30  C   UNL     1       1.627  -6.202  30.746  0.00  0.00    +0.423 C 
ATOM     31  O   UNL     1       1.220  -6.458  31.907  0.00  0.00    -0.225 OA
BRANCH  30  32
ATOM     32  O   UNL     1       2.656  -5.288  30.643  0.00  0.00    -0.465 OA
ATOM     33  H   UNL     1       2.998  -5.060  29.801  0.00  0.00    +0.297 HD
ENDBRANCH  30  32
BRANCH  29  34
ATOM     34  C   UNL     1      -0.061  -7.788  29.904  0.00  0.00    +0.264 C 
BRANCH  34  35
ATOM     35  O   UNL     1      -1.289  -7.146  30.041  0.00  0.00    -0.363 OA
ATOM     36  H   UNL     1      -1.981  -7.805  30.207  0.00  0.00    +0.212 HD
ENDBRANCH  34  35
ENDBRANCH  29  34
ENDBRANCH  26  29
ENDBRANCH   1  26
BRANCH   5  37
ATOM     37  O   UNL     1       4.740  -1.843  26.070  0.00  0.00    -0.116 OA
BRANCH  37  38
ATOM     38  S   UNL     1       4.931  -1.650  24.428  0.00  0.00    +0.086 S 
ATOM     39  O   UNL     1       4.406  -0.276  24.057  0.00  0.00    -0.051 OA
ATOM     40  O   UNL     1       4.208  -2.686  23.635  0.00  0.00    -0.051 OA
BRANCH  38  41
ATOM     41  N   UNL     1       6.617  -1.758  24.017  0.00  0.00    -0.176 N 
ATOM     42  C   UNL     1       7.625  -1.286  24.891  0.00  0.00    +0.320 C 
ATOM     43  O   UNL     1       7.301  -0.776  25.990  0.00  0.00    -0.264 OA
ATOM     44  H   UNL     1       6.877  -2.157  23.155  0.00  0.00    +0.177 HD
ENDBRANCH  38  41
ENDBRANCH  37  38
ENDBRANCH   5  37
TORSDOF 13
