REMARK  Name = =
REMARK  11 active torsions:
REMARK  status: ('A' for Active; 'I' for Inactive)
REMARK    1  A    between atoms: C_1  and  C_10
REMARK    2  A    between atoms: C_1  and  S_18
REMARK    3  A    between atoms: C_4  and  C_15
REMARK    4  A    between atoms: C_5  and  S_25
REMARK    5  A    between atoms: C_15  and  O_17
REMARK    6  A    between atoms: S_18  and  C_19
REMARK    7  A    between atoms: S_18  and  S_23
REMARK    8  A    between atoms: N_21  and  N_22
REMARK    9  A    between atoms: S_23  and  S_24
REMARK   10  A    between atoms: S_25  and  N_26
REMARK   11  A    between atoms: C_28  and  N_32
REMARK                            x       y       z     vdW  Elec       q    Type
REMARK                         _______ _______ _______ _____ _____    ______ ____
ROOT
ATOM      1  C   UNL     1     -12.631  -1.500  30.622  0.00  0.00    +0.115 C 
ATOM      2  C   UNL     1     -12.489  -2.338  29.417  0.00  0.00    +0.120 C 
ATOM      3  N   UNL     1     -11.441  -1.508  28.863  0.00  0.00    -0.278 N 
ATOM      4  C   UNL     1     -11.378  -1.922  27.471  0.00  0.00    +0.129 C 
ATOM      5  C   UNL     1     -12.509  -2.450  27.101  0.00  0.00    +0.043 C 
ATOM      6  C   UNL     1     -13.438  -2.397  28.327  0.00  0.00    +0.059 C 
ATOM      7  C   UNL     1     -11.322  -0.947  30.166  0.00  0.00    +0.213 C 
ATOM      8  O   UNL     1     -10.427  -0.251  30.694  0.00  0.00    -0.202 OA
ENDROOT
BRANCH   1  10
ATOM      9  N   UNL     1     -13.010  -3.668  31.580  0.00  0.00    -0.294 NA
ATOM     10  C   UNL     1     -12.357  -2.411  31.835  0.00  0.00    +0.098 C 
ATOM     11  C   UNL     1     -12.743  -1.770  33.130  0.00  0.00    +0.159 C 
ATOM     12  O   UNL     1     -12.258  -2.574  34.159  0.00  0.00    -0.351 OA
ATOM     13  C   UNL     1     -12.007  -3.864  33.750  0.00  0.00    +0.159 C 
ATOM     14  C   UNL     1     -13.035  -4.437  32.808  0.00  0.00    +0.101 C 
ATOM     15  H   UNL     1     -12.497  -4.182  30.864  0.00  0.00    +0.123 HD
ENDBRANCH   1  10
BRANCH   4  16
ATOM     16  C   UNL     1     -10.130  -1.684  26.729  0.00  0.00    +0.352 C 
ATOM     17  O   UNL     1      -9.726  -2.431  25.825  0.00  0.00    -0.244 OA
BRANCH  16  18
ATOM     18  O   UNL     1      -9.311  -0.587  26.999  0.00  0.00    -0.476 OA
ATOM     19  H   UNL     1      -9.550   0.023  27.669  0.00  0.00    +0.295 HD
ENDBRANCH  16  18
ENDBRANCH   4  16
BRANCH   1  20
ATOM     20  S   UNL     1     -13.764  -0.373  30.905  0.00  0.00    -0.102 S 
ATOM     21  H   UNL     1     -13.325   0.075  32.112  0.00  0.00    +0.103 HD
BRANCH  20  22
ATOM     22  C   UNL     1     -13.803   1.064  30.101  0.00  0.00    +0.276 C 
ATOM     23  O   UNL     1     -14.246   1.143  28.899  0.00  0.00    -0.263 OA
ATOM     24  N   UNL     1     -13.377   2.351  30.591  0.00  0.00    -0.245 N 
ATOM     25  H   UNL     1     -13.017   2.408  31.506  0.00  0.00    +0.169 HD
BRANCH  24  26
ATOM     26  N   UNL     1     -13.449   3.520  29.833  0.00  0.00    -0.254 NA
ATOM     27  H   UNL     1     -13.839   3.306  28.915  0.00  0.00    +0.140 HD
ATOM     28  H   UNL     1     -12.514   3.912  29.722  0.00  0.00    +0.140 HD
ENDBRANCH  24  26
ENDBRANCH  20  22
BRANCH  20  29
ATOM     29  S   UNL     1     -15.130  -1.000  30.932  0.00  0.00    -0.041 S 
BRANCH  29  30
ATOM     30  S   UNL     1     -16.673  -0.656  32.048  0.00  0.00    -0.100 S 
ATOM     31  H   UNL     1     -17.687  -1.489  31.689  0.00  0.00    +0.115 HD
ENDBRANCH  29  30
ENDBRANCH  20  29
ENDBRANCH   1  20
BRANCH   5  32
ATOM     32  S   UNL     1     -13.039  -3.119  25.592  0.00  0.00    -0.015 S 
BRANCH  32  33
ATOM     33  N   UNL     1     -12.004  -3.823  24.464  0.00  0.00    -0.188 N 
ATOM     34  C   UNL     1     -11.444  -5.072  24.571  0.00  0.00    +0.111 C 
ATOM     35  C   UNL     1     -10.700  -5.346  23.464  0.00  0.00    +0.120 C 
ATOM     36  N   UNL     1     -10.788  -4.265  22.653  0.00  0.00    -0.255 N 
ATOM     37  C   UNL     1     -11.566  -3.363  23.256  0.00  0.00    +0.322 C 
ATOM     38  O   UNL     1     -11.901  -2.220  22.836  0.00  0.00    -0.251 OA
ATOM     39  H   UNL     1     -10.355  -4.162  21.775  0.00  0.00    +0.158 HD
BRANCH  35  40
ATOM     40  N   UNL     1      -9.942  -6.497  23.129  0.00  0.00    -0.290 N 
ATOM     41  C   UNL     1      -8.912  -6.488  22.120  0.00  0.00    +0.124 C 
ATOM     42  C   UNL     1      -7.838  -7.477  22.596  0.00  0.00    +0.164 C 
ATOM     43  O   UNL     1      -7.797  -7.521  23.983  0.00  0.00    -0.350 OA
ATOM     44  C   UNL     1      -8.910  -8.140  24.523  0.00  0.00    +0.164 C 
ATOM     45  C   UNL     1     -10.206  -7.733  23.826  0.00  0.00    +0.124 C 
ENDBRANCH  35  40
ENDBRANCH  32  33
ENDBRANCH   5  32
TORSDOF 11
