REMARK  Name = =
REMARK  0 active torsions:
REMARK  status: ('A' for Active; 'I' for Inactive)
REMARK                            x       y       z     vdW  Elec       q    Type
REMARK                         _______ _______ _______ _____ _____    ______ ____
ROOT
ATOM      1  C   UNL     1      51.575 154.858  28.972  0.00  0.00    +0.021 C 
ATOM      2  C   UNL     1      51.380 156.084  29.565  0.00  0.00    +0.002 C 
ATOM      3  C   UNL     1      51.907 157.206  28.948  0.00  0.00    +0.002 C 
ATOM      4  C   UNL     1      52.615 157.138  27.771  0.00  0.00    +0.021 C 
ATOM      5  C   UNL     1      52.807 155.906  27.182  0.00  0.00    +0.099 A 
ATOM      6  N   UNL     1      53.487 155.766  26.036  0.00  0.00    -0.242 NA
ATOM      7  C   UNL     1      53.680 154.555  25.449  0.00  0.00    +0.099 A 
ATOM      8  C   UNL     1      54.385 154.457  24.269  0.00  0.00    +0.021 C 
ATOM      9  C   UNL     1      54.566 153.224  23.699  0.00  0.00    +0.002 C 
ATOM     10  C   UNL     1      54.043 152.106  24.309  0.00  0.00    +0.002 C 
ATOM     11  C   UNL     1      53.349 152.209  25.470  0.00  0.00    +0.021 C 
ATOM     12  C   UNL     1      53.165 153.442  26.047  0.00  0.00    +0.099 A 
ATOM     13  N   UNL     1      52.476 153.570  27.207  0.00  0.00    -0.242 NA
ATOM     14  C   UNL     1      52.285 154.769  27.787  0.00  0.00    +0.099 A 
ENDROOT
TORSDOF 0
