REMARK  Name = =
REMARK  2 active torsions:
REMARK  status: ('A' for Active; 'I' for Inactive)
REMARK    1  A    between atoms: C_1  and  N_15
REMARK    2  A    between atoms: N_15  and  N_16
REMARK                            x       y       z     vdW  Elec       q    Type
REMARK                         _______ _______ _______ _____ _____    ______ ____
ROOT
ATOM      1  C   UNL     1      52.371 155.279  28.139  0.00  0.00    +0.084 C 
ATOM      2  C   UNL     1      52.480 156.664  28.126  0.00  0.00    +0.018 C 
ATOM      3  C   UNL     1      53.071 157.288  27.049  0.00  0.00    +0.003 C 
ATOM      4  C   UNL     1      53.558 156.570  25.976  0.00  0.00    +0.021 C 
ATOM      5  C   UNL     1      53.451 155.203  25.988  0.00  0.00    +0.100 A 
ATOM      6  N   UNL     1      53.915 154.438  24.955  0.00  0.00    -0.242 NA
ATOM      7  C   UNL     1      53.800 153.095  24.984  0.00  0.00    +0.099 A 
ATOM      8  C   UNL     1      54.267 152.327  23.946  0.00  0.00    +0.021 C 
ATOM      9  C   UNL     1      54.160 150.947  23.953  0.00  0.00    +0.002 C 
ATOM     10  C   UNL     1      53.574 150.292  25.017  0.00  0.00    +0.002 C 
ATOM     11  C   UNL     1      53.109 151.071  26.056  0.00  0.00    +0.021 C 
ATOM     12  C   UNL     1      53.209 152.450  26.058  0.00  0.00    +0.099 A 
ATOM     13  N   UNL     1      52.758 153.211  27.065  0.00  0.00    -0.241 NA
ATOM     14  C   UNL     1      52.862 154.573  27.061  0.00  0.00    +0.114 A 
ENDROOT
BRANCH   1  15
ATOM     15  N   UNL     1      51.763 154.625  29.245  0.00  0.00    -0.234 N 
ATOM     16  H   UNL     1      51.810 153.643  29.298  0.00  0.00    +0.174 HD
BRANCH  15  17
ATOM     17  N   UNL     1      51.103 155.320  30.257  0.00  0.00    -0.178 NA
ATOM     18  C   UNL     1      50.174 156.148  29.934  0.00  0.00    +0.140 C 
ENDBRANCH  15  17
ENDBRANCH   1  15
TORSDOF 2
