REMARK  Name = =
REMARK  4 active torsions:
REMARK  status: ('A' for Active; 'I' for Inactive)
REMARK    1  A    between atoms: C_1  and  N_15
REMARK    2  A    between atoms: N_15  and  N_16
REMARK    3  A    between atoms: N_15  and  N_22
REMARK    4  A    between atoms: N_19  and  C_20
REMARK                            x       y       z     vdW  Elec       q    Type
REMARK                         _______ _______ _______ _____ _____    ______ ____
ROOT
ATOM      1  C   UNL     1      52.407 155.137  27.734  0.00  0.00    +0.109 C 
ATOM      2  C   UNL     1      52.668 156.439  27.622  0.00  0.00    +0.020 C 
ATOM      3  C   UNL     1      53.390 156.925  26.564  0.00  0.00    +0.003 C 
ATOM      4  C   UNL     1      53.864 155.997  25.620  0.00  0.00    +0.021 C 
ATOM      5  C   UNL     1      53.632 154.704  25.698  0.00  0.00    +0.100 A 
ATOM      6  N   UNL     1      54.098 153.835  24.817  0.00  0.00    -0.242 NA
ATOM      7  C   UNL     1      53.861 152.473  24.917  0.00  0.00    +0.099 A 
ATOM      8  C   UNL     1      54.364 151.587  24.004  0.00  0.00    +0.021 C 
ATOM      9  C   UNL     1      54.145 150.240  24.074  0.00  0.00    +0.002 C 
ATOM     10  C   UNL     1      53.373 149.759  25.118  0.00  0.00    +0.002 C 
ATOM     11  C   UNL     1      52.885 150.679  26.053  0.00  0.00    +0.021 C 
ATOM     12  C   UNL     1      53.121 152.052  25.980  0.00  0.00    +0.099 A 
ATOM     13  N   UNL     1      52.633 152.864  26.900  0.00  0.00    -0.241 NA
ATOM     14  C   UNL     1      52.884 154.212  26.790  0.00  0.00    +0.116 A 
ENDROOT
BRANCH   1  15
ATOM     15  N   UNL     1      51.764 154.635  28.927  0.00  0.00    -0.135 N 
BRANCH  15  16
ATOM     16  N   UNL     1      51.580 153.359  29.171  0.00  0.00    -0.198 N 
ATOM     17  C   UNL     1      50.590 152.989  30.311  0.00  0.00    +0.320 C 
ATOM     18  O   UNL     1      50.085 153.889  30.839  0.00  0.00    -0.251 OA
ATOM     19  N   UNL     1      50.632 151.592  30.314  0.00  0.00    -0.260 N 
ATOM     20  H   UNL     1      52.049 152.665  28.654  0.00  0.00    +0.176 HD
ATOM     21  H   UNL     1      50.915 150.938  29.635  0.00  0.00    +0.153 HD
BRANCH  19  22
ATOM     22  C   UNL     1      50.005 151.402  31.951  0.00  0.00    +0.278 C 
ATOM     23  O   UNL     1      49.828 152.402  32.530  0.00  0.00    -0.196 OA
ENDBRANCH  19  22
ENDBRANCH  15  16
BRANCH  15  24
ATOM     24  N   UNL     1      51.396 155.650  29.907  0.00  0.00    -0.157 NA
ATOM     25  C   UNL     1      50.393 156.447  29.742  0.00  0.00    +0.142 C 
ENDBRANCH  15  24
ENDBRANCH   1  15
TORSDOF 4
