REMARK  Name = =
REMARK  6 active torsions:
REMARK  status: ('A' for Active; 'I' for Inactive)
REMARK    1  A    between atoms: N_1  and  C_2
REMARK    2  A    between atoms: N_1  and  N_16
REMARK    3  A    between atoms: N_1  and  N_29
REMARK    4  A    between atoms: N_16  and  N_22
REMARK    5  A    between atoms: N_22  and  C_25
REMARK    6  A    between atoms: C_23  and  C_27
REMARK                            x       y       z     vdW  Elec       q    Type
REMARK                         _______ _______ _______ _____ _____    ______ ____
ROOT
ATOM      1  N   UNL     1      52.075 154.595  28.474  0.00  0.00    -0.114 N 
ENDROOT
BRANCH   1   2
ATOM      2  C   UNL     1      52.717 155.121  27.356  0.00  0.00    +0.110 C 
ATOM      3  C   UNL     1      52.925 156.450  27.102  0.00  0.00    +0.020 C 
ATOM      4  C   UNL     1      53.556 156.936  25.954  0.00  0.00    +0.003 C 
ATOM      5  C   UNL     1      53.984 156.006  25.040  0.00  0.00    +0.021 C 
ATOM      6  C   UNL     1      53.796 154.657  25.255  0.00  0.00    +0.100 A 
ATOM      7  N   UNL     1      54.229 153.735  24.347  0.00  0.00    -0.242 NA
ATOM      8  C   UNL     1      54.074 152.415  24.515  0.00  0.00    +0.099 A 
ATOM      9  C   UNL     1      54.530 151.508  23.570  0.00  0.00    +0.021 C 
ATOM     10  C   UNL     1      54.348 150.164  23.786  0.00  0.00    +0.002 C 
ATOM     11  C   UNL     1      53.719 149.699  24.930  0.00  0.00    +0.002 C 
ATOM     12  C   UNL     1      53.282 150.635  25.844  0.00  0.00    +0.021 C 
ATOM     13  C   UNL     1      53.442 152.004  25.671  0.00  0.00    +0.099 A 
ATOM     14  N   UNL     1      52.997 152.879  26.596  0.00  0.00    -0.241 NA
ATOM     15  C   UNL     1      53.176 154.191  26.384  0.00  0.00    +0.116 A 
ENDBRANCH   1   2
BRANCH   1  16
ATOM     16  N   UNL     1      51.547 155.273  29.547  0.00  0.00    -0.086 N 
ATOM     17  C   UNL     1      51.237 154.582  30.776  0.00  0.00    +0.345 C 
ATOM     18  O   UNL     1      51.506 153.361  30.810  0.00  0.00    -0.249 OA
ATOM     19  N   UNL     1      50.667 155.210  31.880  0.00  0.00    -0.230 N 
ATOM     20  C   UNL     1      50.355 154.519  33.102  0.00  0.00    +0.307 C 
ATOM     21  O   UNL     1      50.583 153.297  33.190  0.00  0.00    -0.265 OA
ATOM     22  H   UNL     1      50.468 156.172  31.821  0.00  0.00    +0.160 HD
BRANCH  16  23
ATOM     23  N   UNL     1      51.239 156.672  29.585  0.00  0.00    -0.149 N 
ATOM     24  C   UNL     1      49.890 156.999  29.597  0.00  0.00    +0.313 C 
ATOM     25  O   UNL     1      49.010 156.012  29.553  0.00  0.00    -0.264 OA
BRANCH  23  26
ATOM     26  C   UNL     1      52.340 157.519  29.612  0.00  0.00    +0.132 C 
ATOM     27  S   UNL     1      52.441 159.117  29.739  0.00  0.00    -0.031 S 
ENDBRANCH  23  26
BRANCH  24  28
ATOM     28  C   UNL     1      49.251 158.281  29.652  0.00  0.00    +0.294 C 
ATOM     29  O   UNL     1      49.781 159.273  30.164  0.00  0.00    -0.278 OA
ENDBRANCH  24  28
ENDBRANCH  16  23
ENDBRANCH   1  16
BRANCH   1  30
ATOM     30  N   UNL     1      51.904 153.166  28.559  0.00  0.00    -0.156 NA
ATOM     31  C   UNL     1      50.758 152.666  28.204  0.00  0.00    +0.142 C 
ENDBRANCH   1  30
TORSDOF 6
