REMARK  Name = =
REMARK  7 active torsions:
REMARK  status: ('A' for Active; 'I' for Inactive)
REMARK    1  A    between atoms: N_1  and  N_7
REMARK    2  A    between atoms: N_1  and  N_24
REMARK    3  A    between atoms: N_7  and  C_10
REMARK    4  A    between atoms: C_8  and  C_12
REMARK    5  A    between atoms: C_12  and  C_14
REMARK    6  A    between atoms: N_24  and  C_25
REMARK    7  A    between atoms: N_24  and  N_39
REMARK                            x       y       z     vdW  Elec       q    Type
REMARK                         _______ _______ _______ _____ _____    ______ ____
ROOT
ATOM      1  N   UNL     1      52.450 154.745  27.990  0.00  0.00    -0.086 N 
ATOM      2  C   UNL     1      53.253 153.917  28.754  0.00  0.00    +0.345 C 
ATOM      3  O   UNL     1      52.967 153.763  29.999  0.00  0.00    -0.249 OA
ATOM      4  N   UNL     1      54.388 153.188  28.338  0.00  0.00    -0.230 N 
ATOM      5  C   UNL     1      55.135 152.364  29.225  0.00  0.00    +0.307 C 
ATOM      6  O   UNL     1      54.777 152.275  30.417  0.00  0.00    -0.265 OA
ATOM      7  H   UNL     1      54.674 153.252  27.398  0.00  0.00    +0.160 HD
ENDROOT
BRANCH   1   8
ATOM      8  N   UNL     1      51.315 155.383  28.679  0.00  0.00    -0.149 N 
ATOM      9  C   UNL     1      51.601 156.624  29.181  0.00  0.00    +0.305 C 
ATOM     10  O   UNL     1      52.826 157.067  28.999  0.00  0.00    -0.265 OA
BRANCH   8  11
ATOM     11  C   UNL     1      50.163 154.646  28.717  0.00  0.00    +0.132 C 
ATOM     12  S   UNL     1      48.684 155.144  29.051  0.00  0.00    -0.031 S 
ENDBRANCH   8  11
BRANCH   9  13
ATOM     13  C   UNL     1      50.766 157.536  29.882  0.00  0.00    +0.229 C 
ATOM     14  O   UNL     1      49.760 157.181  30.518  0.00  0.00    -0.286 OA
BRANCH  13  15
ATOM     15  C   UNL     1      51.033 159.016  29.913  0.00  0.00    +0.088 C 
ATOM     16  C   UNL     1      52.088 159.515  28.994  0.00  0.00    +0.042 C 
ATOM     17  C   UNL     1      52.736 160.621  29.811  0.00  0.00    +0.142 C 
ATOM     18  O   UNL     1      52.649 160.164  31.121  0.00  0.00    -0.358 OA
ATOM     19  C   UNL     1      51.394 159.569  31.242  0.00  0.00    +0.104 C 
ATOM     20  C   UNL     1      50.203 159.952  30.645  0.00  0.00    +0.042 C 
ATOM     21  C   UNL     1      48.949 160.448  30.384  0.00  0.00    +0.029 C 
ATOM     22  C   UNL     1      48.367 160.979  31.491  0.00  0.00    -0.031 C 
ATOM     23  C   UNL     1      49.323 160.817  32.560  0.00  0.00    -0.029 C 
ATOM     24  C   UNL     1      50.393 160.231  32.119  0.00  0.00    +0.050 C 
ENDBRANCH  13  15
ENDBRANCH   9  13
ENDBRANCH   1   8
BRANCH   1  25
ATOM     25  N   UNL     1      52.585 155.036  26.674  0.00  0.00    -0.114 N 
BRANCH  25  26
ATOM     26  C   UNL     1      53.570 154.628  25.753  0.00  0.00    +0.110 C 
ATOM     27  C   UNL     1      54.429 155.522  25.142  0.00  0.00    +0.020 C 
ATOM     28  C   UNL     1      55.390 155.094  24.233  0.00  0.00    +0.003 C 
ATOM     29  C   UNL     1      55.512 153.761  23.917  0.00  0.00    +0.021 C 
ATOM     30  C   UNL     1      54.654 152.835  24.522  0.00  0.00    +0.100 A 
ATOM     31  N   UNL     1      54.777 151.534  24.215  0.00  0.00    -0.242 NA
ATOM     32  C   UNL     1      53.918 150.673  24.836  0.00  0.00    +0.099 A 
ATOM     33  C   UNL     1      54.002 149.311  24.554  0.00  0.00    +0.021 C 
ATOM     34  C   UNL     1      53.141 148.449  25.179  0.00  0.00    +0.002 C 
ATOM     35  C   UNL     1      52.187 148.865  26.078  0.00  0.00    +0.002 C 
ATOM     36  C   UNL     1      52.098 150.207  26.361  0.00  0.00    +0.021 C 
ATOM     37  C   UNL     1      52.964 151.095  25.736  0.00  0.00    +0.099 A 
ATOM     38  N   UNL     1      52.870 152.426  26.023  0.00  0.00    -0.241 NA
ATOM     39  C   UNL     1      53.706 153.276  25.421  0.00  0.00    +0.116 A 
ENDBRANCH  25  26
BRANCH  25  40
ATOM     40  N   UNL     1      51.573 155.873  26.083  0.00  0.00    -0.156 NA
ATOM     41  C   UNL     1      50.555 155.335  25.506  0.00  0.00    +0.142 C 
ENDBRANCH  25  40
ENDBRANCH   1  25
TORSDOF 7
