MODEL 1
REMARK VINA RESULT:    -6.870      0.000      0.000
REMARK INTER + INTRA:         -12.469
REMARK INTER:                 -10.283
REMARK INTRA:                  -2.185
REMARK UNBOUND:                -2.185
REMARK  Name = =
REMARK  9 active torsions:
REMARK  status: ('A' for Active; 'I' for Inactive)
REMARK    1  A    between atoms: C_1  and  C_15
REMARK    2  A    between atoms: C_10  and  C_24
REMARK    3  A    between atoms: N_11  and  C_16
REMARK    4  A    between atoms: C_16  and  S_18
REMARK    5  A    between atoms: C_17  and  C_22
REMARK    6  A    between atoms: S_18  and  N_21
REMARK    7  A    between atoms: C_25  and  C_26
REMARK    8  A    between atoms: C_25  and  N_32
REMARK    9  A    between atoms: N_32  and  N_35
REMARK                            x       y       z     vdW  Elec       q    Type
REMARK                         _______ _______ _______ _____ _____    ______ ____
ROOT
ATOM      1  C   UNL     1      60.168 165.782  35.567  0.00  0.00    +0.140 C 
ATOM      2  N   UNL     1      59.982 164.703  34.817  0.00  0.00    -0.145 NA
ATOM      3  N   UNL     1      59.685 163.494  35.264  0.00  0.00    -0.146 NA
ATOM      4  C   UNL     1      59.546 163.269  36.585  0.00  0.00    +0.122 C 
ATOM      5  C   UNL     1      59.720 164.330  37.449  0.00  0.00    +0.023 C 
ATOM      6  C   UNL     1      60.029 165.573  36.924  0.00  0.00    +0.024 C 
ATOM      7  C   UNL     1      60.194 166.622  37.783  0.00  0.00    +0.002 C 
ATOM      8  C   UNL     1      60.044 166.405  39.167  0.00  0.00    +0.000 C 
ATOM      9  C   UNL     1      59.735 165.154  39.656  0.00  0.00    +0.000 C 
ATOM     10  C   UNL     1      59.570 164.106  38.800  0.00  0.00    +0.003 C 
ENDROOT
BRANCH   1  15
ATOM     11  N   UNL     1      61.660 167.640  34.803  0.00  0.00    -0.171 N 
ATOM     12  N   UNL     1      61.392 168.801  34.090  0.00  0.00    -0.037 NA
ATOM     13  N   UNL     1      60.132 168.910  33.821  0.00  0.00    -0.022 NA
ATOM     14  N   UNL     1      59.565 167.861  34.330  0.00  0.00    -0.106 NA
ATOM     15  C   UNL     1      60.496 167.055  34.944  0.00  0.00    +0.209 A 
BRANCH  11  16
ATOM     16  C   UNL     1      62.973 167.350  35.147  0.00  0.00    +0.207 C 
ATOM     17  C   UNL     1      63.482 167.948  36.253  0.00  0.00    +0.040 C 
BRANCH  16  18
ATOM     18  S   UNL     1      64.011 166.156  34.470  0.00  0.00    +0.074 S 
ATOM     19  O   UNL     1      65.434 166.779  34.288  0.00  0.00    -0.152 OA
ATOM     20  O   UNL     1      64.269 165.071  35.475  0.00  0.00    -0.152 OA
BRANCH  18  21
ATOM     21  N   UNL     1      63.535 165.477  32.987  0.00  0.00    -0.202 NA
ATOM     22  H   UNL     1      62.957 164.654  33.160  0.00  0.00    +0.144 HD
ATOM     23  H   UNL     1      64.363 165.206  32.456  0.00  0.00    +0.144 HD
ENDBRANCH  18  21
ENDBRANCH  16  18
BRANCH  17  24
ATOM     24  C   UNL     1      62.888 168.969  37.042  0.00  0.00    +0.003 C 
ATOM     25  C   UNL     1      63.057 168.905  38.390  0.00  0.00    +0.000 C 
ENDBRANCH  17  24
ENDBRANCH  11  16
ENDBRANCH   1  15
BRANCH  10  26
ATOM     26  C   UNL     1      59.276 162.783  39.326  0.00  0.00    +0.017 C 
ATOM     27  C   UNL     1      60.154 161.956  39.800  0.00  0.00    +0.073 C 
BRANCH  27  28
ATOM     28  C   UNL     1      59.807 160.645  40.311  0.00  0.00    +0.015 C 
ATOM     29  C   UNL     1      59.875 160.265  41.631  0.00  0.00    +0.001 C 
ATOM     30  C   UNL     1      59.544 159.004  42.098  0.00  0.00    +0.000 C 
ATOM     31  C   UNL     1      59.116 158.051  41.202  0.00  0.00    +0.000 C 
ATOM     32  C   UNL     1      59.030 158.380  39.860  0.00  0.00    +0.000 C 
ATOM     33  C   UNL     1      59.366 159.639  39.433  0.00  0.00    +0.001 C 
ENDBRANCH  27  28
BRANCH  27  34
ATOM     34  N   UNL     1      61.531 162.359  39.817  0.00  0.00    -0.179 N 
ATOM     35  C   UNL     1      62.048 163.044  40.966  0.00  0.00    +0.324 C 
ATOM     36  O   UNL     1      63.250 163.396  40.983  0.00  0.00    -0.263 OA
BRANCH  34  37
ATOM     37  N   UNL     1      62.395 162.106  38.765  0.00  0.00    -0.219 N 
ATOM     38  C   UNL     1      63.206 160.944  38.665  0.00  0.00    +0.317 C 
ATOM     39  O   UNL     1      63.176 160.073  39.550  0.00  0.00    -0.264 OA
ATOM     40  H   UNL     1      62.450 162.772  38.041  0.00  0.00    +0.174 HD
ENDBRANCH  34  37
ENDBRANCH  27  34
ENDBRANCH  10  26
TORSDOF 9
ENDMDL
