REMARK  Name = =
REMARK  2 active torsions:
REMARK  status: ('A' for Active; 'I' for Inactive)
REMARK    1  A    between atoms: S_1  and  N_4
REMARK    2  A    between atoms: S_1  and  N_5
REMARK                            x       y       z     vdW  Elec       q    Type
REMARK                         _______ _______ _______ _____ _____    ______ ____
ROOT
ATOM      1  S   UNL     1      52.201 156.912  28.816  0.00  0.00    +0.090 S 
ATOM      2  O   UNL     1      53.084 157.953  29.441  0.00  0.00    -0.142 OA
ATOM      3  O   UNL     1      52.047 157.274  27.371  0.00  0.00    -0.142 OA
ENDROOT
BRANCH   1   4
ATOM      4  N   UNL     1      52.808 155.329  29.049  0.00  0.00    -0.194 NA
ATOM      5  H   UNL     1      52.891 155.140  30.048  0.00  0.00    +0.145 HD
ATOM      6  H   UNL     1      53.725 155.249  28.610  0.00  0.00    +0.145 HD
ENDBRANCH   1   4
BRANCH   1   7
ATOM      7  N   UNL     1      50.671 157.000  29.625  0.00  0.00    -0.194 NA
ATOM      8  H   UNL     1      50.791 156.751  30.607  0.00  0.00    +0.145 HD
ATOM      9  H   UNL     1      50.017 156.351  29.187  0.00  0.00    +0.145 HD
ENDBRANCH   1   7
TORSDOF 2
