REMARK  Name = =
REMARK  3 active torsions:
REMARK  status: ('A' for Active; 'I' for Inactive)
REMARK    1  A    between atoms: C_1  and  N_13
REMARK    2  A    between atoms: N_13  and  S_14
REMARK    3  A    between atoms: S_14  and  N_17
REMARK                            x       y       z     vdW  Elec       q    Type
REMARK                         _______ _______ _______ _____ _____    ______ ____
ROOT
ATOM      1  C   UNL     1      50.190 158.497  30.623  0.00  0.00    +0.108 C 
ATOM      2  C   UNL     1      49.460 157.408  30.497  0.00  0.00    +0.061 C 
ATOM      3  C   UNL     1      49.903 156.337  29.604  0.00  0.00    +0.197 C 
ATOM      4  O   UNL     1      49.227 155.276  29.458  0.00  0.00    -0.287 OA
ATOM      5  C   UNL     1      51.141 156.435  28.841  0.00  0.00    +0.042 C 
ATOM      6  C   UNL     1      51.891 157.569  28.978  0.00  0.00    +0.043 C 
ATOM      7  C   UNL     1      53.072 157.687  28.262  0.00  0.00    +0.003 C 
ATOM      8  C   UNL     1      53.496 156.696  27.428  0.00  0.00    +0.000 C 
ATOM      9  C   UNL     1      52.738 155.549  27.288  0.00  0.00    +0.000 C 
ATOM     10  C   UNL     1      51.556 155.426  28.001  0.00  0.00    +0.003 C 
ATOM     11  C   UNL     1      51.429 158.623  29.871  0.00  0.00    +0.210 C 
ATOM     12  O   UNL     1      52.153 159.664  29.976  0.00  0.00    -0.285 OA
ENDROOT
BRANCH   1  13
ATOM     13  N   UNL     1      49.807 159.563  31.470  0.00  0.00    -0.202 N 
ATOM     14  H   UNL     1      50.241 159.669  32.347  0.00  0.00    +0.175 HD
BRANCH  13  15
ATOM     15  S   UNL     1      48.585 160.679  30.980  0.00  0.00    +0.107 S 
ATOM     16  O   UNL     1      48.674 161.938  31.793  0.00  0.00    -0.138 OA
ATOM     17  O   UNL     1      48.808 161.050  29.542  0.00  0.00    -0.138 OA
BRANCH  15  18
ATOM     18  N   UNL     1      47.054 159.894  31.181  0.00  0.00    -0.191 NA
ATOM     19  H   UNL     1      46.923 159.651  32.163  0.00  0.00    +0.146 HD
ATOM     20  H   UNL     1      47.030 159.046  30.615  0.00  0.00    +0.146 HD
ENDBRANCH  15  18
ENDBRANCH  13  15
ENDBRANCH   1  13
TORSDOF 3
