REMARK  Name = =
REMARK  0 active torsions:
REMARK  status: ('A' for Active; 'I' for Inactive)
REMARK                            x       y       z     vdW  Elec       q    Type
REMARK                         _______ _______ _______ _____ _____    ______ ____
ROOT
ATOM      1  C   UNL     1      -4.417  -4.009  30.657  0.00  0.00    +0.000 C 
ATOM      2  C   UNL     1      -2.995  -3.597  30.252  0.00  0.00    +0.000 C 
ATOM      3  C   UNL     1      -2.304  -4.927  30.160  0.00  0.00    +0.000 C 
ATOM      4  C   UNL     1      -3.131  -5.914  30.960  0.00  0.00    +0.000 C 
ATOM      5  C   UNL     1      -4.056  -4.998  31.772  0.00  0.00    +0.000 C 
ENDROOT
TORSDOF 0
