REMARK  Name = =
REMARK  7 active torsions:
REMARK  status: ('A' for Active; 'I' for Inactive)
REMARK    1  A    between atoms: C_1  and  N_12
REMARK    2  A    between atoms: C_1  and  N_17
REMARK    3  A    between atoms: C_4  and  N_6
REMARK    4  A    between atoms: C_5  and  N_25
REMARK    5  A    between atoms: N_17  and  S_18
REMARK    6  A    between atoms: S_18  and  N_21
REMARK    7  A    between atoms: C_22  and  O_24
REMARK                            x       y       z     vdW  Elec       q    Type
REMARK                         _______ _______ _______ _____ _____    ______ ____
ROOT
ATOM      1  C   UNL     1      -0.203  -3.153  27.215  0.00  0.00    +0.165 C 
ATOM      2  C   UNL     1      -0.381  -2.286  26.005  0.00  0.00    +0.040 C 
ATOM      3  C   UNL     1       0.997  -1.724  25.640  0.00  0.00    +0.021 C 
ATOM      4  C   UNL     1       1.866  -2.808  26.231  0.00  0.00    +0.083 C 
ATOM      5  C   UNL     1       1.274  -2.926  27.603  0.00  0.00    +0.151 C 
ENDROOT
BRANCH   4   6
ATOM      6  N   UNL     1       3.238  -2.645  26.102  0.00  0.00    -0.272 NA
ATOM      7  C   UNL     1       3.584  -1.550  25.279  0.00  0.00    +0.072 C 
ATOM      8  C   UNL     1       5.025  -1.387  24.936  0.00  0.00    +0.017 C 
ATOM      9  C   UNL     1       5.979  -1.822  26.007  0.00  0.00    +0.003 C 
ATOM     10  C   UNL     1       5.533  -3.189  26.471  0.00  0.00    +0.017 C 
ATOM     11  C   UNL     1       4.131  -3.065  27.092  0.00  0.00    +0.072 C 
ENDBRANCH   4   6
BRANCH   1  12
ATOM     12  N   UNL     1      -0.998  -2.724  28.341  0.00  0.00    -0.177 N 
ATOM     13  N   UNL     1      -1.186  -3.296  29.535  0.00  0.00    -0.153 NA
ATOM     14  C   UNL     1      -2.016  -2.543  30.277  0.00  0.00    +0.219 C 
ATOM     15  N   UNL     1      -2.349  -1.487  29.540  0.00  0.00    -0.203 NA
ATOM     16  C   UNL     1      -1.728  -1.597  28.359  0.00  0.00    +0.187 C 
ENDBRANCH   1  12
BRANCH   1  17
ATOM     17  N   UNL     1      -0.282  -4.555  26.971  0.00  0.00    -0.149 NA
ATOM     18  H   UNL     1       0.191  -4.737  26.086  0.00  0.00    +0.152 HD
BRANCH  17  19
ATOM     19  S   UNL     1       0.386  -5.591  28.121  0.00  0.00    +0.116 S 
ATOM     20  O   UNL     1       1.344  -4.924  29.065  0.00  0.00    -0.138 OA
ATOM     21  O   UNL     1       1.003  -6.801  27.475  0.00  0.00    -0.138 OA
BRANCH  19  22
ATOM     22  N   UNL     1      -0.937  -6.187  29.096  0.00  0.00    -0.141 N 
ATOM     23  C   UNL     1      -0.769  -7.034  30.201  0.00  0.00    +0.418 C 
ATOM     24  O   UNL     1       0.410  -7.384  30.499  0.00  0.00    -0.225 OA
ATOM     25  H   UNL     1      -1.851  -5.913  28.856  0.00  0.00    +0.181 HD
BRANCH  23  26
ATOM     26  O   UNL     1      -1.791  -7.529  31.003  0.00  0.00    -0.465 OA
ATOM     27  H   UNL     1      -2.681  -7.299  30.823  0.00  0.00    +0.297 HD
ENDBRANCH  23  26
ENDBRANCH  19  22
ENDBRANCH  17  19
ENDBRANCH   1  17
BRANCH   5  28
ATOM     28  N   UNL     1       1.475  -1.892  28.494  0.00  0.00    -0.265 NA
ATOM     29  C   UNL     1       1.874  -0.722  28.416  0.00  0.00    +0.113 C 
ENDBRANCH   5  28
TORSDOF 7
