REMARK  Name = =
REMARK  0 active torsions:
REMARK  status: ('A' for Active; 'I' for Inactive)
REMARK                            x       y       z     vdW  Elec       q    Type
REMARK                         _______ _______ _______ _____ _____    ______ ____
ROOT
ATOM      1  C   UNL     1      -4.070  -3.889  31.526  0.00  0.00    +0.000 C 
ATOM      2  C   UNL     1      -4.042  -5.233  31.490  0.00  0.00    +0.000 C 
ENDROOT
TORSDOF 0
