REMARK  Name = =
REMARK  5 active torsions:
REMARK  status: ('A' for Active; 'I' for Inactive)
REMARK    1  A    between atoms: N_1  and  C_26
REMARK    2  A    between atoms: C_17  and  C_31
REMARK    3  A    between atoms: C_25  and  N_27
REMARK    4  A    between atoms: C_32  and  C_33
REMARK    5  A    between atoms: C_33  and  O_35
REMARK                            x       y       z     vdW  Elec       q    Type
REMARK                         _______ _______ _______ _____ _____    ______ ____
ROOT
ATOM      1  N   UNL     1      -7.388  -6.396  19.796  0.00  0.00    -0.247 N 
ATOM      2  C   UNL     1      -6.366  -5.411  19.490  0.00  0.00    +0.183 C 
ATOM      3  C   UNL     1      -5.061  -5.767  20.148  0.00  0.00    +0.247 C 
ATOM      4  O   UNL     1      -4.848  -6.958  20.514  0.00  0.00    -0.273 OA
ATOM      5  N   UNL     1      -4.102  -4.764  20.341  0.00  0.00    -0.272 N 
ATOM      6  C   UNL     1      -4.478  -3.355  20.358  0.00  0.00    +0.152 C 
ATOM      7  C   UNL     1      -3.294  -2.734  19.631  0.00  0.00    +0.031 C 
ATOM      8  C   UNL     1      -2.137  -3.443  20.296  0.00  0.00    +0.024 C 
ATOM      9  C   UNL     1      -2.656  -4.829  20.551  0.00  0.00    +0.094 C 
ATOM     10  C   UNL     1      -4.542  -2.927  21.769  0.00  0.00    +0.241 C 
ATOM     11  O   UNL     1      -4.153  -3.668  22.729  0.00  0.00    -0.273 OA
ATOM     12  N   UNL     1      -5.071  -1.613  22.032  0.00  0.00    -0.295 N 
ATOM     13  C   UNL     1      -5.991  -1.005  21.092  0.00  0.00    +0.176 C 
ATOM     14  C   UNL     1      -6.674   0.119  21.785  0.00  0.00    +0.243 C 
ATOM     15  O   UNL     1      -5.936   0.976  22.343  0.00  0.00    -0.273 OA
ATOM     16  N   UNL     1      -8.090   0.261  21.841  0.00  0.00    -0.292 N 
ATOM     17  C   UNL     1      -9.005  -0.829  22.060  0.00  0.00    +0.194 C 
ATOM     18  C   UNL     1      -8.461  -1.858  22.973  0.00  0.00    +0.339 C 
ATOM     19  O   UNL     1      -7.647  -1.475  23.840  0.00  0.00    -0.248 OA
ATOM     20  O   UNL     1      -8.888  -3.155  22.806  0.00  0.00    -0.447 OA
ATOM     21  C   UNL     1      -8.934  -3.852  21.595  0.00  0.00    +0.218 C 
ATOM     22  C   UNL     1      -8.180  -5.167  21.833  0.00  0.00    +0.133 C 
ATOM     23  C   UNL     1      -8.392  -6.133  20.753  0.00  0.00    +0.234 C 
ATOM     24  O   UNL     1      -9.480  -6.738  20.671  0.00  0.00    -0.274 OA
ATOM     25  H   UNL     1      -4.808  -1.129  22.848  0.00  0.00    +0.150 HD
ATOM     26  H   UNL     1      -8.468   1.162  21.722  0.00  0.00    +0.150 HD
ENDROOT
BRANCH   1  28
ATOM     27  C   UNL     1      -8.343  -8.017  18.339  0.00  0.00    +0.084 C 
ATOM     28  C   UNL     1      -7.334  -7.629  19.095  0.00  0.00    +0.084 C 
BRANCH  27  29
ATOM     29  N   UNL     1      -8.326  -9.241  17.625  0.00  0.00    -0.247 N 
ATOM     30  C   UNL     1      -8.637 -10.436  18.308  0.00  0.00    +0.307 C 
ATOM     31  O   UNL     1      -8.931 -10.450  19.543  0.00  0.00    -0.265 OA
ATOM     32  C   UNL     1      -7.993  -9.225  16.226  0.00  0.00    +0.121 C 
ENDBRANCH  27  29
ENDBRANCH   1  28
BRANCH  17  33
ATOM     33  C   UNL     1     -10.228  -0.274  22.748  0.00  0.00    +0.011 C 
ATOM     34  C   UNL     1     -11.424  -0.404  22.216  0.00  0.00    +0.079 C 
BRANCH  34  35
ATOM     35  C   UNL     1     -12.585   0.135  22.890  0.00  0.00    +0.338 C 
ATOM     36  O   UNL     1     -13.657   0.307  22.267  0.00  0.00    -0.245 OA
BRANCH  35  37
ATOM     37  O   UNL     1     -12.545   0.474  24.230  0.00  0.00    -0.477 OA
ATOM     38  H   UNL     1     -11.755   0.355  24.720  0.00  0.00    +0.295 HD
ENDBRANCH  35  37
ENDBRANCH  34  35
ENDBRANCH  17  33
TORSDOF 5
