REMARK  Name = =
REMARK  5 active torsions:
REMARK  status: ('A' for Active; 'I' for Inactive)
REMARK    1  A    between atoms: C_1  and  C_21
REMARK    2  A    between atoms: C_7  and  C_10
REMARK    3  A    between atoms: C_11  and  C_18
REMARK    4  A    between atoms: C_24  and  C_27
REMARK    5  A    between atoms: N_29  and  N_30
REMARK                            x       y       z     vdW  Elec       q    Type
REMARK                         _______ _______ _______ _____ _____    ______ ____
ROOT
ATOM      1  C   UNL     1     -12.326  -2.337  26.134  0.00  0.00    +0.053 C 
ATOM      2  C   UNL     1     -12.171  -2.014  27.494  0.00  0.00    +0.136 C 
ATOM      3  C   UNL     1     -13.200  -2.144  28.388  0.00  0.00    +0.019 C 
ATOM      4  C   UNL     1     -14.431  -2.596  27.994  0.00  0.00    -0.001 C 
ATOM      5  C   UNL     1     -14.613  -2.920  26.670  0.00  0.00    -0.000 C 
ATOM      6  C   UNL     1     -13.564  -2.788  25.755  0.00  0.00    +0.005 C 
ATOM      7  C   UNL     1     -12.682  -1.721  29.738  0.00  0.00    +0.095 C 
ATOM      8  C   UNL     1     -11.372  -1.053  29.371  0.00  0.00    +0.214 C 
ATOM      9  O   UNL     1     -11.013  -1.538  28.109  0.00  0.00    -0.475 OA
ENDROOT
BRANCH   7  10
ATOM     10  C   UNL     1     -13.567  -0.746  30.364  0.00  0.00    +0.032 C 
ATOM     11  C   UNL     1     -14.171  -0.916  31.520  0.00  0.00    +0.091 C 
ATOM     12  C   UNL     1     -15.046   0.148  32.081  0.00  0.00    +0.200 C 
ATOM     13  O   UNL     1     -15.631  -0.023  33.204  0.00  0.00    -0.286 OA
ATOM     14  C   UNL     1     -15.232   1.375  31.353  0.00  0.00    +0.045 C 
ATOM     15  C   UNL     1     -14.638   1.566  30.197  0.00  0.00    +0.045 C 
ATOM     16  C   UNL     1     -13.787   0.534  29.647  0.00  0.00    +0.192 C 
ATOM     17  O   UNL     1     -13.222   0.708  28.548  0.00  0.00    -0.287 OA
BRANCH  11  18
ATOM     18  C   UNL     1     -14.044  -2.091  32.330  0.00  0.00    +0.246 C 
ATOM     19  O   UNL     1     -13.368  -3.078  32.017  0.00  0.00    -0.270 OA
ATOM     20  N   UNL     1     -14.710  -2.185  33.577  0.00  0.00    -0.325 N 
ATOM     21  H   UNL     1     -15.268  -1.438  33.895  0.00  0.00    +0.145 HD
ATOM     22  H   UNL     1     -14.615  -2.997  34.126  0.00  0.00    +0.145 HD
ENDBRANCH  11  18
ENDBRANCH   7  10
BRANCH   1  23
ATOM     23  C   UNL     1     -11.192  -2.194  25.235  0.00  0.00    +0.106 C 
ATOM     24  N   UNL     1     -10.008  -1.708  25.655  0.00  0.00    -0.148 NA
ATOM     25  N   UNL     1      -8.952  -1.568  24.878  0.00  0.00    -0.143 NA
ATOM     26  C   UNL     1      -8.984  -1.908  23.591  0.00  0.00    +0.157 C 
ATOM     27  C   UNL     1     -10.156  -2.413  23.079  0.00  0.00    +0.027 C 
ATOM     28  C   UNL     1     -11.275  -2.556  23.918  0.00  0.00    +0.023 C 
BRANCH  26  29
ATOM     29  C   UNL     1      -7.843  -1.779  22.694  0.00  0.00    +0.281 C 
ATOM     30  O   UNL     1      -7.924  -2.084  21.478  0.00  0.00    -0.267 OA
ATOM     31  N   UNL     1      -6.573  -1.304  23.141  0.00  0.00    -0.229 N 
ATOM     32  H   UNL     1      -6.480  -1.058  24.090  0.00  0.00    +0.173 HD
BRANCH  31  33
ATOM     33  N   UNL     1      -5.454  -1.166  22.317  0.00  0.00    -0.226 N 
ATOM     34  C   UNL     1      -5.246  -0.113  21.422  0.00  0.00    +0.316 C 
ATOM     35  O   UNL     1      -6.102   0.802  21.314  0.00  0.00    -0.264 OA
ATOM     36  H   UNL     1      -4.760  -1.862  22.371  0.00  0.00    +0.173 HD
ENDBRANCH  31  33
ENDBRANCH  26  29
ENDBRANCH   1  23
TORSDOF 5
