REMARK  Name = =
REMARK  0 active torsions:
REMARK  status: ('A' for Active; 'I' for Inactive)
REMARK                            x       y       z     vdW  Elec       q    Type
REMARK                         _______ _______ _______ _____ _____    ______ ____
ROOT
ATOM      1  C   UNL     1     -12.314 -42.360  27.206  0.00  0.00    +0.118 C 
ATOM      2  C   UNL     1     -13.649 -42.508  27.555  0.00  0.00    +0.100 C 
ATOM      3  C   UNL     1     -13.986 -43.353  28.604  0.00  0.00    +0.021 C 
ATOM      4  C   UNL     1     -12.962 -43.996  29.237  0.00  0.00    +0.022 C 
ATOM      5  C   UNL     1     -11.627 -43.822  28.857  0.00  0.00    +0.099 C 
ATOM      6  N   UNL     1     -11.319 -43.000  27.838  0.00  0.00    -0.241 NA
ATOM      7  C   UNL     1     -15.311 -43.504  28.957  0.00  0.00    +0.003 C 
ATOM      8  C   UNL     1     -16.286 -42.815  28.264  0.00  0.00    +0.021 C 
ATOM      9  C   UNL     1     -15.937 -41.983  27.229  0.00  0.00    +0.099 C 
ATOM     10  N   UNL     1     -14.637 -41.859  26.911  0.00  0.00    -0.242 NA
ENDROOT
TORSDOF 0
