REMARK  Name = =
REMARK  5 active torsions:
REMARK  status: ('A' for Active; 'I' for Inactive)
REMARK    1  A    between atoms: C_1  and  O_27
REMARK    2  A    between atoms: C_7  and  C_14
REMARK    3  A    between atoms: C_17  and  O_20
REMARK    4  A    between atoms: O_20  and  C_21
REMARK    5  A    between atoms: O_27  and  C_33
REMARK                            x       y       z     vdW  Elec       q    Type
REMARK                         _______ _______ _______ _____ _____    ______ ____
ROOT
ATOM      1  C   UNL     1     -15.679 -42.509  29.298  0.00  0.00    +0.407 C 
ATOM      2  O   UNL     1     -16.738 -42.233  29.876  0.00  0.00    -0.226 OA
ATOM      3  N   UNL     1     -15.653 -42.484  27.860  0.00  0.00    -0.234 N 
ATOM      4  C   UNL     1     -16.796 -42.155  27.099  0.00  0.00    +0.154 C 
ATOM      5  C   UNL     1     -16.703 -42.149  25.718  0.00  0.00    +0.113 C 
ATOM      6  C   UNL     1     -17.804 -41.831  24.929  0.00  0.00    +0.022 C 
ATOM      7  C   UNL     1     -18.994 -41.520  25.518  0.00  0.00    +0.021 C 
ATOM      8  C   UNL     1     -19.055 -41.534  26.916  0.00  0.00    +0.100 C 
ATOM      9  N   UNL     1     -17.963 -41.848  27.663  0.00  0.00    -0.227 NA
ATOM     10  C   UNL     1     -17.648 -41.831  23.577  0.00  0.00    +0.003 C 
ATOM     11  C   UNL     1     -16.419 -42.144  23.030  0.00  0.00    +0.021 C 
ATOM     12  C   UNL     1     -15.357 -42.454  23.844  0.00  0.00    +0.099 C 
ATOM     13  N   UNL     1     -15.519 -42.451  25.155  0.00  0.00    -0.241 NA
ATOM     14  H   UNL     1     -14.814 -42.703  27.393  0.00  0.00    +0.160 HD
ENDROOT
BRANCH   7  15
ATOM     15  C   UNL     1     -20.167 -41.223  24.727  0.00  0.00    +0.002 C 
ATOM     16  C   UNL     1     -20.784 -39.968  24.790  0.00  0.00    +0.003 C 
ATOM     17  C   UNL     1     -21.918 -39.665  24.071  0.00  0.00    +0.037 C 
ATOM     18  C   UNL     1     -22.475 -40.628  23.254  0.00  0.00    +0.145 C 
ATOM     19  C   UNL     1     -21.900 -41.864  23.167  0.00  0.00    +0.037 C 
ATOM     20  C   UNL     1     -20.769 -42.131  23.899  0.00  0.00    +0.003 C 
BRANCH  18  21
ATOM     21  O   UNL     1     -23.626 -40.269  22.547  0.00  0.00    -0.453 OA
BRANCH  21  22
ATOM     22  C   UNL     1     -24.212 -41.083  21.598  0.00  0.00    +0.145 C 
ATOM     23  C   UNL     1     -23.852 -41.033  20.282  0.00  0.00    +0.037 C 
ATOM     24  C   UNL     1     -24.449 -41.859  19.324  0.00  0.00    +0.003 C 
ATOM     25  C   UNL     1     -25.423 -42.743  19.722  0.00  0.00    +0.000 C 
ATOM     26  C   UNL     1     -25.789 -42.796  21.046  0.00  0.00    +0.003 C 
ATOM     27  C   UNL     1     -25.188 -41.969  21.988  0.00  0.00    +0.037 C 
ENDBRANCH  21  22
ENDBRANCH  18  21
ENDBRANCH   7  15
BRANCH   1  28
ATOM     28  O   UNL     1     -14.566 -42.830  30.056  0.00  0.00    -0.427 OA
BRANCH  28  34
ATOM     29  N   UNL     1     -14.308 -45.639  33.662  0.00  0.00    -0.223 NA
ATOM     30  C   UNL     1     -14.453 -44.405  33.311  0.00  0.00    +0.100 C 
ATOM     31  C   UNL     1     -14.438 -44.247  31.955  0.00  0.00    +0.122 C 
ATOM     32  N   UNL     1     -14.280 -45.403  31.417  0.00  0.00    -0.223 NA
ATOM     33  C   UNL     1     -14.183 -46.393  32.457  0.00  0.00    +0.199 C 
ATOM     34  C   UNL     1     -14.585 -42.958  31.417  0.00  0.00    +0.234 C 
ATOM     35  C   UNL     1     -14.742 -41.885  32.260  0.00  0.00    +0.023 C 
ATOM     36  C   UNL     1     -14.758 -42.030  33.632  0.00  0.00    +0.001 C 
ATOM     37  C   UNL     1     -14.613 -43.297  34.153  0.00  0.00    +0.020 C 
ENDBRANCH  28  34
ENDBRANCH   1  28
TORSDOF 5
