REMARK  Name = =
REMARK  0 active torsions:
REMARK  status: ('A' for Active; 'I' for Inactive)
REMARK                            x       y       z     vdW  Elec       q    Type
REMARK                         _______ _______ _______ _____ _____    ______ ____
ROOT
ATOM      1  C   UNL     1      -3.279  -3.938  30.897  0.00  0.00    -0.009 C 
ATOM      2  C   UNL     1      -2.980  -5.223  30.512  0.00  0.00    +0.041 C 
ATOM      3  N   UNL     1      -3.548  -6.440  30.979  0.00  0.00    -0.333 N 
ATOM      4  C   UNL     1      -4.059  -6.813  32.291  0.00  0.00    +0.087 C 
ATOM      5  C   UNL     1      -3.870  -5.598  33.209  0.00  0.00    +0.022 C 
ATOM      6  C   UNL     1      -4.791  -4.489  32.831  0.00  0.00    +0.006 C 
ATOM      7  C   UNL     1      -4.274  -3.486  31.878  0.00  0.00    +0.028 C 
ATOM      8  C   UNL     1      -1.990  -5.443  29.540  0.00  0.00    +0.014 C 
ATOM      9  C   UNL     1      -1.306  -4.396  28.957  0.00  0.00    +0.001 C 
ATOM     10  C   UNL     1      -1.632  -3.123  29.366  0.00  0.00    -0.000 C 
ATOM     11  C   UNL     1      -2.590  -2.865  30.311  0.00  0.00    -0.003 C 
ATOM     12  H   UNL     1      -3.606  -7.151  30.301  0.00  0.00    +0.147 HD
ENDROOT
TORSDOF 0
