REMARK  Name = =
REMARK  0 active torsions:
REMARK  status: ('A' for Active; 'I' for Inactive)
REMARK                            x       y       z     vdW  Elec       q    Type
REMARK                         _______ _______ _______ _____ _____    ______ ____
ROOT
ATOM      1  C   UNL     1      -2.834  -3.521  30.401  0.00  0.00    -0.009 C 
ATOM      2  C   UNL     1      -2.861  -4.632  31.232  0.00  0.00    +0.041 C 
ATOM      3  N   UNL     1      -3.624  -4.813  32.417  0.00  0.00    -0.333 N 
ATOM      4  C   UNL     1      -4.123  -4.036  33.493  0.00  0.00    +0.087 C 
ATOM      5  C   UNL     1      -4.804  -2.698  33.058  0.00  0.00    +0.022 C 
ATOM      6  C   UNL     1      -4.257  -2.343  31.829  0.00  0.00    +0.006 C 
ATOM      7  C   UNL     1      -3.642  -2.215  30.553  0.00  0.00    +0.028 C 
ATOM      8  C   UNL     1      -2.045  -5.709  30.888  0.00  0.00    +0.014 C 
ATOM      9  C   UNL     1      -1.246  -5.652  29.755  0.00  0.00    +0.001 C 
ATOM     10  C   UNL     1      -1.243  -4.525  28.946  0.00  0.00    -0.000 C 
ATOM     11  C   UNL     1      -2.073  -3.449  29.309  0.00  0.00    -0.003 C 
ATOM     12  H   UNL     1      -3.883  -5.757  32.522  0.00  0.00    +0.147 HD
ENDROOT
TORSDOF 0
REMARK  Name = =
REMARK  0 active torsions:
REMARK  status: ('A' for Active; 'I' for Inactive)
REMARK                            x       y       z     vdW  Elec       q    Type
REMARK                         _______ _______ _______ _____ _____    ______ ____
ROOT
ATOM      1  I   UNL     1      -6.922  -3.119  33.083  0.00  0.00    -0.107 I 
ATOM      2  H   UNL     1      -5.361  -3.119  33.083  0.00  0.00    +0.107 HD
ENDROOT
TORSDOF 0
REMARK  Name = =
REMARK  0 active torsions:
REMARK  status: ('A' for Active; 'I' for Inactive)
REMARK                            x       y       z     vdW  Elec       q    Type
REMARK                         _______ _______ _______ _____ _____    ______ ____
ROOT
ATOM      1  C   UNL     1      -7.812  -1.554  31.997  0.00  0.00    +0.000 C 
ATOM      2  C   UNL     1      -8.630  -1.810  30.989  0.00  0.00    +0.000 C 
ENDROOT
TORSDOF 0
