REMARK  Name = =
REMARK  0 active torsions:
REMARK  status: ('A' for Active; 'I' for Inactive)
REMARK                            x       y       z     vdW  Elec       q    Type
REMARK                         _______ _______ _______ _____ _____    ______ ____
ROOT
ATOM      1  C   UNL     1      -6.226  -1.309  31.475  0.00  0.00    +0.028 C 
ATOM      2  C   UNL     1      -6.886  -2.441  31.800  0.00  0.00    +0.044 C 
ATOM      3  N   UNL     1      -6.430  -3.757  32.154  0.00  0.00    -0.327 N 
ATOM      4  C   UNL     1      -5.155  -4.115  32.744  0.00  0.00    +0.147 C 
ATOM      5  C   UNL     1      -4.386  -2.920  33.151  0.00  0.00    +0.242 C 
ATOM      6  O   UNL     1      -3.684  -3.118  34.205  0.00  0.00    -0.273 OA
ATOM      7  N   UNL     1      -4.234  -1.610  32.666  0.00  0.00    -0.285 N 
ATOM      8  C   UNL     1      -4.752  -1.091  31.389  0.00  0.00    +0.158 C 
ATOM      9  C   UNL     1      -4.417   0.324  31.250  0.00  0.00    +0.015 C 
ATOM     10  C   UNL     1      -3.659   0.788  30.300  0.00  0.00    +0.000 C 
ATOM     11  C   UNL     1      -3.060  -0.050  29.271  0.00  0.00    +0.016 C 
ATOM     12  C   UNL     1      -3.346  -1.337  29.364  0.00  0.00    +0.063 C 
ATOM     13  N   UNL     1      -4.161  -1.887  30.361  0.00  0.00    -0.289 N 
ATOM     14  C   UNL     1      -4.410  -4.970  31.749  0.00  0.00    +0.031 C 
ATOM     15  C   UNL     1      -3.408  -4.052  31.053  0.00  0.00    +0.024 C 
ATOM     16  C   UNL     1      -4.186  -3.313  29.998  0.00  0.00    +0.093 C 
ATOM     17  C   UNL     1      -8.285  -2.425  31.815  0.00  0.00    +0.014 C 
ATOM     18  C   UNL     1      -9.012  -1.281  31.506  0.00  0.00    +0.001 C 
ATOM     19  C   UNL     1      -8.303  -0.143  31.180  0.00  0.00    -0.000 C 
ATOM     20  C   UNL     1      -6.901  -0.157  31.163  0.00  0.00    +0.000 C 
ATOM     21  H   UNL     1      -7.053  -4.498  31.976  0.00  0.00    +0.147 HD
ATOM     22  H   UNL     1      -3.734  -0.980  33.233  0.00  0.00    +0.151 HD
ENDROOT
TORSDOF 0
REMARK  Name = =
REMARK  0 active torsions:
REMARK  status: ('A' for Active; 'I' for Inactive)
REMARK                            x       y       z     vdW  Elec       q    Type
REMARK                         _______ _______ _______ _____ _____    ______ ____
ROOT
ATOM      1  I   UNL     1      -3.444  -6.616  32.660  0.00  0.00    -0.107 I 
ATOM      2  H   UNL     1      -1.883  -6.616  32.660  0.00  0.00    +0.107 HD
ENDROOT
TORSDOF 0
REMARK  Name = =
REMARK  0 active torsions:
REMARK  status: ('A' for Active; 'I' for Inactive)
REMARK                            x       y       z     vdW  Elec       q    Type
REMARK                         _______ _______ _______ _____ _____    ______ ____
ROOT
ATOM      1  C   UNL     1      -2.821  -7.845  31.068  0.00  0.00    +0.000 C 
ATOM      2  C   UNL     1      -2.541  -9.128  31.228  0.00  0.00    +0.000 C 
ENDROOT
TORSDOF 0
