REMARK  Name = =
REMARK  2 active torsions:
REMARK  status: ('A' for Active; 'I' for Inactive)
REMARK    1  A    between atoms: O_22  and  O_24
REMARK    2  A    between atoms: S_23  and  O_25
REMARK                            x       y       z     vdW  Elec       q    Type
REMARK                         _______ _______ _______ _____ _____    ______ ____
ROOT
ATOM      1  C   UNL     1      -1.227  -5.058  29.927  0.00  0.00    +0.028 C 
ATOM      2  C   UNL     1      -2.146  -5.876  30.548  0.00  0.00    +0.044 C 
ATOM      3  N   UNL     1      -3.299  -5.519  31.293  0.00  0.00    -0.327 N 
ATOM      4  C   UNL     1      -3.899  -4.274  31.721  0.00  0.00    +0.147 C 
ATOM      5  C   UNL     1      -2.743  -3.338  31.881  0.00  0.00    +0.242 C 
ATOM      6  O   UNL     1      -2.922  -2.519  32.821  0.00  0.00    -0.273 OA
ATOM      7  N   UNL     1      -1.500  -3.179  31.207  0.00  0.00    -0.285 N 
ATOM      8  C   UNL     1      -1.079  -3.578  29.834  0.00  0.00    +0.158 C 
ATOM      9  C   UNL     1       0.342  -3.294  29.722  0.00  0.00    +0.015 C 
ATOM     10  C   UNL     1       0.886  -2.545  28.804  0.00  0.00    +0.000 C 
ATOM     11  C   UNL     1       0.059  -1.916  27.784  0.00  0.00    +0.016 C 
ATOM     12  C   UNL     1      -1.244  -2.135  27.833  0.00  0.00    +0.063 C 
ATOM     13  N   UNL     1      -1.849  -2.940  28.817  0.00  0.00    -0.289 N 
ATOM     14  C   UNL     1      -4.860  -3.732  30.586  0.00  0.00    +0.031 C 
ATOM     15  C   UNL     1      -4.004  -3.270  29.598  0.00  0.00    +0.024 C 
ATOM     16  C   UNL     1      -3.308  -2.851  28.444  0.00  0.00    +0.093 C 
ATOM     17  C   UNL     1      -1.970  -7.238  30.440  0.00  0.00    +0.014 C 
ATOM     18  C   UNL     1      -0.931  -7.813  29.747  0.00  0.00    +0.001 C 
ATOM     19  C   UNL     1      -0.033  -6.989  29.141  0.00  0.00    -0.000 C 
ATOM     20  C   UNL     1      -0.160  -5.622  29.217  0.00  0.00    +0.000 C 
ATOM     21  H   UNL     1      -3.813  -6.305  31.589  0.00  0.00    +0.147 HD
ATOM     22  H   UNL     1      -0.801  -2.730  31.736  0.00  0.00    +0.151 HD
ENDROOT
TORSDOF 0
REMARK  Name = =
REMARK  2 active torsions:
REMARK  status: ('A' for Active; 'I' for Inactive)
REMARK    1  A    between atoms: O_22  and  O_24
REMARK    2  A    between atoms: S_23  and  O_25
REMARK                            x       y       z     vdW  Elec       q    Type
REMARK                         _______ _______ _______ _____ _____    ______ ____
ROOT
ATOM      1  P   UNL     1      -3.150  -8.316  31.227  0.00  0.00    +0.000 P 
ENDROOT
TORSDOF 0
REMARK  Name = =
REMARK  2 active torsions:
REMARK  status: ('A' for Active; 'I' for Inactive)
REMARK    1  A    between atoms: O_22  and  O_24
REMARK    2  A    between atoms: S_23  and  O_25
REMARK                            x       y       z     vdW  Elec       q    Type
REMARK                         _______ _______ _______ _____ _____    ______ ____
ROOT
ATOM      1  O   UNL     1      -4.288  -7.853  30.329  0.00  0.00    -0.253 OA
ATOM      2  H   UNL     1      -3.709  -7.491  31.018  0.00  0.00    +0.253 HD
ENDROOT
BRANCH   1   3
ATOM      3  O   UNL     1      -4.008  -9.310  30.158  0.00  0.00    -0.253 OA
ATOM      4  H   UNL     1      -4.587  -9.672  29.469  0.00  0.00    +0.253 HD
ENDBRANCH   1   3
TORSDOF 1
REMARK  Name = =
REMARK  2 active torsions:
REMARK  status: ('A' for Active; 'I' for Inactive)
REMARK    1  A    between atoms: O_22  and  O_24
REMARK    2  A    between atoms: S_23  and  O_25
REMARK                            x       y       z     vdW  Elec       q    Type
REMARK                         _______ _______ _______ _____ _____    ______ ____
ROOT
ATOM      1  S   UNL     1      -2.891  -8.785  33.255  0.00  0.00    -0.028 S 
ATOM      2  H   UNL     1      -4.004  -8.122  32.841  0.00  0.00    +0.133 HD
ENDROOT
BRANCH   1   3
ATOM      3  O   UNL     1      -1.935  -9.342  31.798  0.00  0.00    -0.332 OA
ATOM      4  H   UNL     1      -1.141  -9.815  32.094  0.00  0.00    +0.227 HD
ENDBRANCH   1   3
TORSDOF 1
REMARK  Name = =
REMARK  2 active torsions:
REMARK  status: ('A' for Active; 'I' for Inactive)
REMARK    1  A    between atoms: O_22  and  O_24
REMARK    2  A    between atoms: S_23  and  O_25
REMARK                            x       y       z     vdW  Elec       q    Type
REMARK                         _______ _______ _______ _____ _____    ______ ____
ROOT
ATOM      1  I   UNL     1      -6.012  -2.155  31.477  0.00  0.00    -0.107 I 
ATOM      2  H   UNL     1      -4.451  -2.155  31.477  0.00  0.00    +0.107 HD
ENDROOT
TORSDOF 0
REMARK  Name = =
REMARK  2 active torsions:
REMARK  status: ('A' for Active; 'I' for Inactive)
REMARK    1  A    between atoms: O_22  and  O_24
REMARK    2  A    between atoms: S_23  and  O_25
REMARK                            x       y       z     vdW  Elec       q    Type
REMARK                         _______ _______ _______ _____ _____    ______ ____
ROOT
ATOM      1  C   UNL     1      -7.567  -3.107  32.510  0.00  0.00    +0.000 C 
ATOM      2  C   UNL     1      -8.767  -2.559  32.523  0.00  0.00    +0.000 C 
ENDROOT
TORSDOF 0
