REMARK  Name = =
REMARK  2 active torsions:
REMARK  status: ('A' for Active; 'I' for Inactive)
REMARK    1  A    between atoms: C_1  and  C_4
REMARK    2  A    between atoms: C_1  and  O_5
REMARK                            x       y       z     vdW  Elec       q    Type
REMARK                         _______ _______ _______ _____ _____    ______ ____
ROOT
ATOM      1  C   UNL     1      52.460 155.468  27.408  0.00  0.00    +0.338 C 
ATOM      2  O   UNL     1      52.661 154.762  26.391  0.00  0.00    -0.245 OA
ENDROOT
BRANCH   1   4
ATOM      3  C   UNL     1      51.296 155.616  29.547  0.00  0.00    +0.007 C 
ATOM      4  C   UNL     1      51.481 155.022  28.386  0.00  0.00    +0.082 C 
ENDBRANCH   1   4
BRANCH   1   5
ATOM      5  O   UNL     1      53.178 156.645  27.562  0.00  0.00    -0.477 OA
ATOM      6  H   UNL     1      53.039 157.183  28.316  0.00  0.00    +0.295 HD
ENDBRANCH   1   5
TORSDOF 2
