REMARK  Name = =
REMARK  4 active torsions:
REMARK  status: ('A' for Active; 'I' for Inactive)
REMARK    1  A    between atoms: C_1  and  C_3
REMARK    2  A    between atoms: C_1  and  N_13
REMARK    3  A    between atoms: C_2  and  C_23
REMARK    4  A    between atoms: C_23  and  O_25
REMARK                            x       y       z     vdW  Elec       q    Type
REMARK                         _______ _______ _______ _____ _____    ______ ____
ROOT
ATOM      1  C   UNL     1      52.884 153.399  26.954  0.00  0.00    +0.046 C 
ATOM      2  C   UNL     1      52.551 152.175  26.589  0.00  0.00    +0.093 C 
ENDROOT
BRANCH   1   3
ATOM      3  C   UNL     1      53.754 154.205  26.113  0.00  0.00    +0.066 C 
ATOM      4  C   UNL     1      53.221 154.740  24.835  0.00  0.00    +0.057 C 
ATOM      5  C   UNL     1      53.176 153.689  23.738  0.00  0.00    +0.206 C 
ATOM      6  O   UNL     1      54.491 153.200  23.501  0.00  0.00    -0.476 OA
ATOM      7  C   UNL     1      55.347 153.089  24.583  0.00  0.00    +0.135 C 
ATOM      8  C   UNL     1      55.070 153.540  25.855  0.00  0.00    +0.017 C 
ATOM      9  C   UNL     1      55.987 153.382  26.861  0.00  0.00    -0.001 C 
ATOM     10  C   UNL     1      57.204 152.754  26.562  0.00  0.00    -0.000 C 
ATOM     11  C   UNL     1      57.501 152.295  25.299  0.00  0.00    +0.003 C 
ATOM     12  C   UNL     1      56.569 152.462  24.299  0.00  0.00    +0.037 C 
ENDBRANCH   1   3
BRANCH   1  13
ATOM     13  N   UNL     1      52.444 153.852  28.234  0.00  0.00    -0.241 N 
ATOM     14  C   UNL     1      51.380 154.710  28.607  0.00  0.00    +0.054 C 
ATOM     15  C   UNL     1      51.313 154.824  29.978  0.00  0.00    +0.001 C 
ATOM     16  C   UNL     1      50.334 155.588  30.604  0.00  0.00    -0.003 C 
ATOM     17  C   UNL     1      49.423 156.238  29.835  0.00  0.00    -0.000 C 
ATOM     18  C   UNL     1      49.490 156.124  28.471  0.00  0.00    +0.001 C 
ATOM     19  C   UNL     1      50.436 155.382  27.812  0.00  0.00    +0.015 C 
ATOM     20  C   UNL     1      52.400 154.034  30.596  0.00  0.00    +0.113 C 
ATOM     21  C   UNL     1      53.069 153.403  29.463  0.00  0.00    +0.237 C 
ATOM     22  O   UNL     1      54.055 152.580  29.489  0.00  0.00    -0.274 OA
ENDBRANCH   1  13
BRANCH   2  23
ATOM     23  C   UNL     1      51.707 151.272  27.311  0.00  0.00    +0.339 C 
ATOM     24  O   UNL     1      51.642 150.063  26.982  0.00  0.00    -0.245 OA
BRANCH  23  25
ATOM     25  O   UNL     1      50.934 151.669  28.384  0.00  0.00    -0.477 OA
ATOM     26  H   UNL     1      50.949 152.562  28.667  0.00  0.00    +0.295 HD
ENDBRANCH  23  25
ENDBRANCH   2  23
TORSDOF 4
