REMARK  Name = =
REMARK  5 active torsions:
REMARK  status: ('A' for Active; 'I' for Inactive)
REMARK    1  A    between atoms: C_1  and  C_17
REMARK    2  A    between atoms: C_1  and  C_20
REMARK    3  A    between atoms: C_20  and  N_22
REMARK    4  A    between atoms: C_21  and  C_32
REMARK    5  A    between atoms: C_32  and  O_34
REMARK                            x       y       z     vdW  Elec       q    Type
REMARK                         _______ _______ _______ _____ _____    ______ ____
ROOT
ATOM      1  C   UNL     1      53.100 155.559  26.017  0.00  0.00    +0.065 C 
ATOM      2  C   UNL     1      51.761 155.552  25.242  0.00  0.00    +0.057 C 
ATOM      3  C   UNL     1      51.074 154.281  25.129  0.00  0.00    +0.206 C 
ATOM      4  O   UNL     1      51.869 153.143  25.491  0.00  0.00    -0.476 OA
ATOM      5  C   UNL     1      53.245 153.290  25.162  0.00  0.00    +0.135 C 
ATOM      6  C   UNL     1      53.895 154.476  25.382  0.00  0.00    +0.017 C 
ATOM      7  C   UNL     1      55.221 154.595  25.052  0.00  0.00    -0.001 C 
ATOM      8  C   UNL     1      55.875 153.509  24.505  0.00  0.00    -0.000 C 
ATOM      9  C   UNL     1      55.269 152.299  24.266  0.00  0.00    +0.003 C 
ATOM     10  C   UNL     1      53.938 152.224  24.610  0.00  0.00    +0.037 C 
ENDROOT
BRANCH   1  17
ATOM     11  C   UNL     1      56.156 159.171  27.279  0.00  0.00    +0.037 C 
ATOM     12  C   UNL     1      55.327 158.387  26.483  0.00  0.00    +0.135 C 
ATOM     13  C   UNL     1      54.309 157.590  27.008  0.00  0.00    +0.016 C 
ATOM     14  C   UNL     1      54.212 157.662  28.403  0.00  0.00    -0.001 C 
ATOM     15  C   UNL     1      55.013 158.421  29.198  0.00  0.00    -0.000 C 
ATOM     16  C   UNL     1      55.997 159.185  28.626  0.00  0.00    +0.003 C 
ATOM     17  C   UNL     1      53.648 156.922  25.939  0.00  0.00    +0.078 C 
ATOM     18  C   UNL     1      54.652 157.050  24.765  0.00  0.00    +0.210 C 
ATOM     19  O   UNL     1      55.330 158.240  25.111  0.00  0.00    -0.475 OA
ENDBRANCH   1  17
BRANCH   1  20
ATOM     20  C   UNL     1      52.778 155.191  27.428  0.00  0.00    +0.046 C 
ATOM     21  C   UNL     1      53.615 154.276  27.966  0.00  0.00    +0.093 C 
BRANCH  20  22
ATOM     22  N   UNL     1      51.682 155.606  28.189  0.00  0.00    -0.241 N 
ATOM     23  C   UNL     1      51.366 156.797  28.868  0.00  0.00    +0.054 C 
ATOM     24  C   UNL     1      50.136 156.719  29.519  0.00  0.00    +0.001 C 
ATOM     25  C   UNL     1      49.643 157.755  30.280  0.00  0.00    -0.003 C 
ATOM     26  C   UNL     1      50.344 158.921  30.436  0.00  0.00    -0.000 C 
ATOM     27  C   UNL     1      51.555 159.034  29.812  0.00  0.00    +0.001 C 
ATOM     28  C   UNL     1      52.033 157.992  29.057  0.00  0.00    +0.015 C 
ATOM     29  C   UNL     1      49.531 155.421  29.229  0.00  0.00    +0.113 C 
ATOM     30  C   UNL     1      50.566 154.715  28.442  0.00  0.00    +0.237 C 
ATOM     31  O   UNL     1      50.410 153.517  28.092  0.00  0.00    -0.274 OA
ENDBRANCH  20  22
BRANCH  21  32
ATOM     32  C   UNL     1      53.461 153.812  29.315  0.00  0.00    +0.339 C 
ATOM     33  O   UNL     1      52.591 154.186  30.114  0.00  0.00    -0.245 OA
BRANCH  32  34
ATOM     34  O   UNL     1      54.418 152.838  29.729  0.00  0.00    -0.477 OA
ATOM     35  H   UNL     1      55.080 152.548  29.132  0.00  0.00    +0.295 HD
ENDBRANCH  32  34
ENDBRANCH  21  32
ENDBRANCH   1  20
TORSDOF 5
