REMARK  Name = =
REMARK  2 active torsions:
REMARK  status: ('A' for Active; 'I' for Inactive)
REMARK    1  A    between atoms: C_1  and  C_7
REMARK    2  A    between atoms: C_3  and  O_10
REMARK                            x       y       z     vdW  Elec       q    Type
REMARK                         _______ _______ _______ _____ _____    ______ ____
ROOT
ATOM      1  C   UNL     1      52.420 156.049  27.756  0.00  0.00    +0.056 C 
ATOM      2  C   UNL     1      51.325 155.629  28.484  0.00  0.00    +0.041 C 
ATOM      3  C   UNL     1      50.825 156.389  29.522  0.00  0.00    +0.134 C 
ATOM      4  C   UNL     1      51.389 157.595  29.882  0.00  0.00    +0.037 C 
ATOM      5  C   UNL     1      52.484 158.012  29.154  0.00  0.00    +0.003 C 
ATOM      6  C   UNL     1      52.979 157.255  28.122  0.00  0.00    +0.005 C 
ENDROOT
BRANCH   1   7
ATOM      7  C   UNL     1      52.960 155.249  26.648  0.00  0.00    +0.243 C 
ATOM      8  O   UNL     1      52.575 154.064  26.473  0.00  0.00    -0.270 OA
ATOM      9  N   UNL     1      53.921 155.849  25.791  0.00  0.00    -0.325 N 
ATOM     10  H   UNL     1      54.208 156.778  25.947  0.00  0.00    +0.145 HD
ATOM     11  H   UNL     1      54.300 155.336  25.041  0.00  0.00    +0.145 HD
ENDBRANCH   1   7
BRANCH   3  12
ATOM     12  O   UNL     1      49.715 155.956  30.254  0.00  0.00    -0.506 OA
ATOM     13  H   UNL     1      49.302 155.142  30.042  0.00  0.00    +0.292 HD
ENDBRANCH   3  12
TORSDOF 2
