REMARK  Name = =
REMARK  3 active torsions:
REMARK  status: ('A' for Active; 'I' for Inactive)
REMARK    1  A    between atoms: C_1  and  C_9
REMARK    2  A    between atoms: N_3  and  C_4
REMARK    3  A    between atoms: C_11  and  O_15
REMARK                            x       y       z     vdW  Elec       q    Type
REMARK                         _______ _______ _______ _____ _____    ______ ____
ROOT
ATOM      1  C   UNL     1      52.978 155.056  26.523  0.00  0.00    +0.248 C 
ATOM      2  O   UNL     1      53.266 155.717  25.487  0.00  0.00    -0.270 OA
ATOM      3  N   UNL     1      53.200 153.656  26.466  0.00  0.00    -0.277 N 
ATOM      4  H   UNL     1      52.991 153.095  27.248  0.00  0.00    +0.152 HD
ENDROOT
BRANCH   3   5
ATOM      5  C   UNL     1      53.734 153.045  25.262  0.00  0.00    +0.193 C 
ATOM      6  N   UNL     1      55.161 153.108  25.200  0.00  0.00    -0.268 NA
ATOM      7  C   UNL     1      55.693 151.792  25.381  0.00  0.00    +0.088 C 
ATOM      8  C   UNL     1      54.566 150.911  24.891  0.00  0.00    +0.088 C 
ATOM      9  N   UNL     1      53.351 151.677  25.110  0.00  0.00    -0.268 NA
ATOM     10  H   UNL     1      55.509 153.722  25.937  0.00  0.00    +0.126 HD
ATOM     11  H   UNL     1      52.880 151.351  25.954  0.00  0.00    +0.126 HD
ENDBRANCH   3   5
BRANCH   1  12
ATOM     12  C   UNL     1      52.439 155.720  27.718  0.00  0.00    +0.056 C 
ATOM     13  C   UNL     1      51.998 155.017  28.816  0.00  0.00    +0.041 C 
ATOM     14  C   UNL     1      51.496 155.709  29.923  0.00  0.00    +0.134 C 
ATOM     15  C   UNL     1      51.421 157.084  29.966  0.00  0.00    +0.037 C 
ATOM     16  C   UNL     1      51.865 157.777  28.860  0.00  0.00    +0.003 C 
ATOM     17  C   UNL     1      52.361 157.096  27.764  0.00  0.00    +0.005 C 
BRANCH  14  18
ATOM     18  O   UNL     1      51.047 155.001  31.041  0.00  0.00    -0.506 OA
ATOM     19  H   UNL     1      51.083 154.065  31.048  0.00  0.00    +0.292 HD
ENDBRANCH  14  18
ENDBRANCH   1  12
TORSDOF 3
