REMARK  Name = =
REMARK  5 active torsions:
REMARK  status: ('A' for Active; 'I' for Inactive)
REMARK    1  A    between atoms: C_1  and  C_17
REMARK    2  A    between atoms: C_3  and  O_27
REMARK    3  A    between atoms: C_5  and  C_7
REMARK    4  A    between atoms: N_19  and  C_20
REMARK    5  A    between atoms: N_24  and  S_25
REMARK                            x       y       z     vdW  Elec       q    Type
REMARK                         _______ _______ _______ _____ _____    ______ ____
ROOT
ATOM      1  C   UNL     1      51.765 153.849  27.613  0.00  0.00    +0.056 C 
ATOM      2  C   UNL     1      51.303 152.655  28.127  0.00  0.00    +0.041 C 
ATOM      3  C   UNL     1      51.700 151.432  27.680  0.00  0.00    +0.134 C 
ATOM      4  C   UNL     1      52.631 151.424  26.637  0.00  0.00    +0.033 C 
ATOM      5  C   UNL     1      53.133 152.576  26.079  0.00  0.00    -0.015 C 
ATOM      6  C   UNL     1      52.682 153.782  26.587  0.00  0.00    +0.001 C 
ENDROOT
BRANCH   5   7
ATOM      7  C   UNL     1      54.126 152.491  24.970  0.00  0.00    +0.051 C 
ATOM      8  C   UNL     1      53.804 153.413  23.850  0.00  0.00    +0.056 C 
ATOM      9  C   UNL     1      54.909 154.309  23.395  0.00  0.00    +0.206 C 
ATOM     10  O   UNL     1      56.179 153.695  23.519  0.00  0.00    -0.476 OA
ATOM     11  C   UNL     1      56.499 153.134  24.739  0.00  0.00    +0.135 C 
ATOM     12  C   UNL     1      55.509 152.546  25.464  0.00  0.00    +0.016 C 
ATOM     13  C   UNL     1      55.824 151.986  26.683  0.00  0.00    -0.001 C 
ATOM     14  C   UNL     1      57.136 152.027  27.155  0.00  0.00    -0.000 C 
ATOM     15  C   UNL     1      58.131 152.624  26.414  0.00  0.00    +0.003 C 
ATOM     16  C   UNL     1      57.825 153.181  25.206  0.00  0.00    +0.037 C 
ENDBRANCH   5   7
BRANCH   1  17
ATOM     17  C   UNL     1      51.272 155.102  28.169  0.00  0.00    +0.248 C 
ATOM     18  O   UNL     1      50.050 155.239  28.458  0.00  0.00    -0.270 OA
ATOM     19  N   UNL     1      52.093 156.232  28.423  0.00  0.00    -0.276 N 
ATOM     20  H   UNL     1      53.052 156.164  28.210  0.00  0.00    +0.152 HD
BRANCH  19  21
ATOM     21  C   UNL     1      51.611 157.466  28.970  0.00  0.00    +0.207 C 
ATOM     22  N   UNL     1      52.619 158.498  29.064  0.00  0.00    -0.268 NA
ATOM     23  C   UNL     1      51.850 159.547  29.760  0.00  0.00    +0.089 C 
ATOM     24  C   UNL     1      51.171 158.713  30.831  0.00  0.00    +0.105 C 
ATOM     25  N   UNL     1      51.038 157.370  30.274  0.00  0.00    -0.175 NA
ATOM     26  H   UNL     1      52.932 158.806  28.143  0.00  0.00    +0.126 HD
BRANCH  25  27
ATOM     27  S   UNL     1      49.327 157.042  30.112  0.00  0.00    +0.086 S 
ATOM     28  O   UNL     1      48.654 158.195  29.373  0.00  0.00    -0.244 OA
ATOM     29  H   UNL     1      48.772 156.910  31.347  0.00  0.00    +0.156 HD
ENDBRANCH  25  27
ENDBRANCH  19  21
ENDBRANCH   1  17
BRANCH   3  30
ATOM     30  O   UNL     1      51.200 150.287  28.237  0.00  0.00    -0.506 OA
ATOM     31  H   UNL     1      50.577 150.339  28.935  0.00  0.00    +0.292 HD
ENDBRANCH   3  30
TORSDOF 5
