REMARK  Name = =
REMARK  0 active torsions:
REMARK  status: ('A' for Active; 'I' for Inactive)
REMARK                            x       y       z     vdW  Elec       q    Type
REMARK                         _______ _______ _______ _____ _____    ______ ____
ROOT
ATOM      1  S   UNL     1      -2.305  -3.454  30.217  0.00  0.00    -0.137 S 
ATOM      2  C   UNL     1      -0.878  -4.462  29.708  0.00  0.00    +0.075 C 
ATOM      3  C   UNL     1      -0.777  -5.740  30.489  0.00  0.00    +0.080 C 
ATOM      4  N   UNL     1      -1.806  -5.903  31.470  0.00  0.00    -0.296 NA
ATOM      5  C   UNL     1      -3.101  -5.960  30.857  0.00  0.00    +0.080 C 
ATOM      6  C   UNL     1      -3.675  -4.599  30.545  0.00  0.00    +0.075 C 
ATOM      7  H   UNL     1      -1.778  -5.114  32.116  0.00  0.00    +0.123 HD
ENDROOT
TORSDOF 0
