REMARK  Name = =
REMARK  3 active torsions:
REMARK  status: ('A' for Active; 'I' for Inactive)
REMARK    1  A    between atoms: C_2  and  C_13
REMARK    2  A    between atoms: C_9  and  C_10
REMARK    3  A    between atoms: C_10  and  O_12
REMARK                            x       y       z     vdW  Elec       q    Type
REMARK                         _______ _______ _______ _____ _____    ______ ____
ROOT
ATOM      1  N   UNL     1      -1.978  -5.910  30.571  0.00  0.00    -0.235 N 
ATOM      2  C   UNL     1      -1.498  -7.178  31.089  0.00  0.00    +0.192 C 
ATOM      3  C   UNL     1      -2.863  -7.545  31.428  0.00  0.00    +0.129 C 
ATOM      4  C   UNL     1      -3.164  -6.097  31.248  0.00  0.00    +0.234 C 
ATOM      5  O   UNL     1      -4.150  -5.309  31.581  0.00  0.00    -0.274 OA
ATOM      6  S   UNL     1      -0.560  -8.006  29.765  0.00  0.00    -0.104 S 
ATOM      7  C   UNL     1      -0.984  -7.067  28.251  0.00  0.00    +0.087 C 
ATOM      8  C   UNL     1      -0.665  -5.613  28.560  0.00  0.00    +0.007 C 
ATOM      9  C   UNL     1      -1.182  -5.114  29.691  0.00  0.00    +0.128 C 
ENDROOT
BRANCH   9  10
ATOM     10  C   UNL     1      -0.948  -3.708  30.005  0.00  0.00    +0.352 C 
ATOM     11  O   UNL     1       0.130  -3.149  29.631  0.00  0.00    -0.244 OA
BRANCH  10  12
ATOM     12  O   UNL     1      -1.854  -2.908  30.710  0.00  0.00    -0.476 OA
ATOM     13  H   UNL     1      -2.665  -3.270  31.009  0.00  0.00    +0.295 HD
ENDBRANCH  10  12
ENDBRANCH   9  10
BRANCH   2  14
ATOM     14  C   UNL     1      -0.607  -7.145  32.308  0.00  0.00    +0.101 C 
ATOM     15  N   UNL     1       0.032  -7.104  33.192  0.00  0.00    -0.193 NA
ENDBRANCH   2  14
TORSDOF 3
