REMARK  Name = =
REMARK  2 active torsions:
REMARK  status: ('A' for Active; 'I' for Inactive)
REMARK    1  A    between atoms: C_5  and  O_9
REMARK    2  A    between atoms: O_9  and  N_10
REMARK                            x       y       z     vdW  Elec       q    Type
REMARK                         _______ _______ _______ _____ _____    ______ ____
ROOT
ATOM      1  S   UNL     1      -2.575  -4.693  29.456  0.00  0.00    -0.137 S 
ATOM      2  C   UNL     1      -0.823  -4.603  29.935  0.00  0.00    +0.079 C 
ATOM      3  C   UNL     1      -0.327  -5.953  30.452  0.00  0.00    +0.108 C 
ATOM      4  N   UNL     1      -1.535  -6.707  30.814  0.00  0.00    -0.243 N 
ATOM      5  C   UNL     1      -1.714  -7.982  30.237  0.00  0.00    +0.423 C 
ATOM      6  O   UNL     1      -2.737  -8.643  30.531  0.00  0.00    -0.224 OA
ATOM      7  C   UNL     1      -2.455  -6.101  31.730  0.00  0.00    +0.108 C 
ATOM      8  C   UNL     1      -3.496  -5.359  30.881  0.00  0.00    +0.079 C 
ENDROOT
BRANCH   5   9
ATOM      9  O   UNL     1      -0.798  -8.528  29.356  0.00  0.00    -0.357 OA
BRANCH   9  10
ATOM     10  N   UNL     1      -0.928  -9.780  28.807  0.00  0.00    -0.164 NA
ATOM     11  H   UNL     1      -0.136  -9.965  28.191  0.00  0.00    +0.163 HD
ATOM     12  H   UNL     1      -1.794  -9.828  28.271  0.00  0.00    +0.163 HD
ENDBRANCH   9  10
ENDBRANCH   5   9
TORSDOF 2
