REMARK  Name = =
REMARK  3 active torsions:
REMARK  status: ('A' for Active; 'I' for Inactive)
REMARK    1  A    between atoms: C_3  and  N_9
REMARK    2  A    between atoms: C_5  and  O_12
REMARK    3  A    between atoms: O_12  and  N_13
REMARK                            x       y       z     vdW  Elec       q    Type
REMARK                         _______ _______ _______ _____ _____    ______ ____
ROOT
ATOM      1  S   UNL     1       0.879  -6.467  29.569  0.00  0.00    -0.135 S 
ATOM      2  C   UNL     1      -0.245  -5.125  30.110  0.00  0.00    +0.094 C 
ATOM      3  C   UNL     1      -1.635  -5.726  30.040  0.00  0.00    +0.150 C 
ATOM      4  N   UNL     1      -1.679  -6.926  30.817  0.00  0.00    -0.231 N 
ATOM      5  C   UNL     1      -2.130  -6.978  32.165  0.00  0.00    +0.424 C 
ATOM      6  O   UNL     1      -2.146  -8.066  32.795  0.00  0.00    -0.224 OA
ATOM      7  C   UNL     1      -1.227  -8.149  30.173  0.00  0.00    +0.110 C 
ATOM      8  C   UNL     1      -0.129  -7.902  29.174  0.00  0.00    +0.079 C 
ENDROOT
BRANCH   3   9
ATOM      9  N   UNL     1      -2.640  -4.773  30.364  0.00  0.00    -0.255 NA
ATOM     10  C   UNL     1      -3.249  -4.037  29.206  0.00  0.00    +0.091 C 
ATOM     11  C   UNL     1      -2.319  -3.395  30.161  0.00  0.00    +0.091 C 
ENDBRANCH   3   9
BRANCH   5  12
ATOM     12  O   UNL     1      -2.568  -5.856  32.852  0.00  0.00    -0.357 OA
BRANCH  12  13
ATOM     13  N   UNL     1      -2.894  -5.932  34.202  0.00  0.00    -0.164 NA
ATOM     14  H   UNL     1      -3.193  -5.014  34.532  0.00  0.00    +0.163 HD
ATOM     15  H   UNL     1      -2.077  -6.234  34.733  0.00  0.00    +0.163 HD
ENDBRANCH  12  13
ENDBRANCH   5  12
TORSDOF 3
