REMARK  Name = =
REMARK  4 active torsions:
REMARK  status: ('A' for Active; 'I' for Inactive)
REMARK    1  A    between atoms: C_1  and  N_17
REMARK    2  A    between atoms: N_17  and  O_18
REMARK    3  A    between atoms: O_18  and  C_23
REMARK    4  A    between atoms: C_21  and  N_27
REMARK                            x       y       z     vdW  Elec       q    Type
REMARK                         _______ _______ _______ _____ _____    ______ ____
ROOT
ATOM      1  C   UNL     1      -2.624  -2.869  29.250  0.00  0.00    +0.092 C 
ATOM      2  C   UNL     1      -1.675  -2.206  28.473  0.00  0.00    +0.020 C 
ATOM      3  C   UNL     1      -1.651  -0.838  28.408  0.00  0.00    +0.002 C 
ATOM      4  C   UNL     1      -2.546  -0.057  29.095  0.00  0.00    +0.003 C 
ATOM      5  C   UNL     1      -3.486  -0.725  29.865  0.00  0.00    +0.044 C 
ATOM      6  C   UNL     1      -3.544  -2.122  29.956  0.00  0.00    +0.060 C 
ATOM      7  C   UNL     1      -4.577  -2.747  30.798  0.00  0.00    +0.197 C 
ATOM      8  O   UNL     1      -4.657  -3.981  30.901  0.00  0.00    -0.287 OA
ATOM      9  C   UNL     1      -5.545  -1.917  31.541  0.00  0.00    +0.042 C 
ATOM     10  C   UNL     1      -6.490  -2.548  32.313  0.00  0.00    +0.003 C 
ATOM     11  C   UNL     1      -7.421  -1.784  33.029  0.00  0.00    +0.000 C 
ATOM     12  C   UNL     1      -7.331  -0.401  32.912  0.00  0.00    +0.000 C 
ATOM     13  C   UNL     1      -6.374   0.221  32.132  0.00  0.00    +0.003 C 
ATOM     14  C   UNL     1      -5.467  -0.549  31.435  0.00  0.00    +0.042 C 
ATOM     15  C   UNL     1      -4.456   0.090  30.610  0.00  0.00    +0.196 C 
ATOM     16  O   UNL     1      -4.420   1.344  30.541  0.00  0.00    -0.287 OA
ENDROOT
BRANCH   1  17
ATOM     17  N   UNL     1      -2.620  -4.277  29.292  0.00  0.00    -0.215 N 
ATOM     18  H   UNL     1      -3.418  -4.786  29.022  0.00  0.00    +0.207 HD
BRANCH  17  19
ATOM     19  O   UNL     1      -1.462  -4.946  29.724  0.00  0.00    -0.325 OA
BRANCH  19  24
ATOM     20  S   UNL     1       1.288  -6.582  33.556  0.00  0.00    -0.135 S 
ATOM     21  C   UNL     1      -0.433  -7.150  33.600  0.00  0.00    +0.094 C 
ATOM     22  C   UNL     1      -0.779  -7.656  32.219  0.00  0.00    +0.150 C 
ATOM     23  N   UNL     1      -0.531  -6.625  31.266  0.00  0.00    -0.231 N 
ATOM     24  C   UNL     1      -1.640  -5.953  30.660  0.00  0.00    +0.429 C 
ATOM     25  O   UNL     1      -2.827  -6.292  30.988  0.00  0.00    -0.224 OA
ATOM     26  C   UNL     1       0.805  -6.222  30.877  0.00  0.00    +0.110 C 
ATOM     27  C   UNL     1       1.850  -6.757  31.838  0.00  0.00    +0.079 C 
BRANCH  22  28
ATOM     28  N   UNL     1      -2.168  -8.047  32.219  0.00  0.00    -0.255 NA
ATOM     29  C   UNL     1      -2.597  -8.940  33.287  0.00  0.00    +0.091 C 
ATOM     30  C   UNL     1      -2.514  -9.397  31.863  0.00  0.00    +0.091 C 
ENDBRANCH  22  28
ENDBRANCH  19  24
ENDBRANCH  17  19
ENDBRANCH   1  17
TORSDOF 4
