REMARK  Name = =
REMARK  5 active torsions:
REMARK  status: ('A' for Active; 'I' for Inactive)
REMARK    1  A    between atoms: N_1  and  C_2
REMARK    2  A    between atoms: N_1  and  N_18
REMARK    3  A    between atoms: N_1  and  O_23
REMARK    4  A    between atoms: O_23  and  C_28
REMARK    5  A    between atoms: C_26  and  N_32
REMARK                            x       y       z     vdW  Elec       q    Type
REMARK                         _______ _______ _______ _____ _____    ______ ____
ROOT
ATOM      1  N   UNL     1      -4.560  -4.006  32.266  0.00  0.00    -0.091 N 
ENDROOT
BRANCH   1   2
ATOM      2  C   UNL     1      -3.796  -3.427  31.244  0.00  0.00    +0.120 C 
ATOM      3  C   UNL     1      -3.947  -2.032  31.074  0.00  0.00    +0.022 C 
ATOM      4  C   UNL     1      -3.284  -1.328  30.105  0.00  0.00    +0.002 C 
ATOM      5  C   UNL     1      -2.425  -1.968  29.244  0.00  0.00    +0.003 C 
ATOM      6  C   UNL     1      -2.252  -3.336  29.377  0.00  0.00    +0.044 C 
ATOM      7  C   UNL     1      -2.943  -4.020  30.371  0.00  0.00    +0.063 C 
ATOM      8  C   UNL     1      -2.719  -5.448  30.433  0.00  0.00    +0.197 C 
ATOM      9  O   UNL     1      -3.312  -6.111  31.287  0.00  0.00    -0.287 OA
ATOM     10  C   UNL     1      -1.813  -6.095  29.493  0.00  0.00    +0.042 C 
ATOM     11  C   UNL     1      -1.604  -7.448  29.554  0.00  0.00    +0.003 C 
ATOM     12  C   UNL     1      -0.763  -8.123  28.698  0.00  0.00    +0.000 C 
ATOM     13  C   UNL     1      -0.107  -7.409  27.744  0.00  0.00    +0.000 C 
ATOM     14  C   UNL     1      -0.278  -6.051  27.636  0.00  0.00    +0.003 C 
ATOM     15  C   UNL     1      -1.128  -5.405  28.509  0.00  0.00    +0.042 C 
ATOM     16  C   UNL     1      -1.348  -3.974  28.439  0.00  0.00    +0.196 C 
ATOM     17  O   UNL     1      -0.723  -3.340  27.540  0.00  0.00    -0.287 OA
ENDBRANCH   1   2
BRANCH   1  18
ATOM     18  N   UNL     1      -4.178  -5.102  32.987  0.00  0.00    -0.074 N 
ATOM     19  N   UNL     1      -4.613  -6.339  33.111  0.00  0.00    -0.132 NA
ATOM     20  C   UNL     1      -3.889  -7.033  34.022  0.00  0.00    +0.221 C 
ATOM     21  N   UNL     1      -2.935  -6.182  34.506  0.00  0.00    -0.201 NA
ATOM     22  C   UNL     1      -3.126  -5.024  33.869  0.00  0.00    +0.212 C 
ENDBRANCH   1  18
BRANCH   1  23
ATOM     23  O   UNL     1      -5.733  -3.395  32.599  0.00  0.00    -0.301 OA
BRANCH  23  28
ATOM     24  S   UNL     1      -6.398   1.621  31.994  0.00  0.00    -0.135 S 
ATOM     25  C   UNL     1      -6.920   0.484  30.648  0.00  0.00    +0.094 C 
ATOM     26  C   UNL     1      -7.809  -0.544  31.362  0.00  0.00    +0.150 C 
ATOM     27  N   UNL     1      -6.913  -1.361  32.130  0.00  0.00    -0.231 N 
ATOM     28  C   UNL     1      -6.590  -2.706  31.813  0.00  0.00    +0.431 C 
ATOM     29  O   UNL     1      -7.081  -3.270  30.816  0.00  0.00    -0.224 OA
ATOM     30  C   UNL     1      -6.296  -0.768  33.302  0.00  0.00    +0.110 C 
ATOM     31  C   UNL     1      -6.673   0.671  33.532  0.00  0.00    +0.079 C 
BRANCH  26  32
ATOM     32  N   UNL     1      -8.604  -1.203  30.391  0.00  0.00    -0.255 NA
ATOM     33  C   UNL     1      -9.888  -1.766  30.640  0.00  0.00    +0.091 C 
ATOM     34  C   UNL     1      -9.840  -0.434  30.004  0.00  0.00    +0.091 C 
ENDBRANCH  26  32
ENDBRANCH  23  28
ENDBRANCH   1  23
TORSDOF 5
