REMARK  Name = =
REMARK  6 active torsions:
REMARK  status: ('A' for Active; 'I' for Inactive)
REMARK    1  A    between atoms: N_1  and  C_2
REMARK    2  A    between atoms: N_1  and  N_18
REMARK    3  A    between atoms: N_1  and  O_23
REMARK    4  A    between atoms: O_23  and  C_28
REMARK    5  A    between atoms: C_26  and  N_32
REMARK    6  A    between atoms: C_34  and  N_35
REMARK                            x       y       z     vdW  Elec       q    Type
REMARK                         _______ _______ _______ _____ _____    ______ ____
ROOT
ATOM      1  N   UNL     1       4.511  -5.576  21.946  0.00  0.00    -0.091 N 
ENDROOT
BRANCH   1   2
ATOM      2  C   UNL     1       4.538  -6.979  22.118  0.00  0.00    +0.120 C 
ATOM      3  C   UNL     1       5.352  -7.709  21.209  0.00  0.00    +0.022 C 
ATOM      4  C   UNL     1       5.440  -9.066  21.337  0.00  0.00    +0.002 C 
ATOM      5  C   UNL     1       4.757  -9.726  22.326  0.00  0.00    +0.003 C 
ATOM      6  C   UNL     1       3.967  -9.011  23.205  0.00  0.00    +0.044 C 
ATOM      7  C   UNL     1       3.848  -7.622  23.110  0.00  0.00    +0.063 C 
ATOM      8  C   UNL     1       2.980  -6.913  24.040  0.00  0.00    +0.197 C 
ATOM      9  O   UNL     1       2.858  -5.671  23.950  0.00  0.00    -0.287 OA
ATOM     10  C   UNL     1       2.248  -7.627  25.067  0.00  0.00    +0.042 C 
ATOM     11  C   UNL     1       1.424  -6.956  25.968  0.00  0.00    +0.003 C 
ATOM     12  C   UNL     1       0.720  -7.604  26.955  0.00  0.00    +0.000 C 
ATOM     13  C   UNL     1       0.828  -8.966  27.067  0.00  0.00    +0.000 C 
ATOM     14  C   UNL     1       1.640  -9.643  26.186  0.00  0.00    +0.003 C 
ATOM     15  C   UNL     1       2.355  -8.973  25.180  0.00  0.00    +0.042 C 
ATOM     16  C   UNL     1       3.213  -9.699  24.254  0.00  0.00    +0.196 C 
ATOM     17  O   UNL     1       3.341 -10.955  24.327  0.00  0.00    -0.287 OA
ENDBRANCH   1   2
BRANCH   1  18
ATOM     18  N   UNL     1       4.549  -5.104  20.602  0.00  0.00    -0.074 N 
ATOM     19  N   UNL     1       5.420  -4.520  19.859  0.00  0.00    -0.132 NA
ATOM     20  C   UNL     1       4.896  -4.225  18.663  0.00  0.00    +0.221 C 
ATOM     21  N   UNL     1       3.615  -4.662  18.683  0.00  0.00    -0.201 NA
ATOM     22  C   UNL     1       3.390  -5.207  19.877  0.00  0.00    +0.212 C 
ENDBRANCH   1  18
BRANCH   1  23
ATOM     23  O   UNL     1       4.432  -4.608  22.873  0.00  0.00    -0.301 OA
BRANCH  23  28
ATOM     24  S   UNL     1       4.378  -2.634  26.439  0.00  0.00    -0.135 S 
ATOM     25  C   UNL     1       3.377  -1.684  25.273  0.00  0.00    +0.094 C 
ATOM     26  C   UNL     1       3.899  -2.011  23.844  0.00  0.00    +0.151 C 
ATOM     27  N   UNL     1       5.205  -2.571  23.983  0.00  0.00    -0.231 N 
ATOM     28  C   UNL     1       5.458  -3.879  23.465  0.00  0.00    +0.431 C 
ATOM     29  O   UNL     1       6.576  -4.426  23.517  0.00  0.00    -0.224 OA
ATOM     30  C   UNL     1       6.264  -1.902  24.671  0.00  0.00    +0.110 C 
ATOM     31  C   UNL     1       6.106  -2.149  26.176  0.00  0.00    +0.079 C 
BRANCH  26  32
ATOM     32  N   UNL     1       3.660  -0.943  23.029  0.00  0.00    -0.242 NA
ATOM     33  C   UNL     1       4.344   0.251  22.760  0.00  0.00    +0.108 C 
ATOM     34  C   UNL     1       2.869   0.216  23.154  0.00  0.00    +0.136 C 
BRANCH  34  35
ATOM     35  N   UNL     1       1.847   0.292  22.113  0.00  0.00    -0.261 NA
ATOM     36  C   UNL     1       1.820   1.504  21.375  0.00  0.00    +0.059 C 
ATOM     37  C   UNL     1       1.730   1.109  19.892  0.00  0.00    +0.016 C 
ATOM     38  C   UNL     1       1.999   2.367  19.094  0.00  0.00    +0.001 C 
ATOM     39  C   UNL     1       1.183   3.486  19.677  0.00  0.00    +0.000 C 
ATOM     40  C   UNL     1       0.040   2.950  20.528  0.00  0.00    +0.001 C 
ATOM     41  C   UNL     1       0.563   2.252  21.759  0.00  0.00    +0.016 C 
ATOM     42  C   UNL     1      -0.372   1.174  22.240  0.00  0.00    +0.019 C 
ATOM     43  C   UNL     1       0.581   0.135  22.796  0.00  0.00    +0.073 C 
ENDBRANCH  34  35
ENDBRANCH  26  32
ENDBRANCH  23  28
ENDBRANCH   1  23
TORSDOF 6
