REMARK  Name = =
REMARK  2 active torsions:
REMARK  status: ('A' for Active; 'I' for Inactive)
REMARK    1  A    between atoms: C_1  and  O_3
REMARK    2  A    between atoms: C_1  and  O_4
REMARK                            x       y       z     vdW  Elec       q    Type
REMARK                         _______ _______ _______ _____ _____    ______ ____
ROOT
ATOM      1  C   UNL     1      -4.762  -2.481  31.725  0.00  0.00    +0.505 C 
ATOM      2  O   UNL     1      -4.205  -1.596  31.032  0.00  0.00    -0.203 OA
ENDROOT
BRANCH   1   3
ATOM      3  O   UNL     1      -4.748  -3.789  31.253  0.00  0.00    -0.450 OA
ATOM      4  H   UNL     1      -5.156  -4.471  31.750  0.00  0.00    +0.299 HD
ENDBRANCH   1   3
BRANCH   1   5
ATOM      5  O   UNL     1      -5.358  -2.111  32.922  0.00  0.00    -0.450 OA
ATOM      6  H   UNL     1      -5.341  -1.215  33.197  0.00  0.00    +0.299 HD
ENDBRANCH   1   5
TORSDOF 2
