REMARK  Name = =
REMARK  3 active torsions:
REMARK  status: ('A' for Active; 'I' for Inactive)
REMARK    1  A    between atoms: C_1  and  O_13
REMARK    2  A    between atoms: O_13  and  C_14
REMARK    3  A    between atoms: C_14  and  O_16
REMARK                            x       y       z     vdW  Elec       q    Type
REMARK                         _______ _______ _______ _____ _____    ______ ____
ROOT
ATOM      1  C   UNL     1      -2.594  -2.302  30.060  0.00  0.00    +0.194 C 
ATOM      2  C   UNL     1      -2.010  -3.471  30.265  0.00  0.00    +0.083 C 
ATOM      3  C   UNL     1      -0.880  -3.941  29.448  0.00  0.00    +0.199 C 
ATOM      4  O   UNL     1      -0.348  -5.058  29.670  0.00  0.00    -0.286 OA
ATOM      5  C   UNL     1      -0.347  -3.129  28.360  0.00  0.00    +0.042 C 
ATOM      6  C   UNL     1      -0.954  -1.909  28.142  0.00  0.00    +0.045 C 
ATOM      7  C   UNL     1      -0.453  -1.132  27.112  0.00  0.00    +0.003 C 
ATOM      8  C   UNL     1       0.608  -1.538  26.318  0.00  0.00    +0.000 C 
ATOM      9  C   UNL     1       1.208  -2.760  26.544  0.00  0.00    +0.000 C 
ATOM     10  C   UNL     1       0.710  -3.538  27.573  0.00  0.00    +0.003 C 
ATOM     11  C   UNL     1      -2.071  -1.480  28.975  0.00  0.00    +0.230 C 
ATOM     12  O   UNL     1      -2.598  -0.360  28.745  0.00  0.00    -0.283 OA
ENDROOT
BRANCH   1  13
ATOM     13  O   UNL     1      -3.656  -1.916  30.867  0.00  0.00    -0.390 OA
BRANCH  13  14
ATOM     14  C   UNL     1      -4.807  -2.666  30.853  0.00  0.00    +0.513 C 
ATOM     15  O   UNL     1      -4.837  -3.733  30.217  0.00  0.00    -0.203 OA
BRANCH  14  16
ATOM     16  O   UNL     1      -5.914  -2.237  31.540  0.00  0.00    -0.449 OA
ATOM     17  H   UNL     1      -6.699  -2.749  31.530  0.00  0.00    +0.299 HD
ENDBRANCH  14  16
ENDBRANCH  13  14
ENDBRANCH   1  13
TORSDOF 3
