REMARK  Name = =
REMARK  5 active torsions:
REMARK  status: ('A' for Active; 'I' for Inactive)
REMARK    1  A    between atoms: C_1  and  O_15
REMARK    2  A    between atoms: C_8  and  N_13
REMARK    3  A    between atoms: N_13  and  N_14
REMARK    4  A    between atoms: O_15  and  C_16
REMARK    5  A    between atoms: C_16  and  O_18
REMARK                            x       y       z     vdW  Elec       q    Type
REMARK                         _______ _______ _______ _____ _____    ______ ____
ROOT
ATOM      1  C   UNL     1      -1.005  -3.698  29.660  0.00  0.00    +0.194 C 
ATOM      2  C   UNL     1      -0.411  -2.912  28.783  0.00  0.00    +0.083 C 
ATOM      3  C   UNL     1      -0.949  -1.570  28.475  0.00  0.00    +0.199 C 
ATOM      4  O   UNL     1      -0.369  -0.818  27.624  0.00  0.00    -0.286 OA
ATOM      5  C   UNL     1      -2.141  -1.078  29.125  0.00  0.00    +0.042 C 
ATOM      6  C   UNL     1      -2.782  -1.889  30.054  0.00  0.00    +0.046 C 
ATOM      7  C   UNL     1      -3.927  -1.466  30.694  0.00  0.00    +0.019 C 
ATOM      8  C   UNL     1      -4.468  -0.226  30.432  0.00  0.00    +0.058 C 
ATOM      9  C   UNL     1      -3.843   0.584  29.519  0.00  0.00    +0.016 C 
ATOM     10  C   UNL     1      -2.687   0.174  28.863  0.00  0.00    +0.005 C 
ATOM     11  C   UNL     1      -2.202  -3.190  30.308  0.00  0.00    +0.230 C 
ATOM     12  O   UNL     1      -2.789  -3.916  31.148  0.00  0.00    -0.283 OA
ENDROOT
BRANCH   8  13
ATOM     13  N   UNL     1      -5.663   0.120  31.108  0.00  0.00    -0.282 N 
ATOM     14  H   UNL     1      -6.528   0.123  30.638  0.00  0.00    +0.166 HD
BRANCH  13  15
ATOM     15  N   UNL     1      -5.578   0.457  32.462  0.00  0.00    -0.256 NA
ATOM     16  H   UNL     1      -4.607   0.396  32.767  0.00  0.00    +0.140 HD
ATOM     17  H   UNL     1      -6.147  -0.188  33.009  0.00  0.00    +0.140 HD
ENDBRANCH  13  15
ENDBRANCH   8  13
BRANCH   1  18
ATOM     18  O   UNL     1      -0.488  -4.960  29.939  0.00  0.00    -0.390 OA
BRANCH  18  19
ATOM     19  C   UNL     1      -0.974  -6.071  29.257  0.00  0.00    +0.513 C 
ATOM     20  O   UNL     1      -1.902  -5.858  28.424  0.00  0.00    -0.203 OA
BRANCH  19  21
ATOM     21  O   UNL     1      -0.537  -7.364  29.409  0.00  0.00    -0.449 OA
ATOM     22  H   UNL     1      -0.925  -8.052  28.905  0.00  0.00    +0.299 HD
ENDBRANCH  19  21
ENDBRANCH  18  19
ENDBRANCH   1  18
TORSDOF 5
