REMARK  Name = =
REMARK  7 active torsions:
REMARK  status: ('A' for Active; 'I' for Inactive)
REMARK    1  A    between atoms: C_1  and  O_23
REMARK    2  A    between atoms: C_8  and  N_21
REMARK    3  A    between atoms: C_9  and  C_13
REMARK    4  A    between atoms: C_16  and  O_20
REMARK    5  A    between atoms: N_21  and  N_22
REMARK    6  A    between atoms: O_23  and  C_24
REMARK    7  A    between atoms: C_24  and  O_26
REMARK                            x       y       z     vdW  Elec       q    Type
REMARK                         _______ _______ _______ _____ _____    ______ ____
ROOT
ATOM      1  C   UNL     1      -0.815  -2.883  28.196  0.00  0.00    +0.194 C 
ATOM      2  C   UNL     1       0.516  -2.705  28.259  0.00  0.00    +0.083 C 
ATOM      3  C   UNL     1       1.246  -2.206  27.114  0.00  0.00    +0.199 C 
ATOM      4  O   UNL     1       2.493  -2.023  27.122  0.00  0.00    -0.286 OA
ATOM      5  C   UNL     1       0.486  -1.899  25.881  0.00  0.00    +0.042 C 
ATOM      6  C   UNL     1      -0.873  -2.074  25.796  0.00  0.00    +0.046 C 
ATOM      7  C   UNL     1      -1.548  -1.781  24.638  0.00  0.00    +0.019 C 
ATOM      8  C   UNL     1      -0.852  -1.295  23.521  0.00  0.00    +0.058 C 
ATOM      9  C   UNL     1       0.509  -1.110  23.575  0.00  0.00    +0.014 C 
ATOM     10  C   UNL     1       1.136  -1.422  24.763  0.00  0.00    +0.005 C 
ATOM     11  C   UNL     1      -1.566  -2.585  26.992  0.00  0.00    +0.230 C 
ATOM     12  O   UNL     1      -2.797  -2.767  26.989  0.00  0.00    -0.283 OA
ENDROOT
BRANCH   9  13
ATOM     13  C   UNL     1       1.266  -0.631  22.446  0.00  0.00    +0.002 C 
ATOM     14  C   UNL     1       1.875  -1.597  21.635  0.00  0.00    +0.010 C 
ATOM     15  C   UNL     1       2.599  -1.221  20.547  0.00  0.00    +0.068 C 
ATOM     16  C   UNL     1       2.728   0.126  20.249  0.00  0.00    +0.140 C 
ATOM     17  C   UNL     1       2.123   1.066  21.056  0.00  0.00    +0.037 C 
ATOM     18  C   UNL     1       1.371   0.714  22.183  0.00  0.00    +0.003 C 
ATOM     19 BR   UNL     1       3.418  -2.581  19.472  0.00  0.00    -0.046 Br
BRANCH  16  20
ATOM     20  O   UNL     1       3.473   0.475  19.134  0.00  0.00    -0.505 OA
ATOM     21  H   UNL     1       3.870  -0.191  18.608  0.00  0.00    +0.292 HD
ENDBRANCH  16  20
ENDBRANCH   9  13
BRANCH   8  22
ATOM     22  N   UNL     1      -1.633  -1.028  22.367  0.00  0.00    -0.282 N 
ATOM     23  H   UNL     1      -1.887  -0.091  22.202  0.00  0.00    +0.166 HD
BRANCH  22  24
ATOM     24  N   UNL     1      -2.070  -1.974  21.450  0.00  0.00    -0.256 NA
ATOM     25  H   UNL     1      -1.743  -2.898  21.732  0.00  0.00    +0.140 HD
ATOM     26  H   UNL     1      -1.699  -1.749  20.527  0.00  0.00    +0.140 HD
ENDBRANCH  22  24
ENDBRANCH   8  22
BRANCH   1  27
ATOM     27  O   UNL     1      -1.394  -3.371  29.371  0.00  0.00    -0.390 OA
BRANCH  27  28
ATOM     28  C   UNL     1      -2.306  -2.594  30.106  0.00  0.00    +0.513 C 
ATOM     29  O   UNL     1      -2.710  -1.539  29.591  0.00  0.00    -0.203 OA
BRANCH  28  30
ATOM     30  O   UNL     1      -2.763  -2.955  31.358  0.00  0.00    -0.449 OA
ATOM     31  H   UNL     1      -3.371  -2.405  31.811  0.00  0.00    +0.299 HD
ENDBRANCH  28  30
ENDBRANCH  27  28
ENDBRANCH   1  27
TORSDOF 7
