REMARK  Name = =
REMARK  9 active torsions:
REMARK  status: ('A' for Active; 'I' for Inactive)
REMARK    1  A    between atoms: C_1  and  O_32
REMARK    2  A    between atoms: C_8  and  N_30
REMARK    3  A    between atoms: C_9  and  C_13
REMARK    4  A    between atoms: C_16  and  O_29
REMARK    5  A    between atoms: C_18  and  N_20
REMARK    6  A    between atoms: C_21  and  C_23
REMARK    7  A    between atoms: N_30  and  N_31
REMARK    8  A    between atoms: O_32  and  C_33
REMARK    9  A    between atoms: C_33  and  O_35
REMARK                            x       y       z     vdW  Elec       q    Type
REMARK                         _______ _______ _______ _____ _____    ______ ____
ROOT
ATOM      1  C   UNL     1      -0.531  -2.595  28.220  0.00  0.00    +0.194 C 
ATOM      2  C   UNL     1      -1.513  -2.378  27.359  0.00  0.00    +0.083 C 
ATOM      3  C   UNL     1      -1.217  -1.918  26.011  0.00  0.00    +0.199 C 
ATOM      4  O   UNL     1      -2.177  -1.721  25.215  0.00  0.00    -0.286 OA
ATOM      5  C   UNL     1       0.168  -1.684  25.577  0.00  0.00    +0.042 C 
ATOM      6  C   UNL     1       1.183  -1.911  26.478  0.00  0.00    +0.046 C 
ATOM      7  C   UNL     1       2.488  -1.692  26.075  0.00  0.00    +0.019 C 
ATOM      8  C   UNL     1       2.760  -1.253  24.783  0.00  0.00    +0.058 C 
ATOM      9  C   UNL     1       1.753  -1.023  23.875  0.00  0.00    +0.016 C 
ATOM     10  C   UNL     1       0.457  -1.243  24.287  0.00  0.00    +0.005 C 
ATOM     11  C   UNL     1       0.853  -2.371  27.816  0.00  0.00    +0.230 C 
ATOM     12  O   UNL     1       1.823  -2.564  28.603  0.00  0.00    -0.283 OA
ENDROOT
BRANCH   9  13
ATOM     13  C   UNL     1       2.085  -0.569  22.549  0.00  0.00    +0.015 C 
ATOM     14  C   UNL     1       2.000   0.748  22.166  0.00  0.00    +0.011 C 
ATOM     15  C   UNL     1       2.324   1.186  20.901  0.00  0.00    +0.068 C 
ATOM     16  C   UNL     1       2.752   0.273  19.970  0.00  0.00    +0.141 C 
ATOM     17  C   UNL     1       2.850  -1.076  20.329  0.00  0.00    +0.052 C 
ATOM     18  C   UNL     1       2.523  -1.515  21.604  0.00  0.00    +0.054 C 
ATOM     19 BR   UNL     1       2.180   3.047  20.433  0.00  0.00    -0.046 Br
BRANCH  18  20
ATOM     20  N   UNL     1       2.581  -2.841  22.051  0.00  0.00    -0.280 N 
ATOM     21  C   UNL     1       3.081  -3.916  21.299  0.00  0.00    +0.249 C 
ATOM     22  O   UNL     1       3.527  -3.752  20.144  0.00  0.00    -0.270 OA
ATOM     23  H   UNL     1       2.247  -3.033  22.957  0.00  0.00    +0.155 HD
BRANCH  21  24
ATOM     24  C   UNL     1       3.111  -5.294  21.825  0.00  0.00    +0.054 C 
ATOM     25  C   UNL     1       2.331  -5.643  22.867  0.00  0.00    +0.005 C 
ATOM     26  C   UNL     1       2.361  -6.938  23.377  0.00  0.00    +0.000 C 
ATOM     27  C   UNL     1       3.208  -7.837  22.784  0.00  0.00    +0.000 C 
ATOM     28  C   UNL     1       4.007  -7.476  21.717  0.00  0.00    +0.000 C 
ATOM     29  C   UNL     1       3.955  -6.187  21.235  0.00  0.00    +0.005 C 
ENDBRANCH  21  24
ENDBRANCH  18  20
BRANCH  16  30
ATOM     30  O   UNL     1       3.094   0.631  18.683  0.00  0.00    -0.505 OA
ATOM     31  H   UNL     1       3.382  -0.022  18.076  0.00  0.00    +0.292 HD
ENDBRANCH  16  30
ENDBRANCH   9  13
BRANCH   8  32
ATOM     32  N   UNL     1       4.093  -1.030  24.361  0.00  0.00    -0.282 N 
ATOM     33  H   UNL     1       4.285  -0.644  23.476  0.00  0.00    +0.166 HD
BRANCH  32  34
ATOM     34  N   UNL     1       5.130  -1.372  25.235  0.00  0.00    -0.256 NA
ATOM     35  H   UNL     1       4.737  -1.753  26.096  0.00  0.00    +0.140 HD
ATOM     36  H   UNL     1       5.680  -0.541  25.451  0.00  0.00    +0.140 HD
ENDBRANCH  32  34
ENDBRANCH   8  32
BRANCH   1  37
ATOM     37  O   UNL     1      -0.773  -3.041  29.532  0.00  0.00    -0.390 OA
BRANCH  37  38
ATOM     38  C   UNL     1      -0.870  -4.397  29.782  0.00  0.00    +0.513 C 
ATOM     39  O   UNL     1      -0.710  -5.240  28.855  0.00  0.00    -0.203 OA
BRANCH  38  40
ATOM     40  O   UNL     1      -1.146  -4.927  31.041  0.00  0.00    -0.449 OA
ATOM     41  H   UNL     1      -1.201  -5.855  31.157  0.00  0.00    +0.299 HD
ENDBRANCH  38  40
ENDBRANCH  37  38
ENDBRANCH   1  37
TORSDOF 9
