MODEL 1
REMARK VINA RESULT:    -6.744      0.000      0.000
REMARK INTER + INTRA:         -10.341
REMARK INTER:                  -8.518
REMARK INTRA:                  -1.824
REMARK UNBOUND:                -1.824
REMARK  Name = =
REMARK  5 active torsions:
REMARK  status: ('A' for Active; 'I' for Inactive)
REMARK    1  A    between atoms: C_1  and  C_19
REMARK    2  A    between atoms: C_1  and  C_30
REMARK    3  A    between atoms: C_17  and  C_35
REMARK    4  A    between atoms: C_37  and  C_41
REMARK    5  A    between atoms: C_38  and  O_44
REMARK                            x       y       z     vdW  Elec       q    Type
REMARK                         _______ _______ _______ _____ _____    ______ ____
ROOT
ATOM      1  C   UNL     1      61.056 165.822  39.934  0.00  0.00    +0.055 C 
ATOM      2  C   UNL     1      60.600 165.231  41.218  0.00  0.00    +0.010 C 
ATOM      3  C   UNL     1      59.604 164.153  41.237  0.00  0.00    +0.001 C 
ATOM      4  C   UNL     1      59.932 162.865  41.876  0.00  0.00    +0.001 C 
ATOM      5  C   UNL     1      59.322 161.752  41.024  0.00  0.00    +0.012 C 
ATOM      6  C   UNL     1      58.519 160.808  41.869  0.00  0.00    +0.057 C 
ATOM      7  C   UNL     1      57.850 159.776  41.019  0.00  0.00    +0.120 C 
ATOM      8  O   UNL     1      56.958 160.733  40.596  0.00  0.00    -0.356 OA
ATOM      9  C   UNL     1      57.061 161.291  41.893  0.00  0.00    +0.142 C 
ATOM     10  C   UNL     1      58.734 159.194  39.964  0.00  0.00    +0.030 C 
ATOM     11  C   UNL     1      60.183 159.576  40.130  0.00  0.00    +0.010 C 
ATOM     12  C   UNL     1      60.380 161.062  40.271  0.00  0.00    +0.058 C 
ATOM     13  C   UNL     1      60.883 161.697  39.059  0.00  0.00    +0.150 C 
ATOM     14  O   UNL     1      61.922 161.123  38.698  0.00  0.00    -0.296 OA
ATOM     15  C   UNL     1      60.548 162.822  38.111  0.00  0.00    +0.065 C 
ATOM     16  C   UNL     1      60.002 163.894  38.959  0.00  0.00    +0.012 C 
ATOM     17  C   UNL     1      60.775 164.943  38.733  0.00  0.00    +0.031 C 
ATOM     18  C   UNL     1      58.858 163.973  39.940  0.00  0.00    +0.001 C 
ENDROOT
BRANCH   1  19
ATOM     19  C   UNL     1      60.201 167.069  39.763  0.00  0.00    +0.029 C 
ATOM     20  C   UNL     1      59.903 167.902  40.821  0.00  0.00    +0.011 C 
ATOM     21  C   UNL     1      60.191 167.988  42.175  0.00  0.00    +0.001 C 
ATOM     22  C   UNL     1      59.722 168.975  42.987  0.00  0.00    +0.000 C 
ATOM     23  C   UNL     1      58.912 169.972  42.484  0.00  0.00    +0.000 C 
ATOM     24  C   UNL     1      58.601 169.931  41.159  0.00  0.00    +0.001 C 
ATOM     25  C   UNL     1      59.078 168.927  40.338  0.00  0.00    +0.016 C 
ATOM     26  C   UNL     1      58.908 168.680  39.012  0.00  0.00    +0.062 C 
ATOM     27  N   UNL     1      59.595 167.564  38.708  0.00  0.00    -0.315 N 
ATOM     28  H   UNL     1      59.638 167.168  37.807  0.00  0.00    +0.152 HD
ENDBRANCH   1  19
BRANCH   1  31
ATOM     29 CL   UNL     1      63.156 163.810  40.788  0.00  0.00    -0.083 Cl
ATOM     30  C   UNL     1      63.480 165.440  40.331  0.00  0.00    +0.054 C 
ATOM     31  C   UNL     1      62.457 166.300  39.974  0.00  0.00    -0.007 C 
ATOM     32  C   UNL     1      62.828 167.612  39.601  0.00  0.00    -0.003 C 
ATOM     33  C   UNL     1      64.139 168.023  39.594  0.00  0.00    -0.000 C 
ATOM     34  C   UNL     1      65.124 167.170  39.948  0.00  0.00    +0.001 C 
ATOM     35  C   UNL     1      64.780 165.866  40.319  0.00  0.00    +0.011 C 
ENDBRANCH   1  31
BRANCH  17  36
ATOM     36  C   UNL     1      61.210 165.140  37.382  0.00  0.00    -0.021 C 
ATOM     37  C   UNL     1      60.315 165.645  36.403  0.00  0.00    +0.003 C 
ATOM     38  C   UNL     1      60.647 165.854  35.097  0.00  0.00    +0.086 C 
ATOM     39  C   UNL     1      61.916 165.574  34.645  0.00  0.00    +0.138 C 
ATOM     40  C   UNL     1      62.817 165.087  35.535  0.00  0.00    +0.036 C 
ATOM     41  C   UNL     1      62.456 164.884  36.859  0.00  0.00    -0.001 C 
BRANCH  38  42
ATOM     42  C   UNL     1      59.685 166.381  34.149  0.00  0.00    +0.246 C 
ATOM     43  O   UNL     1      58.539 165.874  34.097  0.00  0.00    -0.270 OA
ATOM     44  N   UNL     1      60.020 167.452  33.289  0.00  0.00    -0.325 N 
ATOM     45  H   UNL     1      60.920 167.851  33.328  0.00  0.00    +0.145 HD
ATOM     46  H   UNL     1      59.355 167.799  32.651  0.00  0.00    +0.145 HD
ENDBRANCH  38  42
BRANCH  39  47
ATOM     47  O   UNL     1      62.268 165.785  33.305  0.00  0.00    -0.505 OA
ATOM     48  H   UNL     1      62.624 165.082  32.798  0.00  0.00    +0.292 HD
ENDBRANCH  39  47
ENDBRANCH  17  36
TORSDOF 5
ENDMDL
