REMARK  Name = =
REMARK  5 active torsions:
REMARK  status: ('A' for Active; 'I' for Inactive)
REMARK    1  A    between atoms: C_1  and  C_19
REMARK    2  A    between atoms: C_1  and  C_30
REMARK    3  A    between atoms: C_17  and  C_35
REMARK    4  A    between atoms: C_37  and  C_41
REMARK    5  A    between atoms: C_38  and  O_44
REMARK                            x       y       z     vdW  Elec       q    Type
REMARK                         _______ _______ _______ _____ _____    ______ ____
ROOT
ATOM      1  C   UNL     1      54.124 153.849  26.027  0.00  0.00    +0.055 C 
ATOM      2  C   UNL     1      53.946 155.145  26.730  0.00  0.00    +0.010 C 
ATOM      3  C   UNL     1      52.629 155.550  27.235  0.00  0.00    +0.001 C 
ATOM      4  C   UNL     1      52.456 155.854  28.668  0.00  0.00    +0.001 C 
ATOM      5  C   UNL     1      51.094 155.310  29.100  0.00  0.00    +0.012 C 
ATOM      6  C   UNL     1      50.303 156.358  29.824  0.00  0.00    +0.057 C 
ATOM      7  C   UNL     1      48.938 155.851  30.163  0.00  0.00    +0.120 C 
ATOM      8  O   UNL     1      48.585 155.978  28.840  0.00  0.00    -0.356 OA
ATOM      9  C   UNL     1      49.435 157.110  28.803  0.00  0.00    +0.142 C 
ATOM     10  C   UNL     1      48.928 154.460  30.712  0.00  0.00    +0.030 C 
ATOM     11  C   UNL     1      50.305 153.948  31.049  0.00  0.00    +0.010 C 
ATOM     12  C   UNL     1      51.275 154.094  29.907  0.00  0.00    +0.058 C 
ATOM     13  C   UNL     1      51.540 152.842  29.208  0.00  0.00    +0.150 C 
ATOM     14  O   UNL     1      51.912 151.987  30.027  0.00  0.00    -0.296 OA
ATOM     15  C   UNL     1      51.508 152.258  27.817  0.00  0.00    +0.065 C 
ATOM     16  C   UNL     1      51.954 153.344  26.930  0.00  0.00    +0.012 C 
ATOM     17  C   UNL     1      53.008 152.861  26.293  0.00  0.00    +0.031 C 
ATOM     18  C   UNL     1      51.477 154.754  26.678  0.00  0.00    +0.001 C 
ENDROOT
BRANCH   1  19
ATOM     19  C   UNL     1      54.043 154.202  24.549  0.00  0.00    +0.029 C 
ATOM     20  C   UNL     1      54.456 155.426  24.066  0.00  0.00    +0.011 C 
ATOM     21  C   UNL     1      55.019 156.592  24.565  0.00  0.00    +0.001 C 
ATOM     22  C   UNL     1      55.322 157.674  23.797  0.00  0.00    +0.000 C 
ATOM     23  C   UNL     1      55.077 157.662  22.439  0.00  0.00    +0.000 C 
ATOM     24  C   UNL     1      54.525 156.539  21.903  0.00  0.00    +0.001 C 
ATOM     25  C   UNL     1      54.218 155.443  22.685  0.00  0.00    +0.016 C 
ATOM     26  C   UNL     1      53.673 154.234  22.383  0.00  0.00    +0.062 C 
ATOM     27  N   UNL     1      53.587 153.523  23.522  0.00  0.00    -0.315 N 
ATOM     28  H   UNL     1      53.227 152.608  23.578  0.00  0.00    +0.152 HD
ENDBRANCH   1  19
BRANCH   1  31
ATOM     29 CL   UNL     1      54.734 152.744  28.783  0.00  0.00    -0.083 Cl
ATOM     30  C   UNL     1      55.819 152.709  27.445  0.00  0.00    +0.054 C 
ATOM     31  C   UNL     1      55.467 153.256  26.224  0.00  0.00    -0.007 C 
ATOM     32  C   UNL     1      56.421 153.163  25.185  0.00  0.00    -0.003 C 
ATOM     33  C   UNL     1      57.643 152.563  25.370  0.00  0.00    -0.000 C 
ATOM     34  C   UNL     1      57.970 152.036  26.570  0.00  0.00    +0.001 C 
ATOM     35  C   UNL     1      57.040 152.115  27.612  0.00  0.00    +0.011 C 
ENDBRANCH   1  31
BRANCH  17  36
ATOM     36  C   UNL     1      52.942 151.485  25.896  0.00  0.00    -0.021 C 
ATOM     37  C   UNL     1      51.768 150.723  26.130  0.00  0.00    +0.003 C 
ATOM     38  C   UNL     1      51.628 149.410  25.790  0.00  0.00    +0.086 C 
ATOM     39  C   UNL     1      52.658 148.731  25.181  0.00  0.00    +0.138 C 
ATOM     40  C   UNL     1      53.808 149.408  24.932  0.00  0.00    +0.036 C 
ATOM     41  C   UNL     1      53.927 150.744  25.286  0.00  0.00    -0.001 C 
BRANCH  38  42
ATOM     42  C   UNL     1      50.396 148.690  26.050  0.00  0.00    +0.246 C 
ATOM     43  O   UNL     1      49.754 148.939  27.098  0.00  0.00    -0.270 OA
ATOM     44  N   UNL     1      49.913 147.720  25.142  0.00  0.00    -0.325 N 
ATOM     45  H   UNL     1      50.416 147.523  24.319  0.00  0.00    +0.145 HD
ATOM     46  H   UNL     1      49.074 147.241  25.333  0.00  0.00    +0.145 HD
ENDBRANCH  38  42
BRANCH  39  47
ATOM     47  O   UNL     1      52.525 147.382  24.827  0.00  0.00    -0.505 OA
ATOM     48  H   UNL     1      51.725 146.928  25.005  0.00  0.00    +0.292 HD
ENDBRANCH  39  47
ENDBRANCH  17  36
TORSDOF 5
