MODEL 1
REMARK VINA RESULT:   -10.559      0.000      0.000
REMARK INTER + INTRA:         -16.737
REMARK INTER:                 -15.806
REMARK INTRA:                  -0.931
REMARK UNBOUND:                -0.931
REMARK  Name = =
REMARK  10 active torsions:
REMARK  status: ('A' for Active; 'I' for Inactive)
REMARK    1  A    between atoms: C_1  and  C_22
REMARK    2  A    between atoms: C_5  and  C_35
REMARK    3  A    between atoms: C_9  and  C_11
REMARK    4  A    between atoms: N_21  and  C_24
REMARK    5  A    between atoms: N_21  and  O_31
REMARK    6  A    between atoms: O_31  and  C_32
REMARK    7  A    between atoms: C_32  and  O_34
REMARK    8  A    between atoms: C_35  and  N_36
REMARK    9  A    between atoms: C_35  and  N_47
REMARK   10  A    between atoms: C_41  and  O_46
REMARK                            x       y       z     vdW  Elec       q    Type
REMARK                         _______ _______ _______ _____ _____    ______ ____
ROOT
ATOM      1  C   UNL     1      -0.419  -7.161  29.823  0.00  0.00    +0.057 C 
ATOM      2  C   UNL     1      -0.565  -8.422  29.212  0.00  0.00    +0.019 C 
ATOM      3  C   UNL     1       0.268  -8.889  28.234  0.00  0.00    +0.041 C 
ATOM      4  C   UNL     1       1.338  -8.089  27.796  0.00  0.00    -0.010 C 
ATOM      5  C   UNL     1       1.510  -6.857  28.366  0.00  0.00    +0.008 C 
ATOM      6  C   UNL     1       0.620  -6.425  29.371  0.00  0.00    +0.003 C 
ATOM      7  C   UNL     1       2.167  -8.705  26.757  0.00  0.00    +0.029 C 
ATOM      8  C   UNL     1       1.251  -9.247  25.671  0.00  0.00    +0.030 C 
ATOM      9  C   UNL     1       0.443 -10.416  26.209  0.00  0.00    +0.112 C 
ATOM     10  N   UNL     1       0.127 -10.157  27.627  0.00  0.00    -0.330 N 
ATOM     11  H   UNL     1      -0.198 -10.906  28.178  0.00  0.00    +0.147 HD
ENDROOT
BRANCH   9  12
ATOM     12  C   UNL     1       1.246 -11.633  26.065  0.00  0.00    +0.100 C 
ATOM     13  N   UNL     1       2.271 -11.906  26.886  0.00  0.00    -0.151 NA
ATOM     14  N   UNL     1       3.000 -12.995  26.825  0.00  0.00    -0.147 NA
ATOM     15  C   UNL     1       2.754 -13.929  25.905  0.00  0.00    +0.122 C 
ATOM     16  C   UNL     1       1.729 -13.751  25.014  0.00  0.00    +0.025 C 
ATOM     17  C   UNL     1       0.971 -12.586  25.102  0.00  0.00    +0.038 C 
ATOM     18  C   UNL     1      -0.053 -12.388  24.212  0.00  0.00    +0.100 C 
ATOM     19  N   UNL     1      -0.300 -13.324  23.278  0.00  0.00    -0.242 NA
ATOM     20  C   UNL     1       0.415 -14.469  23.166  0.00  0.00    +0.099 C 
ATOM     21  C   UNL     1       1.451 -14.709  24.037  0.00  0.00    +0.022 C 
ENDBRANCH   9  12
BRANCH   1  23
ATOM     22  N   UNL     1      -2.423  -5.858  30.813  0.00  0.00    -0.086 N 
ATOM     23  C   UNL     1      -1.422  -6.803  30.797  0.00  0.00    +0.282 C 
ATOM     24  O   UNL     1      -1.403  -7.512  31.931  0.00  0.00    -0.267 OA
BRANCH  22  25
ATOM     25  C   UNL     1      -2.741  -4.863  29.856  0.00  0.00    +0.267 C 
ATOM     26  N   UNL     1      -4.093  -4.334  30.038  0.00  0.00    -0.264 N 
ATOM     27  C   UNL     1      -4.017  -3.396  31.095  0.00  0.00    +0.308 C 
ATOM     28  O   UNL     1      -4.933  -2.959  31.835  0.00  0.00    -0.252 OA
ATOM     29  N   UNL     1      -2.658  -2.959  31.246  0.00  0.00    -0.237 N 
ATOM     30  C   UNL     1      -1.907  -3.639  30.268  0.00  0.00    +0.270 C 
ATOM     31  O   UNL     1      -0.800  -3.341  29.813  0.00  0.00    -0.271 OA
ATOM     32  H   UNL     1      -4.897  -4.582  29.526  0.00  0.00    +0.153 HD
ATOM     33  H   UNL     1      -2.318  -2.311  31.904  0.00  0.00    +0.159 HD
ENDBRANCH  22  25
BRANCH  22  34
ATOM     34  O   UNL     1      -3.292  -5.848  31.938  0.00  0.00    -0.308 OA
BRANCH  34  35
ATOM     35  C   UNL     1      -4.149  -6.887  32.188  0.00  0.00    +0.531 C 
ATOM     36  O   UNL     1      -4.584  -7.007  33.379  0.00  0.00    -0.201 OA
BRANCH  35  37
ATOM     37  O   UNL     1      -4.558  -7.797  31.217  0.00  0.00    -0.448 OA
ATOM     38  H   UNL     1      -5.309  -8.337  31.367  0.00  0.00    +0.299 HD
ENDBRANCH  35  37
ENDBRANCH  34  35
ENDBRANCH  22  34
ENDBRANCH   1  23
BRANCH   5  39
ATOM     39  C   UNL     1       2.613  -5.987  27.927  0.00  0.00    +0.157 C 
BRANCH  39  40
ATOM     40  N   UNL     1       2.065  -4.778  27.306  0.00  0.00    -0.238 N 
ATOM     41  C   UNL     1       2.791  -3.701  26.970  0.00  0.00    +0.163 A 
ATOM     42  N   UNL     1       4.084  -3.355  27.045  0.00  0.00    -0.197 NA
ATOM     43  C   UNL     1       4.558  -2.177  26.622  0.00  0.00    +0.217 A 
ATOM     44  N   UNL     1       3.702  -1.275  26.088  0.00  0.00    -0.178 NA
ATOM     45  C   UNL     1       2.389  -1.529  25.969  0.00  0.00    +0.245 A 
ATOM     46  C   UNL     1       1.931  -2.753  26.413  0.00  0.00    +0.167 A 
ATOM     47  N   UNL     1       0.705  -3.284  26.429  0.00  0.00    -0.220 NA
ATOM     48  C   UNL     1       0.805  -4.524  26.979  0.00  0.00    +0.170 C 
ATOM     49  N   UNL     1       5.963  -1.871  26.733  0.00  0.00    -0.327 N 
ATOM     50  H   UNL     1       6.582  -2.530  27.123  0.00  0.00    +0.145 HD
ATOM     51  H   UNL     1       6.304  -1.002  26.419  0.00  0.00    +0.145 HD
BRANCH  45  52
ATOM     52  O   UNL     1       1.528  -0.593  25.419  0.00  0.00    -0.491 OA
ATOM     53  H   UNL     1       0.763  -0.874  24.958  0.00  0.00    +0.294 HD
ENDBRANCH  45  52
ENDBRANCH  39  40
BRANCH  39  54
ATOM     54  N   UNL     1       3.268  -5.535  29.175  0.00  0.00    -0.303 NA
ATOM     55  H   UNL     1       3.338  -6.318  29.825  0.00  0.00    +0.121 HD
ATOM     56  H   UNL     1       2.715  -4.790  29.600  0.00  0.00    +0.121 HD
ENDBRANCH  39  54
ENDBRANCH   5  39
TORSDOF 10
ENDMDL
