REMARK  Name = =
REMARK  10 active torsions:
REMARK  status: ('A' for Active; 'I' for Inactive)
REMARK    1  A    between atoms: C_1  and  C_22
REMARK    2  A    between atoms: C_5  and  C_35
REMARK    3  A    between atoms: C_9  and  C_11
REMARK    4  A    between atoms: N_21  and  C_24
REMARK    5  A    between atoms: N_21  and  O_31
REMARK    6  A    between atoms: O_31  and  C_32
REMARK    7  A    between atoms: C_32  and  O_34
REMARK    8  A    between atoms: C_35  and  N_36
REMARK    9  A    between atoms: C_35  and  N_47
REMARK   10  A    between atoms: C_41  and  O_46
REMARK                            x       y       z     vdW  Elec       q    Type
REMARK                         _______ _______ _______ _____ _____    ______ ____
ROOT
ATOM      1  C   UNL     1       0.128  -8.017  27.911  0.00  0.00    +0.057 C 
ATOM      2  C   UNL     1       0.352  -9.256  27.280  0.00  0.00    +0.019 C 
ATOM      3  C   UNL     1       1.083  -9.399  26.133  0.00  0.00    +0.041 C 
ATOM      4  C   UNL     1       1.653  -8.264  25.530  0.00  0.00    -0.010 C 
ATOM      5  C   UNL     1       1.454  -7.043  26.114  0.00  0.00    +0.008 C 
ATOM      6  C   UNL     1       0.691  -6.954  27.297  0.00  0.00    +0.003 C 
ATOM      7  C   UNL     1       2.424  -8.548  24.317  0.00  0.00    +0.029 C 
ATOM      8  C   UNL     1       1.583  -9.434  23.411  0.00  0.00    +0.030 C 
ATOM      9  C   UNL     1       1.411 -10.806  24.041  0.00  0.00    +0.112 C 
ATOM     10  N   UNL     1       1.316 -10.643  25.505  0.00  0.00    -0.330 N 
ATOM     11  H   UNL     1       1.420 -11.441  26.072  0.00  0.00    +0.147 HD
ENDROOT
BRANCH   9  12
ATOM     12  C   UNL     1       2.570 -11.626  23.680  0.00  0.00    +0.100 C 
ATOM     13  N   UNL     1       3.226 -11.454  22.523  0.00  0.00    -0.151 NA
ATOM     14  N   UNL     1       4.288 -12.136  22.165  0.00  0.00    -0.147 NA
ATOM     15  C   UNL     1       4.795 -13.076  22.963  0.00  0.00    +0.122 C 
ATOM     16  C   UNL     1       4.202 -13.335  24.171  0.00  0.00    +0.025 C 
ATOM     17  C   UNL     1       3.076 -12.596  24.525  0.00  0.00    +0.038 C 
ATOM     18  C   UNL     1       2.464 -12.849  25.726  0.00  0.00    +0.100 C 
ATOM     19  N   UNL     1       2.968 -13.801  26.531  0.00  0.00    -0.242 NA
ATOM     20  C   UNL     1       4.062 -14.535  26.219  0.00  0.00    +0.099 C 
ATOM     21  C   UNL     1       4.707 -14.317  25.025  0.00  0.00    +0.022 C 
ENDBRANCH   9  12
BRANCH   1  23
ATOM     22  N   UNL     1      -0.749  -7.283  30.232  0.00  0.00    -0.086 N 
ATOM     23  C   UNL     1      -0.715  -8.040  29.083  0.00  0.00    +0.282 C 
ATOM     24  O   UNL     1      -1.667  -8.979  29.089  0.00  0.00    -0.267 OA
BRANCH  22  25
ATOM     25  C   UNL     1       0.117  -6.245  30.657  0.00  0.00    +0.267 C 
ATOM     26  N   UNL     1      -0.237  -5.738  31.983  0.00  0.00    -0.264 N 
ATOM     27  C   UNL     1       0.292  -6.660  32.917  0.00  0.00    +0.308 C 
ATOM     28  O   UNL     1      -0.039  -6.856  34.113  0.00  0.00    -0.252 OA
ATOM     29  N   UNL     1       1.341  -7.418  32.296  0.00  0.00    -0.237 N 
ATOM     30  C   UNL     1       1.447  -6.947  30.974  0.00  0.00    +0.270 C 
ATOM     31  O   UNL     1       2.400  -7.059  30.198  0.00  0.00    -0.271 OA
ATOM     32  H   UNL     1      -0.743  -4.918  32.185  0.00  0.00    +0.153 HD
ATOM     33  H   UNL     1       1.880  -8.128  32.713  0.00  0.00    +0.159 HD
ENDBRANCH  22  25
BRANCH  22  34
ATOM     34  O   UNL     1      -1.797  -7.547  31.156  0.00  0.00    -0.308 OA
BRANCH  34  35
ATOM     35  C   UNL     1      -3.032  -6.971  31.018  0.00  0.00    +0.531 C 
ATOM     36  O   UNL     1      -3.071  -5.704  30.896  0.00  0.00    -0.201 OA
BRANCH  35  37
ATOM     37  O   UNL     1      -4.221  -7.695  31.003  0.00  0.00    -0.448 OA
ATOM     38  H   UNL     1      -5.040  -7.250  30.906  0.00  0.00    +0.299 HD
ENDBRANCH  35  37
ENDBRANCH  34  35
ENDBRANCH  22  34
ENDBRANCH   1  23
BRANCH   5  39
ATOM     39  C   UNL     1       2.027  -5.831  25.507  0.00  0.00    +0.157 C 
BRANCH  39  40
ATOM     40  N   UNL     1       2.153  -4.786  26.527  0.00  0.00    -0.238 N 
ATOM     41  C   UNL     1       2.001  -3.474  26.292  0.00  0.00    +0.163 A 
ATOM     42  N   UNL     1       1.717  -2.718  25.222  0.00  0.00    -0.197 NA
ATOM     43  C   UNL     1       1.623  -1.384  25.266  0.00  0.00    +0.217 A 
ATOM     44  N   UNL     1       1.821  -0.746  26.444  0.00  0.00    -0.178 NA
ATOM     45  C   UNL     1       2.109  -1.416  27.571  0.00  0.00    +0.245 A 
ATOM     46  C   UNL     1       2.199  -2.791  27.494  0.00  0.00    +0.167 A 
ATOM     47  N   UNL     1       2.466  -3.712  28.424  0.00  0.00    -0.220 NA
ATOM     48  C   UNL     1       2.434  -4.928  27.815  0.00  0.00    +0.170 C 
ATOM     49  N   UNL     1       1.313  -0.632  24.074  0.00  0.00    -0.327 N 
ATOM     50  H   UNL     1       1.170  -1.100  23.220  0.00  0.00    +0.145 HD
ATOM     51  H   UNL     1       1.245   0.349  24.115  0.00  0.00    +0.145 HD
BRANCH  45  52
ATOM     52  O   UNL     1       2.309  -0.746  28.767  0.00  0.00    -0.491 OA
ATOM     53  H   UNL     1       2.243   0.188  28.797  0.00  0.00    +0.294 HD
ENDBRANCH  45  52
ENDBRANCH  39  40
BRANCH  39  54
ATOM     54  N   UNL     1       3.412  -6.201  25.139  0.00  0.00    -0.303 NA
ATOM     55  H   UNL     1       3.391  -6.931  24.427  0.00  0.00    +0.121 HD
ATOM     56  H   UNL     1       3.903  -6.546  25.964  0.00  0.00    +0.121 HD
ENDBRANCH  39  54
ENDBRANCH   5  39
TORSDOF 10
