REMARK  Name = =
REMARK  11 active torsions:
REMARK  status: ('A' for Active; 'I' for Inactive)
REMARK    1  A    between atoms: C_1  and  N_17
REMARK    2  A    between atoms: C_1  and  C_38
REMARK    3  A    between atoms: C_9  and  C_11
REMARK    4  A    between atoms: C_10  and  P_32
REMARK    5  A    between atoms: N_17  and  N_27
REMARK    6  A    between atoms: N_20  and  C_21
REMARK    7  A    between atoms: P_32  and  O_33
REMARK    8  A    between atoms: P_32  and  O_37
REMARK    9  A    between atoms: O_33  and  O_36
REMARK   10  A    between atoms: C_38  and  C_40
REMARK   11  A    between atoms: C_40  and  O_42
REMARK                            x       y       z     vdW  Elec       q    Type
REMARK                         _______ _______ _______ _____ _____    ______ ____
ROOT
ATOM      1  C   UNL     1      52.313 155.429  27.098  0.00  0.00    +0.168 C 
ATOM      2  C   UNL     1      51.101 155.644  26.228  0.00  0.00    +0.079 C 
ATOM      3  C   UNL     1      49.832 155.724  27.040  0.00  0.00    +0.208 C 
ATOM      4  O   UNL     1      50.053 156.376  28.288  0.00  0.00    -0.475 OA
ATOM      5  C   UNL     1      51.226 157.067  28.606  0.00  0.00    +0.140 C 
ATOM      6  C   UNL     1      52.375 156.617  28.043  0.00  0.00    +0.037 C 
ATOM      7  C   UNL     1      53.560 157.252  28.316  0.00  0.00    +0.001 C 
ATOM      8  C   UNL     1      53.540 158.348  29.169  0.00  0.00    -0.002 C 
ATOM      9  C   UNL     1      52.359 158.815  29.750  0.00  0.00    +0.011 C 
ATOM     10  C   UNL     1      51.213 158.162  29.456  0.00  0.00    +0.070 C 
ENDROOT
BRANCH   9  11
ATOM     11  C   UNL     1      52.449 160.005  30.641  0.00  0.00    +0.143 C 
ATOM     12  C   UNL     1      53.754 160.755  30.367  0.00  0.00    +0.066 C 
ATOM     13  C   UNL     1      53.697 162.116  31.068  0.00  0.00    +0.148 C 
ATOM     14  O   UNL     1      52.641 162.014  32.002  0.00  0.00    -0.327 OA
ATOM     15  C   UNL     1      51.468 161.969  31.252  0.00  0.00    +0.294 C 
ATOM     16  O   UNL     1      51.424 160.909  30.386  0.00  0.00    -0.325 OA
ENDBRANCH   9  11
BRANCH   1  17
ATOM     17  N   UNL     1      52.179 154.188  27.800  0.00  0.00    -0.161 N 
ATOM     18  C   UNL     1      52.419 152.871  27.337  0.00  0.00    +0.326 C 
ATOM     19  O   UNL     1      52.163 151.893  28.146  0.00  0.00    -0.251 OA
ATOM     20  N   UNL     1      52.909 152.450  26.093  0.00  0.00    -0.267 N 
ATOM     21  H   UNL     1      53.120 153.148  25.432  0.00  0.00    +0.156 HD
BRANCH  20  22
ATOM     22  C   UNL     1      53.126 151.101  25.707  0.00  0.00    +0.052 C 
ATOM     23  C   UNL     1      52.421 150.048  26.196  0.00  0.00    +0.015 C 
ATOM     24  C   UNL     1      52.657 148.730  25.763  0.00  0.00    +0.001 C 
ATOM     25  C   UNL     1      53.621 148.456  24.822  0.00  0.00    +0.000 C 
ATOM     26  C   UNL     1      54.345 149.514  24.316  0.00  0.00    +0.001 C 
ATOM     27  C   UNL     1      54.105 150.792  24.745  0.00  0.00    +0.015 C 
ENDBRANCH  20  22
BRANCH  17  28
ATOM     28  N   UNL     1      51.743 154.308  29.153  0.00  0.00    -0.090 N 
ATOM     29  N   UNL     1      50.615 153.973  29.725  0.00  0.00    -0.034 NA
ATOM     30  N   UNL     1      50.660 154.254  31.026  0.00  0.00    -0.023 NA
ATOM     31  N   UNL     1      51.842 154.780  31.294  0.00  0.00    -0.106 NA
ATOM     32  C   UNL     1      52.518 154.812  30.117  0.00  0.00    +0.231 C 
ENDBRANCH  17  28
ENDBRANCH   1  17
BRANCH  10  33
ATOM     33  P   UNL     1      49.653 158.749  30.017  0.00  0.00    +0.159 P 
ATOM     34  H   UNL     1      48.622 159.673  30.112  0.00  0.00    +0.118 HD
BRANCH  33  35
ATOM     35  O   UNL     1      49.215 159.986  28.884  0.00  0.00    -0.352 OA
ATOM     36  H   UNL     1      49.622 160.826  29.149  0.00  0.00    +0.217 HD
ENDBRANCH  33  35
BRANCH  33  37
ATOM     37  O   UNL     1      49.658 157.387  30.564  0.00  0.00    -0.193 OA
BRANCH  37  38
ATOM     38  O   UNL     1      48.589 157.500  29.542  0.00  0.00    -0.245 OA
ATOM     39  H   UNL     1      48.129 156.650  29.460  0.00  0.00    +0.253 HD
ENDBRANCH  37  38
ENDBRANCH  33  37
ENDBRANCH  10  33
BRANCH   1  40
ATOM     40  C   UNL     1      53.566 155.400  26.304  0.00  0.00    +0.269 C 
ATOM     41  O   UNL     1      54.442 154.540  26.611  0.00  0.00    -0.282 OA
BRANCH  40  42
ATOM     42  C   UNL     1      53.883 156.273  25.202  0.00  0.00    +0.375 C 
ATOM     43  O   UNL     1      53.082 157.222  24.937  0.00  0.00    -0.242 OA
BRANCH  42  44
ATOM     44  O   UNL     1      55.007 156.145  24.412  0.00  0.00    -0.475 OA
ATOM     45  H   UNL     1      55.620 155.456  24.578  0.00  0.00    +0.296 HD
ENDBRANCH  42  44
ENDBRANCH  40  42
ENDBRANCH   1  40
TORSDOF 11
REMARK  Name = =
REMARK  11 active torsions:
REMARK  status: ('A' for Active; 'I' for Inactive)
REMARK    1  A    between atoms: C_1  and  N_17
REMARK    2  A    between atoms: C_1  and  C_38
REMARK    3  A    between atoms: C_9  and  C_11
REMARK    4  A    between atoms: C_10  and  P_32
REMARK    5  A    between atoms: N_17  and  N_27
REMARK    6  A    between atoms: N_20  and  C_21
REMARK    7  A    between atoms: P_32  and  O_33
REMARK    8  A    between atoms: P_32  and  O_37
REMARK    9  A    between atoms: O_33  and  O_36
REMARK   10  A    between atoms: C_38  and  C_40
REMARK   11  A    between atoms: C_40  and  O_42
REMARK                            x       y       z     vdW  Elec       q    Type
REMARK                         _______ _______ _______ _____ _____    ______ ____
ROOT
ATOM      1  O   HOH     1      49.988 158.582  31.597  0.00  0.00    -0.253 OA
ATOM      2  H   HOH     0      50.958 158.582  31.597  0.00  0.00    +0.253 HD
ENDROOT
TORSDOF 0
