REMARK  Name = =
REMARK  1 active torsions:
REMARK  status: ('A' for Active; 'I' for Inactive)
REMARK    1  A    between atoms: C_1  and  C_8
REMARK                            x       y       z     vdW  Elec       q    Type
REMARK                         _______ _______ _______ _____ _____    ______ ____
ROOT
ATOM      1  C   UNL     1      -4.825  -3.231  31.933  0.00  0.00    +0.021 C 
ATOM      2  C   UNL     1      -4.149  -3.601  33.254  0.00  0.00    +0.004 C 
ATOM      3  C   UNL     1      -4.003  -5.092  33.231  0.00  0.00    +0.001 C 
ATOM      4  C   UNL     1      -4.053  -5.810  31.956  0.00  0.00    +0.004 C 
ATOM      5  C   UNL     1      -3.699  -5.072  30.696  0.00  0.00    +0.022 C 
ATOM      6  C   UNL     1      -3.817  -3.577  30.934  0.00  0.00    -0.044 C 
ATOM      7  C   UNL     1      -2.992  -2.808  30.292  0.00  0.00    -0.009 C 
ENDROOT
BRANCH   1   8
ATOM      8  C   UNL     1      -5.527  -1.976  31.893  0.00  0.00    +0.036 C 
ATOM      9  C   UNL     1      -5.209  -0.773  31.494  0.00  0.00    +0.035 C 
ATOM     10  C   UNL     1      -6.404   0.129  31.719  0.00  0.00    +0.142 C 
ATOM     11  O   UNL     1      -7.090  -0.520  32.713  0.00  0.00    -0.354 OA
ATOM     12  C   UNL     1      -6.974  -1.879  32.388  0.00  0.00    +0.142 C 
ENDBRANCH   1   8
TORSDOF 1
