REMARK  Name = =
REMARK  12 active torsions:
REMARK  status: ('A' for Active; 'I' for Inactive)
REMARK    1  A    between atoms: C_1  and  C_21
REMARK    2  A    between atoms: C_1  and  C_31
REMARK    3  A    between atoms: C_4  and  N_8
REMARK    4  A    between atoms: C_23  and  O_26
REMARK    5  A    between atoms: C_24  and  N_27
REMARK    6  A    between atoms: N_27  and  C_28
REMARK    7  A    between atoms: C_28  and  C_29
REMARK    8  A    between atoms: C_29  and  O_30
REMARK    9  A    between atoms: C_35  and  S_36
REMARK   10  A    between atoms: S_36  and  P_37
REMARK   11  A    between atoms: P_37  and  O_39
REMARK   12  A    between atoms: P_37  and  O_40
REMARK                            x       y       z     vdW  Elec       q    Type
REMARK                         _______ _______ _______ _____ _____    ______ ____
ROOT
ATOM      1  C   UNL     1       3.603  -4.730  21.916  0.00  0.00    +0.037 C 
ATOM      2  C   UNL     1       2.547  -3.898  22.650  0.00  0.00    +0.010 C 
ATOM      3  C   UNL     1       2.036  -2.764  21.782  0.00  0.00    +0.023 C 
ATOM      4  C   UNL     1       3.234  -1.809  21.673  0.00  0.00    +0.102 C 
ATOM      5  C   UNL     1       4.178  -2.443  20.707  0.00  0.00    +0.044 C 
ATOM      6  C   UNL     1       4.349  -3.874  20.957  0.00  0.00    -0.039 C 
ATOM      7  C   UNL     1       5.305  -4.486  20.214  0.00  0.00    -0.009 C 
ENDROOT
BRANCH   4   8
ATOM      8  N   UNL     1       2.848  -0.505  21.229  0.00  0.00    -0.191 N 
ATOM      9  N   UNL     1       2.739  -0.160  19.965  0.00  0.00    -0.139 NA
ATOM     10  C   UNL     1       2.358   1.141  19.883  0.00  0.00    +0.262 C 
ATOM     11  N   UNL     1       2.149   1.826  18.654  0.00  0.00    -0.123 N 
ATOM     12  N   UNL     1       1.868   1.127  17.472  0.00  0.00    -0.172 NA
ATOM     13  C   UNL     1       1.677   1.706  16.354  0.00  0.00    +0.092 C 
ATOM     14  C   UNL     1       1.735   3.170  16.208  0.00  0.00    +0.058 C 
ATOM     15  C   UNL     1       1.430   3.894  17.499  0.00  0.00    +0.094 C 
ATOM     16  C   UNL     1       2.220   3.254  18.584  0.00  0.00    +0.251 C 
ATOM     17  O   UNL     1       2.918   3.873  19.410  0.00  0.00    -0.273 OA
ATOM     18  N   UNL     1       2.244   1.551  21.142  0.00  0.00    -0.191 NA
ATOM     19  C   UNL     1       2.547   0.537  22.001  0.00  0.00    +0.187 C 
ENDBRANCH   4   8
BRANCH   1  21
ATOM     20  C   UNL     1       5.874  -5.028  22.833  0.00  0.00    -0.002 C 
ATOM     21  C   UNL     1       4.520  -5.191  22.968  0.00  0.00    -0.016 C 
ATOM     22  C   UNL     1       4.056  -5.758  24.125  0.00  0.00    +0.034 C 
ATOM     23  C   UNL     1       4.942  -6.155  25.128  0.00  0.00    +0.148 C 
ATOM     24  C   UNL     1       6.302  -5.993  24.995  0.00  0.00    +0.099 C 
ATOM     25  C   UNL     1       6.766  -5.426  23.840  0.00  0.00    +0.019 C 
BRANCH  23  26
ATOM     26  O   UNL     1       4.456  -6.729  26.295  0.00  0.00    -0.504 OA
ATOM     27  H   UNL     1       3.534  -6.850  26.409  0.00  0.00    +0.292 HD
ENDBRANCH  23  26
BRANCH  24  28
ATOM     28  N   UNL     1       7.200  -6.414  26.047  0.00  0.00    -0.232 NA
BRANCH  28  29
ATOM     29  C   UNL     1       8.083  -7.456  25.580  0.00  0.00    +0.144 C 
BRANCH  29  30
ATOM     30  C   UNL     1       9.529  -7.143  25.857  0.00  0.00    +0.160 C 
BRANCH  30  31
ATOM     31  O   UNL     1       9.949  -5.966  25.275  0.00  0.00    -0.380 OA
ATOM     32  H   UNL     1      10.884  -5.816  25.486  0.00  0.00    +0.211 HD
ENDBRANCH  30  31
ENDBRANCH  29  30
ENDBRANCH  28  29
ENDBRANCH  24  28
ENDBRANCH   1  21
BRANCH   1  33
ATOM     33  C   UNL     1       2.899  -5.840  21.167  0.00  0.00    +0.047 C 
ATOM     34  C   UNL     1       2.766  -5.823  19.815  0.00  0.00    +0.036 C 
ATOM     35  C   UNL     1       2.017  -7.066  19.415  0.00  0.00    +0.143 C 
ATOM     36  O   UNL     1       1.257  -7.324  20.566  0.00  0.00    -0.346 OA
ATOM     37  C   UNL     1       2.201  -7.049  21.607  0.00  0.00    +0.161 C 
BRANCH  37  38
ATOM     38  S   UNL     1       3.263  -8.532  21.661  0.00  0.00    -0.079 S 
ATOM     39  H   UNL     1       4.262  -8.369  22.569  0.00  0.00    +0.105 HD
BRANCH  38  40
ATOM     40  P   UNL     1       2.092  -9.988  22.193  0.00  0.00    +0.377 P 
ATOM     41  O   UNL     1       1.207  -9.327  23.223  0.00  0.00    -0.247 OA
BRANCH  40  42
ATOM     42  O   UNL     1       2.998 -11.154  23.025  0.00  0.00    -0.317 OA
ATOM     43  H   UNL     1       3.454 -10.736  23.772  0.00  0.00    +0.221 HD
ENDBRANCH  40  42
BRANCH  40  44
ATOM     44  O   UNL     1       1.298 -10.663  20.910  0.00  0.00    -0.317 OA
ATOM     45  H   UNL     1       1.942 -11.061  20.304  0.00  0.00    +0.221 HD
ENDBRANCH  40  44
ENDBRANCH  38  40
ENDBRANCH  37  38
ENDBRANCH   1  33
TORSDOF 12
