REMARK  Name = =
REMARK  5 active torsions:
REMARK  status: ('A' for Active; 'I' for Inactive)
REMARK    1  A    between atoms: C_1  and  C_7
REMARK    2  A    between atoms: C_3  and  O_12
REMARK    3  A    between atoms: C_4  and  O_11
REMARK    4  A    between atoms: C_5  and  O_10
REMARK    5  A    between atoms: C_7  and  O_9
REMARK                            x       y       z     vdW  Elec       q    Type
REMARK                         _______ _______ _______ _____ _____    ______ ____
ROOT
ATOM      1  C   UNL     1      -6.508  -0.377  31.818  0.00  0.00    +0.082 C 
ATOM      2  C   UNL     1      -5.221  -0.849  31.725  0.00  0.00    +0.046 C 
ATOM      3  C   UNL     1      -4.916  -2.075  32.282  0.00  0.00    +0.171 C 
ATOM      4  C   UNL     1      -5.876  -2.816  32.918  0.00  0.00    +0.202 C 
ATOM      5  C   UNL     1      -7.163  -2.364  33.021  0.00  0.00    +0.171 C 
ATOM      6  C   UNL     1      -7.474  -1.123  32.459  0.00  0.00    +0.046 C 
ENDROOT
BRANCH   1   7
ATOM      7  C   UNL     1      -6.865   0.922  31.238  0.00  0.00    +0.338 C 
ATOM      8  O   UNL     1      -7.934   1.491  31.586  0.00  0.00    -0.245 OA
BRANCH   7   9
ATOM      9  O   UNL     1      -6.082   1.576  30.313  0.00  0.00    -0.477 OA
ATOM     10  H   UNL     1      -5.278   1.191  30.024  0.00  0.00    +0.295 HD
ENDBRANCH   7   9
ENDBRANCH   1   7
BRANCH   5  11
ATOM     11  O   UNL     1      -8.112  -3.132  33.669  0.00  0.00    -0.503 OA
ATOM     12  H   UNL     1      -7.873  -3.960  34.036  0.00  0.00    +0.292 HD
ENDBRANCH   5  11
BRANCH   4  13
ATOM     13  O   UNL     1      -5.531  -4.059  33.472  0.00  0.00    -0.501 OA
ATOM     14  H   UNL     1      -4.651  -4.374  33.405  0.00  0.00    +0.292 HD
ENDBRANCH   4  13
BRANCH   3  15
ATOM     15  O   UNL     1      -3.600  -2.555  32.186  0.00  0.00    -0.503 OA
ATOM     16  H   UNL     1      -2.946  -2.045  31.750  0.00  0.00    +0.292 HD
ENDBRANCH   3  15
TORSDOF 5
