REMARK  Name = =
REMARK  7 active torsions:
REMARK  status: ('A' for Active; 'I' for Inactive)
REMARK    1  A    between atoms: C_1  and  C_16
REMARK    2  A    between atoms: C_3  and  O_21
REMARK    3  A    between atoms: C_4  and  O_20
REMARK    4  A    between atoms: C_5  and  O_19
REMARK    5  A    between atoms: C_6  and  C_7
REMARK    6  A    between atoms: N_9  and  C_10
REMARK    7  A    between atoms: C_16  and  O_18
REMARK                            x       y       z     vdW  Elec       q    Type
REMARK                         _______ _______ _______ _____ _____    ______ ____
ROOT
ATOM      1  C   UNL     1      -6.583  -1.377  31.681  0.00  0.00    +0.086 C 
ATOM      2  C   UNL     1      -5.166  -1.501  31.650  0.00  0.00    +0.047 C 
ATOM      3  C   UNL     1      -4.467  -2.419  32.377  0.00  0.00    +0.171 C 
ATOM      4  C   UNL     1      -5.194  -3.263  33.178  0.00  0.00    +0.202 C 
ATOM      5  C   UNL     1      -6.558  -3.171  33.226  0.00  0.00    +0.175 C 
ATOM      6  C   UNL     1      -7.281  -2.222  32.466  0.00  0.00    +0.097 C 
ENDROOT
BRANCH   6   7
ATOM      7  C   UNL     1      -8.714  -2.341  32.611  0.00  0.00    +0.254 C 
ATOM      8  O   UNL     1      -9.279  -3.413  32.146  0.00  0.00    -0.270 OA
ATOM      9  N   UNL     1      -9.661  -1.479  33.165  0.00  0.00    -0.266 N 
ATOM     10  H   UNL     1      -9.360  -0.619  33.539  0.00  0.00    +0.157 HD
BRANCH   9  11
ATOM     11  C   UNL     1     -11.075  -1.805  33.210  0.00  0.00    +0.134 C 
ATOM     12  C   UNL     1     -11.664  -2.169  34.400  0.00  0.00    +0.034 C 
ATOM     13  C   UNL     1     -13.021  -2.488  34.472  0.00  0.00    +0.004 C 
ATOM     14  C   UNL     1     -13.793  -2.438  33.332  0.00  0.00    +0.021 C 
ATOM     15  C   UNL     1     -13.165  -2.070  32.158  0.00  0.00    +0.100 C 
ATOM     16  N   UNL     1     -11.846  -1.767  32.124  0.00  0.00    -0.229 NA
ENDBRANCH   9  11
ENDBRANCH   6   7
BRANCH   1  17
ATOM     17  C   UNL     1      -7.133  -0.189  31.094  0.00  0.00    +0.338 C 
ATOM     18  O   UNL     1      -6.282   0.786  30.990  0.00  0.00    -0.245 OA
BRANCH  17  19
ATOM     19  O   UNL     1      -8.355   0.151  30.634  0.00  0.00    -0.477 OA
ATOM     20  H   UNL     1      -9.054  -0.472  30.657  0.00  0.00    +0.295 HD
ENDBRANCH  17  19
ENDBRANCH   1  17
BRANCH   5  21
ATOM     21  O   UNL     1      -7.219  -4.074  34.073  0.00  0.00    -0.503 OA
ATOM     22  H   UNL     1      -6.726  -4.697  34.570  0.00  0.00    +0.292 HD
ENDBRANCH   5  21
BRANCH   4  23
ATOM     23  O   UNL     1      -4.522  -4.227  33.955  0.00  0.00    -0.501 OA
ATOM     24  H   UNL     1      -3.588  -4.288  33.920  0.00  0.00    +0.292 HD
ENDBRANCH   4  23
BRANCH   3  25
ATOM     25  O   UNL     1      -3.083  -2.523  32.331  0.00  0.00    -0.503 OA
ATOM     26  H   UNL     1      -2.588  -1.946  31.784  0.00  0.00    +0.292 HD
ENDBRANCH   3  25
TORSDOF 7
