REMARK  Name = =
REMARK  8 active torsions:
REMARK  status: ('A' for Active; 'I' for Inactive)
REMARK    1  A    between atoms: C_1  and  C_21
REMARK    2  A    between atoms: C_3  and  O_26
REMARK    3  A    between atoms: C_4  and  O_25
REMARK    4  A    between atoms: C_5  and  O_24
REMARK    5  A    between atoms: C_6  and  C_7
REMARK    6  A    between atoms: N_9  and  C_10
REMARK    7  A    between atoms: C_13  and  N_16
REMARK    8  A    between atoms: C_21  and  O_23
REMARK                            x       y       z     vdW  Elec       q    Type
REMARK                         _______ _______ _______ _____ _____    ______ ____
ROOT
ATOM      1  C   UNL     1      -5.792  -0.684  31.696  0.00  0.00    +0.086 C 
ATOM      2  C   UNL     1      -4.786  -1.458  32.336  0.00  0.00    +0.047 C 
ATOM      3  C   UNL     1      -5.072  -2.574  33.062  0.00  0.00    +0.171 C 
ATOM      4  C   UNL     1      -6.387  -2.938  33.159  0.00  0.00    +0.202 C 
ATOM      5  C   UNL     1      -7.412  -2.228  32.559  0.00  0.00    +0.175 C 
ATOM      6  C   UNL     1      -7.102  -1.079  31.814  0.00  0.00    +0.097 C 
ENDROOT
BRANCH   6   7
ATOM      7  C   UNL     1      -8.169  -0.349  31.195  0.00  0.00    +0.254 C 
ATOM      8  O   UNL     1      -8.139   0.890  30.922  0.00  0.00    -0.270 OA
ATOM      9  N   UNL     1      -9.432  -0.910  30.794  0.00  0.00    -0.266 N 
ATOM     10  H   UNL     1      -9.611  -1.867  30.941  0.00  0.00    +0.157 HD
BRANCH   9  11
ATOM     11  C   UNL     1     -10.445  -0.071  30.173  0.00  0.00    +0.134 C 
ATOM     12  C   UNL     1     -11.745  -0.472  30.198  0.00  0.00    +0.036 C 
ATOM     13  C   UNL     1     -12.724   0.322  29.608  0.00  0.00    +0.019 C 
ATOM     14  C   UNL     1     -12.400   1.514  28.995  0.00  0.00    +0.067 C 
ATOM     15  C   UNL     1     -11.072   1.874  28.997  0.00  0.00    +0.115 C 
ATOM     16  N   UNL     1     -10.145   1.090  29.573  0.00  0.00    -0.228 NA
BRANCH  14  17
ATOM     17  N   UNL     1     -13.399   2.339  28.383  0.00  0.00    -0.306 N 
ATOM     18  C   UNL     1     -13.185   3.591  27.686  0.00  0.00    +0.091 C 
ATOM     19  C   UNL     1     -14.375   4.430  28.148  0.00  0.00    +0.023 C 
ATOM     20  C   UNL     1     -15.475   3.443  28.419  0.00  0.00    +0.023 C 
ATOM     21  C   UNL     1     -14.821   2.079  28.345  0.00  0.00    +0.091 C 
ENDBRANCH  14  17
ENDBRANCH   9  11
ENDBRANCH   6   7
BRANCH   1  22
ATOM     22  C   UNL     1      -5.334   0.463  30.968  0.00  0.00    +0.338 C 
ATOM     23  O   UNL     1      -4.153   0.442  30.433  0.00  0.00    -0.245 OA
BRANCH  22  24
ATOM     24  O   UNL     1      -6.004   1.619  30.757  0.00  0.00    -0.477 OA
ATOM     25  H   UNL     1      -6.867   1.731  31.105  0.00  0.00    +0.295 HD
ENDBRANCH  22  24
ENDBRANCH   1  22
BRANCH   5  26
ATOM     26  O   UNL     1      -8.706  -2.672  32.713  0.00  0.00    -0.503 OA
ATOM     27  H   UNL     1      -8.880  -3.443  33.217  0.00  0.00    +0.292 HD
ENDBRANCH   5  26
BRANCH   4  28
ATOM     28  O   UNL     1      -6.670  -4.070  33.896  0.00  0.00    -0.501 OA
ATOM     29  H   UNL     1      -5.976  -4.550  34.302  0.00  0.00    +0.292 HD
ENDBRANCH   4  28
BRANCH   3  30
ATOM     30  O   UNL     1      -4.051  -3.310  33.680  0.00  0.00    -0.503 OA
ATOM     31  H   UNL     1      -3.159  -3.036  33.596  0.00  0.00    +0.292 HD
ENDBRANCH   3  30
TORSDOF 8
