MODEL 1
REMARK VINA RESULT:    -8.086      0.000      0.000
REMARK INTER + INTRA:         -17.432
REMARK INTER:                 -14.703
REMARK INTRA:                  -2.729
REMARK UNBOUND:                -2.729
REMARK  Name = =
REMARK  16 active torsions:
REMARK  status: ('A' for Active; 'I' for Inactive)
REMARK    1  A    between atoms: O_1  and  C_2
REMARK    2  A    between atoms: O_1  and  C_20
REMARK    3  A    between atoms: C_2  and  C_3
REMARK    4  A    between atoms: C_3  and  N_4
REMARK    5  A    between atoms: C_5  and  C_10
REMARK    6  A    between atoms: C_6  and  N_9
REMARK    7  A    between atoms: C_10  and  C_11
REMARK    8  A    between atoms: N_14  and  C_17
REMARK    9  A    between atoms: C_17  and  C_18
REMARK   10  A    between atoms: C_18  and  N_19
REMARK   11  A    between atoms: C_20  and  C_27
REMARK   12  A    between atoms: C_20  and  C_29
REMARK   13  A    between atoms: C_21  and  N_28
REMARK   14  A    between atoms: C_29  and  C_30
REMARK   15  A    between atoms: C_30  and  C_31
REMARK   16  A    between atoms: C_30  and  O_38
REMARK                            x       y       z     vdW  Elec       q    Type
REMARK                         _______ _______ _______ _____ _____    ______ ____
ROOT
ATOM      1  O   UNL     1      -2.498  -3.793  30.982  0.00  0.00    -0.354 OA
ENDROOT
BRANCH   1   2
ATOM      2  C   UNL     1      -3.341  -4.375  31.851  0.00  0.00    +0.122 C 
BRANCH   2   9
ATOM      3  C   UNL     1      -2.821  -6.298  33.367  0.00  0.00    +0.056 C 
ATOM      4  C   UNL     1      -2.735  -7.807  33.333  0.00  0.00    +0.018 C 
ATOM      5  C   UNL     1      -2.030  -8.327  32.115  0.00  0.00    +0.033 C 
ATOM      6  C   UNL     1      -3.020  -8.324  30.970  0.00  0.00    +0.142 C 
ATOM      7  O   UNL     1      -4.272  -7.922  31.401  0.00  0.00    -0.354 OA
ATOM      8  C   UNL     1      -4.404  -6.537  31.459  0.00  0.00    +0.146 C 
ATOM      9  C   UNL     1      -3.175  -5.833  31.967  0.00  0.00    +0.071 C 
BRANCH   3  10
ATOM     10  N   UNL     1      -3.785  -5.936  34.359  0.00  0.00    -0.322 NA
ATOM     11  H   UNL     1      -4.332  -5.141  34.028  0.00  0.00    +0.119 HD
ATOM     12  H   UNL     1      -3.305  -5.683  35.223  0.00  0.00    +0.119 HD
ENDBRANCH   3  10
ENDBRANCH   2   9
BRANCH   2  13
ATOM     13  C   UNL     1      -4.815  -4.012  31.514  0.00  0.00    +0.064 C 
BRANCH  13  14
ATOM     14  C   UNL     1      -5.414  -3.264  32.678  0.00  0.00    +0.142 C 
BRANCH  14  15
ATOM     15  C   UNL     1      -6.071  -2.021  32.238  0.00  0.00    +0.048 A 
ATOM     16  S   UNL     1      -5.223  -0.455  31.762  0.00  0.00    -0.073 S 
ATOM     17  C   UNL     1      -6.917   0.383  31.406  0.00  0.00    +0.088 A 
ATOM     18  C   UNL     1      -6.820   1.831  30.934  0.00  0.00    +0.059 C 
ATOM     19  N   UNL     1      -7.618  -0.480  31.656  0.00  0.00    -0.247 NA
ATOM     20  C   UNL     1      -7.431  -1.703  32.069  0.00  0.00    +0.064 A 
ATOM     21  C   UNL     1      -8.511  -2.724  32.354  0.00  0.00    +0.052 C 
ENDBRANCH  14  15
BRANCH  14  22
ATOM     22  O   UNL     1      -4.350  -2.960  33.571  0.00  0.00    -0.379 OA
ATOM     23  H   UNL     1      -4.443  -2.046  33.885  0.00  0.00    +0.211 HD
ENDBRANCH  14  22
ENDBRANCH  13  14
ENDBRANCH   2  13
ENDBRANCH   1   2
BRANCH   1  24
ATOM     24  C   UNL     1      -2.820  -2.991  29.994  0.00  0.00    +0.166 C 
BRANCH  24  25
ATOM     25  C   UNL     1      -2.591  -3.222  28.552  0.00  0.00    +0.148 C 
BRANCH  25  26
ATOM     26  N   UNL     1      -1.393  -2.748  27.949  0.00  0.00    -0.212 N 
ATOM     27  C   UNL     1      -0.283  -3.469  27.609  0.00  0.00    +0.061 C 
ATOM     28  C   UNL     1       0.627  -2.625  27.030  0.00  0.00    +0.074 C 
ATOM     29  C   UNL     1       0.033  -1.357  27.024  0.00  0.00    +0.133 C 
ATOM     30  N   UNL     1      -1.143  -1.529  27.580  0.00  0.00    -0.175 NA
BRANCH  28  31
ATOM     31  N   UNL     1       1.951  -2.889  26.524  0.00  0.00    -0.355 N 
ATOM     32  H   UNL     1       2.516  -2.145  26.213  0.00  0.00    +0.142 HD
ATOM     33  H   UNL     1       2.290  -3.812  26.490  0.00  0.00    +0.142 HD
ENDBRANCH  28  31
BRANCH  27  34
ATOM     34  C   UNL     1      -0.096  -4.910  27.827  0.00  0.00    +0.044 C 
BRANCH  34  35
ATOM     35  C   UNL     1       0.689  -5.310  29.030  0.00  0.00    +0.009 C 
ATOM     36  C   UNL     1       0.156  -6.523  29.737  0.00  0.00    +0.018 C 
ATOM     37  C   UNL     1       1.219  -6.932  30.788  0.00  0.00    +0.072 C 
ATOM     38  N   UNL     1       1.284  -5.913  31.761  0.00  0.00    -0.272 NA
ATOM     39  C   UNL     1       1.759  -4.687  31.123  0.00  0.00    +0.072 C 
ATOM     40  C   UNL     1       0.860  -4.199  30.034  0.00  0.00    +0.018 C 
BRANCH  38  41
ATOM     41  C   UNL     1       2.148  -6.183  32.851  0.00  0.00    +0.089 C 
BRANCH  41  42
ATOM     42  C   UNL     1       2.778  -4.974  33.440  0.00  0.00    +0.083 C 
BRANCH  42  43
ATOM     43  N   UNL     1       4.186  -5.046  33.690  0.00  0.00    -0.320 NA
ATOM     44  H   UNL     1       4.537  -4.119  33.927  0.00  0.00    +0.119 HD
ATOM     45  H   UNL     1       4.662  -5.388  32.856  0.00  0.00    +0.119 HD
ENDBRANCH  42  43
ENDBRANCH  41  42
ENDBRANCH  38  41
ENDBRANCH  34  35
ENDBRANCH  27  34
ENDBRANCH  25  26
ENDBRANCH  24  25
ENDBRANCH   1  24
TORSDOF 16
ENDMDL
