MODEL 1
REMARK VINA RESULT:    -9.636      0.000      0.000
REMARK INTER + INTRA:         -17.100
REMARK INTER:                 -13.860
REMARK INTRA:                  -3.240
REMARK UNBOUND:                -3.240
REMARK  Name = =
REMARK  10 active torsions:
REMARK  status: ('A' for Active; 'I' for Inactive)
REMARK    1  A    between atoms: C_1  and  S_29
REMARK    2  A    between atoms: C_2  and  N_7
REMARK    3  A    between atoms: C_5  and  C_14
REMARK    4  A    between atoms: C_11  and  O_13
REMARK    5  A    between atoms: C_19  and  C_20
REMARK    6  A    between atoms: C_22  and  O_28
REMARK    7  A    between atoms: C_23  and  O_27
REMARK    8  A    between atoms: C_24  and  O_26
REMARK    9  A    between atoms: S_29  and  N_30
REMARK   10  A    between atoms: C_40  and  O_43
REMARK                            x       y       z     vdW  Elec       q    Type
REMARK                         _______ _______ _______ _____ _____    ______ ____
ROOT
ATOM      1  C   UNL     1       0.298  -3.530  26.995  0.00  0.00    +0.054 C 
ATOM      2  C   UNL     1       1.515  -3.085  26.554  0.00  0.00    +0.072 C 
ATOM      3  C   UNL     1       2.523  -4.004  26.393  0.00  0.00    +0.016 C 
ATOM      4  C   UNL     1       2.321  -5.365  26.672  0.00  0.00    +0.001 C 
ATOM      5  C   UNL     1       1.104  -5.828  27.116  0.00  0.00    -0.003 C 
ATOM      6  C   UNL     1       0.110  -4.886  27.268  0.00  0.00    +0.008 C 
ENDROOT
BRANCH   2   7
ATOM      7  N   UNL     1       1.731  -1.693  26.266  0.00  0.00    -0.158 N 
ATOM      8  C   UNL     1       1.612  -1.234  24.932  0.00  0.00    +0.313 C 
ATOM      9  O   UNL     1       1.320  -2.025  24.000  0.00  0.00    -0.252 OA
ATOM     10  N   UNL     1       1.817   0.125  24.608  0.00  0.00    -0.313 N 
ATOM     11  C   UNL     1       2.065  -0.767  27.281  0.00  0.00    +0.413 C 
ATOM     12  O   UNL     1       2.249   0.443  27.000  0.00  0.00    -0.226 OA
ATOM     13  H   UNL     1       2.046   0.771  25.316  0.00  0.00    +0.147 HD
ATOM     14  H   UNL     1       1.730   0.428  23.676  0.00  0.00    +0.147 HD
BRANCH  11  15
ATOM     15  O   UNL     1       2.197  -1.172  28.622  0.00  0.00    -0.466 OA
ATOM     16  H   UNL     1       2.580  -0.593  29.251  0.00  0.00    +0.297 HD
ENDBRANCH  11  15
ENDBRANCH   2   7
BRANCH   5  17
ATOM     17  C   UNL     1       0.841  -7.255  27.418  0.00  0.00    -0.023 C 
ATOM     18  C   UNL     1       1.528  -8.222  26.850  0.00  0.00    -0.030 C 
ATOM     19  C   UNL     1       1.366  -9.677  27.065  0.00  0.00    +0.026 C 
ATOM     20  C   UNL     1       0.281  -9.999  28.045  0.00  0.00    +0.005 C 
ATOM     21  C   UNL     1      -0.768  -8.940  28.121  0.00  0.00    +0.009 C 
ATOM     22  C   UNL     1      -0.218  -7.550  28.386  0.00  0.00    +0.044 C 
BRANCH  22  23
ATOM     23  C   UNL     1       0.147  -7.387  29.801  0.00  0.00    -0.012 C 
ATOM     24  C   UNL     1       1.315  -6.778  30.209  0.00  0.00    +0.036 C 
ATOM     25  C   UNL     1       1.652  -6.631  31.539  0.00  0.00    +0.170 C 
ATOM     26  C   UNL     1       0.775  -7.118  32.509  0.00  0.00    +0.202 C 
ATOM     27  C   UNL     1      -0.402  -7.732  32.130  0.00  0.00    +0.170 C 
ATOM     28  C   UNL     1      -0.698  -7.857  30.776  0.00  0.00    +0.036 C 
BRANCH  27  29
ATOM     29  O   UNL     1      -1.291  -8.223  33.095  0.00  0.00    -0.503 OA
ATOM     30  H   UNL     1      -1.276  -7.877  33.965  0.00  0.00    +0.292 HD
ENDBRANCH  27  29
BRANCH  26  31
ATOM     31  O   UNL     1       1.122  -6.964  33.825  0.00  0.00    -0.501 OA
ATOM     32  H   UNL     1       0.456  -6.923  34.483  0.00  0.00    +0.292 HD
ENDBRANCH  26  31
BRANCH  25  33
ATOM     33  O   UNL     1       2.847  -6.009  31.927  0.00  0.00    -0.503 OA
ATOM     34  H   UNL     1       3.516  -5.842  31.293  0.00  0.00    +0.292 HD
ENDBRANCH  25  33
ENDBRANCH  22  23
ENDBRANCH   5  17
BRANCH   1  35
ATOM     35  S   UNL     1      -1.030  -2.373  27.200  0.00  0.00    -0.037 S 
BRANCH  35  36
ATOM     36  N   UNL     1      -1.577  -2.257  28.890  0.00  0.00    -0.225 NA
ATOM     37  C   UNL     1      -0.594  -2.879  29.707  0.00  0.00    +0.084 C 
ATOM     38  C   UNL     1      -0.996  -4.023  30.550  0.00  0.00    +0.023 C 
ATOM     39  C   UNL     1      -2.221  -4.774  30.183  0.00  0.00    +0.025 C 
ATOM     40  C   UNL     1      -2.814  -4.271  28.916  0.00  0.00    +0.022 C 
ATOM     41  C   UNL     1      -2.920  -2.765  29.031  0.00  0.00    +0.073 C 
ATOM     42  C   UNL     1      -3.632  -2.291  30.247  0.00  0.00    +0.043 C 
ATOM     43  C   UNL     1      -3.860  -3.342  31.274  0.00  0.00    -0.025 C 
ATOM     44  C   UNL     1      -3.216  -4.539  31.287  0.00  0.00    -0.023 C 
ATOM     45  C   UNL     1      -3.481  -5.461  32.271  0.00  0.00    +0.032 C 
ATOM     46  C   UNL     1      -4.395  -5.223  33.272  0.00  0.00    +0.133 C 
ATOM     47  C   UNL     1      -5.052  -4.002  33.261  0.00  0.00    +0.036 C 
ATOM     48  C   UNL     1      -4.784  -3.065  32.261  0.00  0.00    -0.001 C 
BRANCH  46  49
ATOM     49  O   UNL     1      -4.671  -6.145  34.271  0.00  0.00    -0.506 OA
ATOM     50  H   UNL     1      -4.503  -7.055  34.127  0.00  0.00    +0.292 HD
ENDBRANCH  46  49
ENDBRANCH  35  36
ENDBRANCH   1  35
TORSDOF 10
ENDMDL
