MODEL 1
REMARK VINA RESULT:    -8.934      0.000      0.000
REMARK INTER + INTRA:         -15.609
REMARK INTER:                 -13.112
REMARK INTRA:                  -2.497
REMARK UNBOUND:                -2.497
REMARK  Name = =
REMARK  8 active torsions:
REMARK  status: ('A' for Active; 'I' for Inactive)
REMARK    1  A    between atoms: P_1  and  C_12
REMARK    2  A    between atoms: P_1  and  O_26
REMARK    3  A    between atoms: C_9  and  O_22
REMARK    4  A    between atoms: C_12  and  C_17
REMARK    5  A    between atoms: O_22  and  C_23
REMARK    6  A    between atoms: O_26  and  C_27
REMARK    7  A    between atoms: C_32  and  C_33
REMARK    8  A    between atoms: C_34  and  N_35
REMARK                            x       y       z     vdW  Elec       q    Type
REMARK                         _______ _______ _______ _____ _____    ______ ____
ROOT
ATOM      1  P   UNL     1       0.749  -3.770  29.105  0.00  0.00    +0.363 P 
ATOM      2  O   UNL     1       1.492  -2.586  29.672  0.00  0.00    -0.135 OA
ATOM      3  O   UNL     1       0.960  -4.095  27.490  0.00  0.00    -0.288 OA
ATOM      4  C   UNL     1       0.943  -3.096  26.601  0.00  0.00    +0.160 C 
ATOM      5  C   UNL     1      -0.401  -2.400  26.508  0.00  0.00    +0.213 C 
ATOM      6  O   UNL     1      -0.204  -1.056  26.654  0.00  0.00    -0.347 OA
ATOM      7  C   UNL     1       1.106  -0.781  26.922  0.00  0.00    +0.145 C 
ATOM      8  C   UNL     1       1.939  -2.016  26.664  0.00  0.00    +0.065 C 
ATOM      9  C   UNL     1      -1.185  -3.013  27.685  0.00  0.00    +0.328 C 
ATOM     10  O   UNL     1      -0.402  -2.819  28.788  0.00  0.00    -0.249 OA
ENDROOT
BRANCH   1  12
ATOM     11  O   UNL     1       3.386  -4.083  29.271  0.00  0.00    -0.426 OA
ATOM     12  C   UNL     1       2.108  -4.686  29.432  0.00  0.00    +0.318 C 
ATOM     13  C   UNL     1       2.252  -5.895  28.536  0.00  0.00    +0.041 C 
ATOM     14  C   UNL     1       3.428  -5.936  27.978  0.00  0.00    +0.082 C 
ATOM     15  C   UNL     1       4.181  -4.797  28.421  0.00  0.00    +0.342 C 
ATOM     16  O   UNL     1       5.360  -4.547  28.062  0.00  0.00    -0.245 OA
BRANCH  12  17
ATOM     17  C   UNL     1       2.175  -5.261  30.817  0.00  0.00    +0.279 C 
ATOM     18  O   UNL     1       1.914  -6.488  31.190  0.00  0.00    -0.412 OA
ATOM     19  C   UNL     1       2.083  -6.624  32.493  0.00  0.00    +0.306 C 
ATOM     20  N   UNL     1       2.468  -5.421  32.948  0.00  0.00    -0.102 NA
ATOM     21  N   UNL     1       2.523  -4.591  31.925  0.00  0.00    -0.107 NA
ENDBRANCH  12  17
ENDBRANCH   1  12
BRANCH   9  22
ATOM     22  O   UNL     1      -2.343  -2.275  27.886  0.00  0.00    -0.407 OA
BRANCH  22  23
ATOM     23  C   UNL     1      -2.529  -1.471  28.973  0.00  0.00    +0.400 C 
ATOM     24  O   UNL     1      -2.989  -1.991  30.025  0.00  0.00    -0.227 OA
ATOM     25  N   UNL     1      -2.202  -0.094  28.885  0.00  0.00    -0.295 N 
ATOM     26  H   UNL     1      -1.844   0.274  28.044  0.00  0.00    +0.148 HD
ATOM     27  H   UNL     1      -2.332   0.494  29.663  0.00  0.00    +0.148 HD
ENDBRANCH  22  23
ENDBRANCH   9  22
BRANCH   1  28
ATOM     28  O   UNL     1      -0.135  -4.721  30.037  0.00  0.00    -0.290 OA
BRANCH  28  29
ATOM     29  C   UNL     1      -1.364  -5.149  29.856  0.00  0.00    +0.131 C 
ATOM     30  C   UNL     1      -1.331  -6.402  29.002  0.00  0.00    +0.048 C 
ATOM     31  C   UNL     1      -0.739  -7.560  29.727  0.00  0.00    +0.071 C 
ATOM     32  N   UNL     1      -1.155  -7.775  31.050  0.00  0.00    -0.297 NA
ATOM     33  C   UNL     1      -1.730  -6.713  31.787  0.00  0.00    +0.075 C 
ATOM     34  C   UNL     1      -2.181  -5.512  31.075  0.00  0.00    +0.067 C 
ATOM     35  H   UNL     1      -0.335  -8.085  31.570  0.00  0.00    +0.123 HD
BRANCH  34  36
ATOM     36  C   UNL     1      -3.603  -5.453  30.658  0.00  0.00    -0.007 C 
ATOM     37  C   UNL     1      -4.577  -4.736  31.070  0.00  0.00    +0.060 C 
BRANCH  37  38
ATOM     38  N   UNL     1      -4.544  -3.776  32.071  0.00  0.00    -0.276 N 
ATOM     39  C   UNL     1      -5.479  -2.698  32.053  0.00  0.00    +0.304 C 
ATOM     40  O   UNL     1      -6.325  -2.647  31.108  0.00  0.00    -0.265 OA
ATOM     41  H   UNL     1      -3.877  -3.838  32.792  0.00  0.00    +0.155 HD
ENDBRANCH  37  38
ENDBRANCH  34  36
ENDBRANCH  28  29
ENDBRANCH   1  28
TORSDOF 8
ENDMDL
