REMARK  Name = =
REMARK  8 active torsions:
REMARK  status: ('A' for Active; 'I' for Inactive)
REMARK    1  A    between atoms: P_1  and  C_12
REMARK    2  A    between atoms: P_1  and  O_26
REMARK    3  A    between atoms: C_9  and  O_22
REMARK    4  A    between atoms: C_12  and  C_17
REMARK    5  A    between atoms: O_22  and  C_23
REMARK    6  A    between atoms: O_26  and  C_27
REMARK    7  A    between atoms: C_32  and  C_33
REMARK    8  A    between atoms: C_34  and  N_35
REMARK                            x       y       z     vdW  Elec       q    Type
REMARK                         _______ _______ _______ _____ _____    ______ ____
ROOT
ATOM      1  P   UNL     1     -10.824  -1.115  30.248  0.00  0.00    +0.363 P 
ATOM      2  O   UNL     1     -11.064   0.374  30.275  0.00  0.00    -0.135 OA
ATOM      3  O   UNL     1     -10.080  -1.738  28.900  0.00  0.00    -0.288 OA
ATOM      4  C   UNL     1     -10.454  -1.329  27.683  0.00  0.00    +0.160 C 
ATOM      5  C   UNL     1     -11.881  -1.706  27.337  0.00  0.00    +0.213 C 
ATOM      6  O   UNL     1     -12.538  -0.582  26.923  0.00  0.00    -0.347 OA
ATOM      7  C   UNL     1     -11.740   0.519  27.036  0.00  0.00    +0.145 C 
ATOM      8  C   UNL     1     -10.315   0.081  27.288  0.00  0.00    +0.065 C 
ATOM      9  C   UNL     1     -12.425  -2.249  28.673  0.00  0.00    +0.328 C 
ATOM     10  O   UNL     1     -12.193  -1.263  29.591  0.00  0.00    -0.249 OA
ENDROOT
BRANCH   1  12
ATOM     11  O   UNL     1      -8.204  -1.549  30.409  0.00  0.00    -0.426 OA
ATOM     12  C   UNL     1      -9.315  -0.808  30.897  0.00  0.00    +0.318 C 
ATOM     13  C   UNL     1      -9.222  -1.103  32.377  0.00  0.00    +0.041 C 
ATOM     14  C   UNL     1      -8.215  -1.884  32.644  0.00  0.00    +0.082 C 
ATOM     15  C   UNL     1      -7.540  -2.192  31.414  0.00  0.00    +0.342 C 
ATOM     16  O   UNL     1      -6.523  -2.926  31.332  0.00  0.00    -0.245 OA
BRANCH  12  17
ATOM     17  C   UNL     1      -8.849   0.615  30.790  0.00  0.00    +0.279 C 
ATOM     18  O   UNL     1      -8.943   1.560  31.690  0.00  0.00    -0.412 OA
ATOM     19  C   UNL     1      -8.421   2.687  31.238  0.00  0.00    +0.306 C 
ATOM     20  N   UNL     1      -7.981   2.424  29.997  0.00  0.00    -0.102 NA
ATOM     21  N   UNL     1      -8.244   1.160  29.725  0.00  0.00    -0.107 NA
ENDBRANCH  12  17
ENDBRANCH   1  12
BRANCH   9  22
ATOM     22  O   UNL     1     -13.803  -2.384  28.576  0.00  0.00    -0.407 OA
BRANCH  22  23
ATOM     23  C   UNL     1     -14.421  -2.895  27.472  0.00  0.00    +0.400 C 
ATOM     24  O   UNL     1     -13.772  -3.692  26.743  0.00  0.00    -0.227 OA
ATOM     25  N   UNL     1     -15.757  -2.517  27.185  0.00  0.00    -0.295 N 
ATOM     26  H   UNL     1     -16.230  -1.891  27.780  0.00  0.00    +0.148 HD
ATOM     27  H   UNL     1     -16.212  -2.880  26.391  0.00  0.00    +0.148 HD
ENDBRANCH  22  23
ENDBRANCH   9  22
BRANCH   1  28
ATOM     28  O   UNL     1     -11.191  -2.039  31.499  0.00  0.00    -0.290 OA
BRANCH  28  29
ATOM     29  C   UNL     1     -12.371  -2.312  32.010  0.00  0.00    +0.131 C 
ATOM     30  C   UNL     1     -12.402  -3.768  32.435  0.00  0.00    +0.048 C 
ATOM     31  C   UNL     1     -11.525  -4.028  33.610  0.00  0.00    +0.071 C 
ATOM     32  N   UNL     1     -11.583  -3.115  34.674  0.00  0.00    -0.297 NA
ATOM     33  C   UNL     1     -12.081  -1.809  34.454  0.00  0.00    +0.075 C 
ATOM     34  C   UNL     1     -12.824  -1.528  33.220  0.00  0.00    +0.067 C 
ATOM     35  H   UNL     1     -10.632  -3.013  35.027  0.00  0.00    +0.123 HD
BRANCH  34  36
ATOM     36  C   UNL     1     -14.302  -1.645  33.265  0.00  0.00    -0.007 C 
ATOM     37  C   UNL     1     -15.219  -1.043  32.610  0.00  0.00    +0.060 C 
BRANCH  37  38
ATOM     38  N   UNL     1     -15.050  -0.071  31.635  0.00  0.00    -0.276 N 
ATOM     39  C   UNL     1     -16.121   0.235  30.743  0.00  0.00    +0.304 C 
ATOM     40  O   UNL     1     -17.212  -0.401  30.868  0.00  0.00    -0.265 OA
ATOM     41  H   UNL     1     -14.193   0.407  31.559  0.00  0.00    +0.155 HD
ENDBRANCH  37  38
ENDBRANCH  34  36
ENDBRANCH  28  29
ENDBRANCH   1  28
TORSDOF 8
