REMARK  Name = =
REMARK  10 active torsions:
REMARK  status: ('A' for Active; 'I' for Inactive)
REMARK    1  A    between atoms: C_1  and  S_29
REMARK    2  A    between atoms: C_2  and  N_7
REMARK    3  A    between atoms: C_5  and  C_14
REMARK    4  A    between atoms: C_11  and  O_13
REMARK    5  A    between atoms: C_19  and  C_20
REMARK    6  A    between atoms: C_22  and  O_28
REMARK    7  A    between atoms: C_23  and  O_27
REMARK    8  A    between atoms: C_24  and  O_26
REMARK    9  A    between atoms: S_29  and  N_30
REMARK   10  A    between atoms: C_40  and  O_43
REMARK                            x       y       z     vdW  Elec       q    Type
REMARK                         _______ _______ _______ _____ _____    ______ ____
ROOT
ATOM      1  C   UNL     1       2.033  -1.398  20.281  0.00  0.00    +0.054 C 
ATOM      2  C   UNL     1       2.602  -0.427  21.060  0.00  0.00    +0.072 C 
ATOM      3  C   UNL     1       3.834  -0.677  21.614  0.00  0.00    +0.016 C 
ATOM      4  C   UNL     1       4.500  -1.893  21.393  0.00  0.00    +0.001 C 
ATOM      5  C   UNL     1       3.942  -2.879  20.613  0.00  0.00    -0.003 C 
ATOM      6  C   UNL     1       2.706  -2.603  20.069  0.00  0.00    +0.008 C 
ENDROOT
BRANCH   2   7
ATOM      7  N   UNL     1       1.928   0.822  21.292  0.00  0.00    -0.158 N 
ATOM      8  C   UNL     1       2.021   1.851  20.324  0.00  0.00    +0.313 C 
ATOM      9  O   UNL     1       2.683   1.687  19.269  0.00  0.00    -0.252 OA
ATOM     10  N   UNL     1       1.373   3.091  20.515  0.00  0.00    -0.313 N 
ATOM     11  C   UNL     1       1.174   1.053  22.466  0.00  0.00    +0.413 C 
ATOM     12  O   UNL     1       0.596   2.154  22.643  0.00  0.00    -0.226 OA
ATOM     13  H   UNL     1       0.846   3.251  21.331  0.00  0.00    +0.147 HD
ATOM     14  H   UNL     1       1.448   3.796  19.832  0.00  0.00    +0.147 HD
BRANCH  11  15
ATOM     15  O   UNL     1       1.051   0.064  23.460  0.00  0.00    -0.466 OA
ATOM     16  H   UNL     1       1.473  -0.765  23.351  0.00  0.00    +0.297 HD
ENDBRANCH  11  15
ENDBRANCH   2   7
BRANCH   5  17
ATOM     17  C   UNL     1       4.608  -4.176  20.347  0.00  0.00    -0.023 C 
ATOM     18  C   UNL     1       5.772  -4.479  20.878  0.00  0.00    -0.030 C 
ATOM     19  C   UNL     1       6.538  -5.732  20.694  0.00  0.00    +0.026 C 
ATOM     20  C   UNL     1       5.846  -6.704  19.790  0.00  0.00    +0.005 C 
ATOM     21  C   UNL     1       4.926  -6.043  18.819  0.00  0.00    +0.009 C 
ATOM     22  C   UNL     1       3.912  -5.117  19.467  0.00  0.00    +0.044 C 
BRANCH  22  23
ATOM     23  C   UNL     1       2.820  -5.882  20.087  0.00  0.00    -0.012 C 
ATOM     24  C   UNL     1       1.862  -6.550  19.354  0.00  0.00    +0.036 C 
ATOM     25  C   UNL     1       0.839  -7.264  19.943  0.00  0.00    +0.170 C 
ATOM     26  C   UNL     1       0.772  -7.313  21.336  0.00  0.00    +0.202 C 
ATOM     27  C   UNL     1       1.718  -6.654  22.096  0.00  0.00    +0.170 C 
ATOM     28  C   UNL     1       2.731  -5.946  21.456  0.00  0.00    +0.036 C 
BRANCH  27  29
ATOM     29  O   UNL     1       1.662  -6.696  23.495  0.00  0.00    -0.503 OA
ATOM     30  H   UNL     1       0.979  -7.174  23.922  0.00  0.00    +0.292 HD
ENDBRANCH  27  29
BRANCH  26  31
ATOM     31  O   UNL     1      -0.248  -8.026  21.907  0.00  0.00    -0.501 OA
ATOM     32  H   UNL     1      -0.875  -8.463  21.365  0.00  0.00    +0.292 HD
ENDBRANCH  26  31
BRANCH  25  33
ATOM     33  O   UNL     1      -0.124  -7.934  19.174  0.00  0.00    -0.503 OA
ATOM     34  H   UNL     1      -0.081  -7.903  18.239  0.00  0.00    +0.292 HD
ENDBRANCH  25  33
ENDBRANCH  22  23
ENDBRANCH   5  17
BRANCH   1  35
ATOM     35  S   UNL     1       0.450  -1.103  19.539  0.00  0.00    -0.037 S 
BRANCH  35  36
ATOM     36  N   UNL     1      -0.887  -1.797  20.488  0.00  0.00    -0.225 NA
ATOM     37  C   UNL     1      -1.644  -2.632  19.621  0.00  0.00    +0.084 C 
ATOM     38  C   UNL     1      -3.075  -2.329  19.420  0.00  0.00    +0.023 C 
ATOM     39  C   UNL     1      -3.554  -0.955  19.711  0.00  0.00    +0.025 C 
ATOM     40  C   UNL     1      -2.435  -0.054  20.093  0.00  0.00    +0.022 C 
ATOM     41  C   UNL     1      -1.629  -0.760  21.163  0.00  0.00    +0.073 C 
ATOM     42  C   UNL     1      -2.430  -1.234  22.322  0.00  0.00    +0.043 C 
ATOM     43  C   UNL     1      -3.901  -1.197  22.109  0.00  0.00    -0.025 C 
ATOM     44  C   UNL     1      -4.485  -1.065  20.888  0.00  0.00    -0.023 C 
ATOM     45  C   UNL     1      -5.854  -1.039  20.770  0.00  0.00    +0.032 C 
ATOM     46  C   UNL     1      -6.685  -1.142  21.862  0.00  0.00    +0.133 C 
ATOM     47  C   UNL     1      -6.092  -1.278  23.108  0.00  0.00    +0.036 C 
ATOM     48  C   UNL     1      -4.701  -1.303  23.228  0.00  0.00    -0.001 C 
BRANCH  46  49
ATOM     49  O   UNL     1      -8.068  -1.118  21.756  0.00  0.00    -0.506 OA
ATOM     50  H   UNL     1      -8.472  -1.026  20.916  0.00  0.00    +0.292 HD
ENDBRANCH  46  49
ENDBRANCH  35  36
ENDBRANCH   1  35
TORSDOF 10
