REMARK  Name = =
REMARK  0 active torsions:
REMARK  status: ('A' for Active; 'I' for Inactive)
REMARK                            x       y       z     vdW  Elec       q    Type
REMARK                         _______ _______ _______ _____ _____    ______ ____
ROOT
ATOM      1  C   UNL     1      53.044 156.019  25.923  0.00  0.00    +0.022 C 
ATOM      2  C   UNL     1      54.331 155.265  25.568  0.00  0.00    +0.004 C 
ATOM      3  C   UNL     1      54.168 153.834  26.038  0.00  0.00    +0.001 C 
ATOM      4  C   UNL     1      52.696 153.498  26.188  0.00  0.00    +0.004 C 
ATOM      5  C   UNL     1      52.077 154.193  27.370  0.00  0.00    +0.018 C 
ATOM      6  C   UNL     1      52.577 153.643  28.688  0.00  0.00    +0.009 C 
ATOM      7  C   UNL     1      51.930 154.417  29.802  0.00  0.00    +0.026 C 
ATOM      8  C   UNL     1      51.902 155.859  29.524  0.00  0.00    -0.024 C 
ATOM      9  C   UNL     1      51.362 156.690  30.441  0.00  0.00    +0.033 C 
ATOM     10  C   UNL     1      51.366 158.103  30.106  0.00  0.00    +0.173 C 
ATOM     11  O   UNL     1      51.039 158.910  31.014  0.00  0.00    -0.291 OA
ATOM     12  C   UNL     1      51.727 158.633  28.782  0.00  0.00    +0.074 C 
ATOM     13  C   UNL     1      52.873 157.790  28.256  0.00  0.00    +0.034 C 
ATOM     14  C   UNL     1      52.445 156.388  28.280  0.00  0.00    -0.033 C 
ATOM     15  C   UNL     1      52.533 155.629  27.234  0.00  0.00    -0.049 C 
ATOM     16  C   UNL     1      52.708 152.016  26.278  0.00  0.00    +0.000 C 
ATOM     17  C   UNL     1      53.642 151.653  25.113  0.00  0.00    +0.000 C 
ATOM     18  C   UNL     1      54.600 152.832  24.992  0.00  0.00    +0.000 C 
ENDROOT
TORSDOF 0
