REMARK  Name = =
REMARK  3 active torsions:
REMARK  status: ('A' for Active; 'I' for Inactive)
REMARK    1  A    between atoms: C_1  and  N_19
REMARK    2  A    between atoms: N_22  and  N_23
REMARK    3  A    between atoms: C_24  and  O_26
REMARK                            x       y       z     vdW  Elec       q    Type
REMARK                         _______ _______ _______ _____ _____    ______ ____
ROOT
ATOM      1  C   UNL     1      54.045 155.736  25.579  0.00  0.00    +0.091 C 
ATOM      2  C   UNL     1      54.795 154.705  24.712  0.00  0.00    +0.024 C 
ATOM      3  C   UNL     1      54.670 153.396  25.421  0.00  0.00    +0.002 C 
ATOM      4  C   UNL     1      53.219 152.938  25.185  0.00  0.00    +0.004 C 
ATOM      5  C   UNL     1      52.358 153.884  25.954  0.00  0.00    +0.019 C 
ATOM      6  C   UNL     1      51.382 153.251  26.859  0.00  0.00    +0.004 C 
ATOM      7  C   UNL     1      51.619 153.528  28.324  0.00  0.00    +0.005 C 
ATOM      8  C   UNL     1      51.827 154.964  28.479  0.00  0.00    +0.025 C 
ATOM      9  C   UNL     1      51.100 155.648  29.363  0.00  0.00    +0.068 C 
ATOM     10  C   UNL     1      51.407 157.081  29.421  0.00  0.00    +0.151 C 
ATOM     11  O   UNL     1      50.478 157.915  29.606  0.00  0.00    -0.296 OA
ATOM     12  C   UNL     1      52.820 157.482  29.256  0.00  0.00    +0.069 C 
ATOM     13  C   UNL     1      53.534 156.835  28.116  0.00  0.00    +0.029 C 
ATOM     14  C   UNL     1      52.830 155.634  27.648  0.00  0.00    -0.050 C 
ATOM     15  C   UNL     1      53.047 155.081  26.445  0.00  0.00    -0.035 C 
ATOM     16  C   UNL     1      53.306 151.555  25.775  0.00  0.00    +0.000 C 
ATOM     17  C   UNL     1      54.553 151.033  25.045  0.00  0.00    +0.000 C 
ATOM     18  C   UNL     1      55.421 152.262  24.791  0.00  0.00    +0.000 C 
ENDROOT
BRANCH   1  19
ATOM     19  N   UNL     1      53.462 156.696  24.659  0.00  0.00    -0.286 N 
ATOM     20  C   UNL     1      52.099 156.673  24.340  0.00  0.00    +0.317 C 
ATOM     21  O   UNL     1      51.299 155.811  24.844  0.00  0.00    -0.251 OA
ATOM     22  N   UNL     1      51.487 157.602  23.433  0.00  0.00    -0.216 N 
ATOM     23  H   UNL     1      54.039 157.380  24.249  0.00  0.00    +0.151 HD
ATOM     24  H   UNL     1      52.039 158.295  23.004  0.00  0.00    +0.174 HD
BRANCH  22  25
ATOM     25  N   UNL     1      50.121 157.537  23.150  0.00  0.00    -0.199 N 
ATOM     26  C   UNL     1      49.510 158.573  22.393  0.00  0.00    +0.414 C 
ATOM     27  O   UNL     1      50.259 159.517  22.008  0.00  0.00    -0.225 OA
ATOM     28  H   UNL     1      49.584 156.778  23.473  0.00  0.00    +0.176 HD
BRANCH  26  29
ATOM     29  O   UNL     1      48.149 158.575  22.072  0.00  0.00    -0.465 OA
ATOM     30  H   UNL     1      47.599 157.873  22.360  0.00  0.00    +0.297 HD
ENDBRANCH  26  29
ENDBRANCH  22  25
ENDBRANCH   1  19
TORSDOF 3
