REMARK  Name = =
REMARK  5 active torsions:
REMARK  status: ('A' for Active; 'I' for Inactive)
REMARK    1  A    between atoms: C_1  and  N_19
REMARK    2  A    between atoms: C_1  and  N_27
REMARK    3  A    between atoms: N_22  and  N_23
REMARK    4  A    between atoms: C_24  and  O_26
REMARK    5  A    between atoms: N_27  and  N_31
REMARK                            x       y       z     vdW  Elec       q    Type
REMARK                         _______ _______ _______ _____ _____    ______ ____
ROOT
ATOM      1  C   UNL     1      52.777 155.954  28.399  0.00  0.00    +0.155 C 
ATOM      2  C   UNL     1      53.505 156.719  29.525  0.00  0.00    +0.043 C 
ATOM      3  C   UNL     1      53.858 158.109  29.077  0.00  0.00    +0.004 C 
ATOM      4  C   UNL     1      55.066 157.892  28.188  0.00  0.00    +0.004 C 
ATOM      5  C   UNL     1      54.648 157.202  27.004  0.00  0.00    +0.021 C 
ATOM      6  C   UNL     1      54.698 158.023  25.758  0.00  0.00    +0.009 C 
ATOM      7  C   UNL     1      54.832 156.959  24.640  0.00  0.00    +0.026 C 
ATOM      8  C   UNL     1      53.460 156.332  24.691  0.00  0.00    -0.024 C 
ATOM      9  C   UNL     1      52.808 156.183  23.554  0.00  0.00    +0.033 C 
ATOM     10  C   UNL     1      51.465 155.579  23.550  0.00  0.00    +0.173 C 
ATOM     11  O   UNL     1      50.977 155.039  22.549  0.00  0.00    -0.291 OA
ATOM     12  C   UNL     1      50.751 155.684  24.877  0.00  0.00    +0.074 C 
ATOM     13  C   UNL     1      51.732 155.065  25.893  0.00  0.00    +0.034 C 
ATOM     14  C   UNL     1      52.887 155.920  26.000  0.00  0.00    -0.030 C 
ATOM     15  C   UNL     1      53.460 156.389  27.080  0.00  0.00    -0.014 C 
ATOM     16  C   UNL     1      55.837 159.125  28.173  0.00  0.00    +0.000 C 
ATOM     17  C   UNL     1      55.549 159.734  29.542  0.00  0.00    +0.000 C 
ATOM     18  C   UNL     1      54.479 158.883  30.191  0.00  0.00    +0.000 C 
ENDROOT
BRANCH   1  19
ATOM     19  N   UNL     1      51.481 156.505  28.373  0.00  0.00    -0.272 N 
ATOM     20  C   UNL     1      50.524 156.645  29.391  0.00  0.00    +0.318 C 
ATOM     21  O   UNL     1      50.776 156.258  30.530  0.00  0.00    -0.251 OA
ATOM     22  N   UNL     1      49.261 157.248  29.057  0.00  0.00    -0.216 N 
ATOM     23  H   UNL     1      51.199 156.849  27.495  0.00  0.00    +0.153 HD
ATOM     24  H   UNL     1      49.080 157.552  28.138  0.00  0.00    +0.174 HD
BRANCH  22  25
ATOM     25  N   UNL     1      48.295 157.396  30.056  0.00  0.00    -0.199 N 
ATOM     26  C   UNL     1      47.831 158.676  30.465  0.00  0.00    +0.414 C 
ATOM     27  O   UNL     1      48.302 159.715  29.910  0.00  0.00    -0.225 OA
ATOM     28  H   UNL     1      47.926 156.592  30.488  0.00  0.00    +0.176 HD
BRANCH  26  29
ATOM     29  O   UNL     1      46.879 158.849  31.449  0.00  0.00    -0.465 OA
ATOM     30  H   UNL     1      46.510 158.103  31.880  0.00  0.00    +0.297 HD
ENDBRANCH  26  29
ENDBRANCH  22  25
ENDBRANCH   1  19
BRANCH   1  31
ATOM     31  N   UNL     1      53.065 154.586  28.610  0.00  0.00    -0.147 N 
ATOM     32  C   UNL     1      52.359 153.575  29.291  0.00  0.00    +0.319 C 
ATOM     33  O   UNL     1      51.290 153.697  29.931  0.00  0.00    -0.251 OA
ATOM     34  N   UNL     1      52.833 152.200  29.315  0.00  0.00    -0.312 N 
ATOM     35  H   UNL     1      53.667 151.958  28.850  0.00  0.00    +0.147 HD
ATOM     36  H   UNL     1      52.320 151.511  29.796  0.00  0.00    +0.147 HD
BRANCH  31  37
ATOM     37  N   UNL     1      54.314 154.033  28.098  0.00  0.00    +0.056 NA
ATOM     38  O   UNL     1      54.311 153.341  27.065  0.00  0.00    -0.078 OA
ENDBRANCH  31  37
ENDBRANCH   1  31
TORSDOF 5
