REMARK  Name = =
REMARK  6 active torsions:
REMARK  status: ('A' for Active; 'I' for Inactive)
REMARK    1  A    between atoms: N_25  and  O_33
REMARK    2  A    between atoms: C_26  and  N_28
REMARK    3  A    between atoms: N_28  and  N_29
REMARK    4  A    between atoms: C_30  and  O_32
REMARK    5  A    between atoms: O_33  and  P_35
REMARK    6  A    between atoms: P_35  and  O_37
REMARK                            x       y       z     vdW  Elec       q    Type
REMARK                         _______ _______ _______ _____ _____    ______ ____
ROOT
ATOM      1  C   UNL     1      51.907 157.283  29.042  0.00  0.00    +0.142 C 
ATOM      2  C   UNL     1      51.488 156.438  30.262  0.00  0.00    +0.039 C 
ATOM      3  C   UNL     1      52.102 155.101  30.355  0.00  0.00    +0.004 C 
ATOM      4  C   UNL     1      52.116 154.268  29.129  0.00  0.00    +0.004 C 
ATOM      5  C   UNL     1      51.537 154.980  28.021  0.00  0.00    +0.021 C 
ATOM      6  C   UNL     1      51.078 154.336  26.804  0.00  0.00    +0.009 C 
ATOM      7  C   UNL     1      51.971 154.483  25.612  0.00  0.00    +0.026 C 
ATOM      8  C   UNL     1      52.763 155.716  25.695  0.00  0.00    -0.024 C 
ATOM      9  C   UNL     1      53.728 155.962  24.794  0.00  0.00    +0.033 C 
ATOM     10  C   UNL     1      54.528 157.170  24.849  0.00  0.00    +0.173 C 
ATOM     11  O   UNL     1      55.254 157.565  23.909  0.00  0.00    -0.291 OA
ATOM     12  C   UNL     1      54.513 158.029  26.096  0.00  0.00    +0.074 C 
ATOM     13  C   UNL     1      53.018 158.055  26.475  0.00  0.00    +0.034 C 
ATOM     14  C   UNL     1      52.560 156.732  26.765  0.00  0.00    -0.031 C 
ATOM     15  C   UNL     1      52.050 156.369  27.917  0.00  0.00    -0.018 C 
ATOM     16  C   UNL     1      51.639 152.937  29.523  0.00  0.00    +0.000 C 
ATOM     17  C   UNL     1      50.648 153.190  30.636  0.00  0.00    +0.000 C 
ATOM     18  C   UNL     1      51.306 154.323  31.392  0.00  0.00    +0.000 C 
ATOM     19  N   UNL     1      53.106 157.982  29.448  0.00  0.00    -0.237 N 
ATOM     20  C   UNL     1      54.396 157.443  29.486  0.00  0.00    +0.291 C 
ATOM     21  O   UNL     1      54.638 156.277  29.149  0.00  0.00    -0.254 OA
ATOM     22  N   UNL     1      55.497 158.226  29.918  0.00  0.00    -0.314 N 
ATOM     23  N   UNL     1      53.033 159.341  29.892  0.00  0.00    +0.566 NA
ATOM     24  O   UNL     1      54.030 160.060  29.921  0.00  0.00    -0.231 OA
ATOM     25  N   UNL     1      50.768 158.205  28.906  0.00  0.00    -0.101 NA
ATOM     26  C   UNL     1      50.801 159.436  29.567  0.00  0.00    +0.270 C 
ATOM     27  O   UNL     1      51.793 159.853  30.224  0.00  0.00    -0.332 OA
ATOM     28  H   UNL     1      55.358 159.160  30.197  0.00  0.00    +0.146 HD
ATOM     29  H   UNL     1      56.401 157.836  29.939  0.00  0.00    +0.146 HD
ENDROOT
BRANCH  26  30
ATOM     30  N   UNL     1      49.683 160.297  29.530  0.00  0.00    -0.189 NA
ATOM     31  H   UNL     1      48.897 159.782  29.927  0.00  0.00    +0.149 HD
BRANCH  30  32
ATOM     32  N   UNL     1      49.744 161.523  30.195  0.00  0.00    -0.213 N 
ATOM     33  C   UNL     1      49.196 161.693  31.494  0.00  0.00    +0.412 C 
ATOM     34  O   UNL     1      48.643 160.726  32.065  0.00  0.00    -0.225 OA
ATOM     35  H   UNL     1      50.177 162.288  29.753  0.00  0.00    +0.172 HD
BRANCH  33  36
ATOM     36  O   UNL     1      49.292 162.937  32.097  0.00  0.00    -0.465 OA
ATOM     37  H   UNL     1      49.711 163.644  31.648  0.00  0.00    +0.297 HD
ENDBRANCH  33  36
ENDBRANCH  30  32
ENDBRANCH  26  30
BRANCH  25  38
ATOM     38  O   UNL     1      49.715 157.820  28.144  0.00  0.00    -0.202 OA
BRANCH  38  40
ATOM     39  S   UNL     1      48.243 157.969  30.573  0.00  0.00    +0.040 S 
ATOM     40  P   UNL     1      48.417 157.232  29.008  0.00  0.00    +0.416 P 
ATOM     41  O   UNL     1      48.514 155.711  29.169  0.00  0.00    -0.244 OA
BRANCH  40  42
ATOM     42  O   UNL     1      46.913 157.492  28.229  0.00  0.00    -0.315 OA
ATOM     43  H   UNL     1      46.937 157.103  27.341  0.00  0.00    +0.221 HD
ENDBRANCH  40  42
ENDBRANCH  38  40
ENDBRANCH  25  38
TORSDOF 6
