MODEL 1
REMARK VINA RESULT:    -9.904      0.000      0.000
REMARK INTER + INTRA:         -13.009
REMARK INTER:                 -12.510
REMARK INTRA:                  -0.500
REMARK UNBOUND:                -0.500
REMARK  Name = =
REMARK  5 active torsions:
REMARK  status: ('A' for Active; 'I' for Inactive)
REMARK    1  A    between atoms: S_1  and  N_15
REMARK    2  A    between atoms: C_2  and  C_6
REMARK    3  A    between atoms: N_15  and  O_16
REMARK    4  A    between atoms: N_15  and  O_17
REMARK    5  A    between atoms: O_17  and  C_18
REMARK                            x       y       z     vdW  Elec       q    Type
REMARK                         _______ _______ _______ _____ _____    ______ ____
ROOT
ATOM      1  S   UNL     1      52.347 155.281  26.591  0.00  0.00    -0.079 S 
ATOM      2  C   UNL     1      53.155 153.806  25.904  0.00  0.00    +0.024 C 
ATOM      3  C   UNL     1      54.131 154.240  25.152  0.00  0.00    +0.006 C 
ATOM      4  C   UNL     1      54.312 155.632  25.056  0.00  0.00    +0.007 C 
ATOM      5  C   UNL     1      53.575 156.474  25.660  0.00  0.00    +0.032 C 
ATOM      6  H   UNL     1      51.001 155.426  26.455  0.00  0.00    +0.112 HD
ENDROOT
BRANCH   2   7
ATOM      7  C   UNL     1      52.787 152.426  26.160  0.00  0.00    +0.011 C 
ATOM      8  C   UNL     1      53.225 151.311  25.592  0.00  0.00    +0.034 C 
ATOM      9  C   UNL     1      52.583 150.196  26.154  0.00  0.00    +0.158 C 
ATOM     10  N   UNL     1      51.754 150.551  27.056  0.00  0.00    -0.248 NA
ATOM     11  C   UNL     1      51.769 151.965  27.177  0.00  0.00    +0.154 C 
ATOM     12  N   UNL     1      52.880 148.958  25.734  0.00  0.00    -0.225 NA
ATOM     13  C   UNL     1      53.781 148.717  24.780  0.00  0.00    +0.101 C 
ATOM     14  C   UNL     1      54.435 149.783  24.203  0.00  0.00    +0.021 C 
ATOM     15  C   UNL     1      54.159 151.069  24.606  0.00  0.00    +0.004 C 
ENDBRANCH   2   7
BRANCH   1  16
ATOM     16  N   UNL     1      52.646 155.396  28.314  0.00  0.00    +0.031 NA
BRANCH  16  17
ATOM     17  O   UNL     1      53.628 154.597  28.694  0.00  0.00    -0.271 OA
ATOM     18  H   UNL     1      54.448 155.109  28.777  0.00  0.00    +0.241 HD
ENDBRANCH  16  17
BRANCH  16  19
ATOM     19  O   UNL     1      52.742 156.669  28.720  0.00  0.00    -0.368 OA
BRANCH  19  20
ATOM     20  C   UNL     1      51.788 157.455  29.330  0.00  0.00    +0.169 C 
ATOM     21  C   UNL     1      51.977 158.782  29.635  0.00  0.00    +0.042 C 
ATOM     22  C   UNL     1      50.950 159.469  30.245  0.00  0.00    +0.033 C 
ATOM     23  C   UNL     1      49.748 158.881  30.561  0.00  0.00    +0.140 C 
ATOM     24  C   UNL     1      49.559 157.546  30.254  0.00  0.00    +0.033 C 
ATOM     25  C   UNL     1      50.587 156.856  29.642  0.00  0.00    +0.042 C 
ATOM     26  F   UNL     1      48.748 159.602  31.171  0.00  0.00    -0.204 F 
ENDBRANCH  19  20
ENDBRANCH  16  19
ENDBRANCH   1  16
TORSDOF 5
ENDMDL
