REMARK  Name = =
REMARK  5 active torsions:
REMARK  status: ('A' for Active; 'I' for Inactive)
REMARK    1  A    between atoms: S_1  and  N_15
REMARK    2  A    between atoms: C_2  and  C_6
REMARK    3  A    between atoms: N_15  and  O_16
REMARK    4  A    between atoms: N_15  and  O_17
REMARK    5  A    between atoms: O_17  and  C_18
REMARK                            x       y       z     vdW  Elec       q    Type
REMARK                         _______ _______ _______ _____ _____    ______ ____
ROOT
ATOM      1  S   UNL     1      61.245 168.154  40.871  0.00  0.00    -0.079 S 
ATOM      2  C   UNL     1      62.708 168.587  39.884  0.00  0.00    +0.024 C 
ATOM      3  C   UNL     1      63.505 169.247  40.680  0.00  0.00    +0.006 C 
ATOM      4  C   UNL     1      63.079 169.454  42.005  0.00  0.00    +0.007 C 
ATOM      5  C   UNL     1      61.966 169.033  42.454  0.00  0.00    +0.032 C 
ATOM      6  H   UNL     1      60.009 168.474  40.402  0.00  0.00    +0.112 HD
ENDROOT
BRANCH   2   7
ATOM      7  C   UNL     1      62.937 168.247  38.492  0.00  0.00    +0.011 C 
ATOM      8  C   UNL     1      62.124 167.678  37.612  0.00  0.00    +0.034 C 
ATOM      9  C   UNL     1      62.773 167.535  36.375  0.00  0.00    +0.158 C 
ATOM     10  N   UNL     1      63.964 167.988  36.427  0.00  0.00    -0.248 NA
ATOM     11  C   UNL     1      64.222 168.483  37.732  0.00  0.00    +0.154 C 
ATOM     12  N   UNL     1      62.133 166.988  35.332  0.00  0.00    -0.225 NA
ATOM     13  C   UNL     1      60.872 166.557  35.405  0.00  0.00    +0.101 C 
ATOM     14  C   UNL     1      60.199 166.680  36.600  0.00  0.00    +0.021 C 
ATOM     15  C   UNL     1      60.820 167.236  37.694  0.00  0.00    +0.004 C 
ENDBRANCH   2   7
BRANCH   1  16
ATOM     16  N   UNL     1      61.191 166.427  41.160  0.00  0.00    +0.031 NA
BRANCH  16  17
ATOM     17  O   UNL     1      61.644 166.118  42.363  0.00  0.00    -0.271 OA
ATOM     18  H   UNL     1      62.505 166.543  42.503  0.00  0.00    +0.241 HD
ENDBRANCH  16  17
BRANCH  16  19
ATOM     19  O   UNL     1      60.002 165.903  40.834  0.00  0.00    -0.368 OA
BRANCH  19  20
ATOM     20  C   UNL     1      58.760 166.184  41.362  0.00  0.00    +0.169 C 
ATOM     21  C   UNL     1      58.450 167.367  41.988  0.00  0.00    +0.042 C 
ATOM     22  C   UNL     1      57.173 167.537  42.478  0.00  0.00    +0.033 C 
ATOM     23  C   UNL     1      56.200 166.571  42.366  0.00  0.00    +0.140 C 
ATOM     24  C   UNL     1      56.514 165.381  41.736  0.00  0.00    +0.033 C 
ATOM     25  C   UNL     1      57.793 165.209  41.244  0.00  0.00    +0.042 C 
ATOM     26  F   UNL     1      54.937 166.779  42.869  0.00  0.00    -0.204 F 
ENDBRANCH  19  20
ENDBRANCH  16  19
ENDBRANCH   1  16
TORSDOF 5
