REMARK  Name = =
REMARK  0 active torsions:
REMARK  status: ('A' for Active; 'I' for Inactive)
REMARK                            x       y       z     vdW  Elec       q    Type
REMARK                         _______ _______ _______ _____ _____    ______ ____
ROOT
ATOM      1  N   UNL     1      52.109 155.984  28.103  0.00  0.00    -0.253 N 
ATOM      2  C   UNL     1      51.699 154.999  29.062  0.00  0.00    +0.244 C 
ATOM      3  O   UNL     1      51.314 155.339  30.192  0.00  0.00    -0.273 OA
ATOM      4  C   UNL     1      51.776 153.584  28.592  0.00  0.00    +0.156 C 
ATOM      5  N   UNL     1      53.117 153.407  28.061  0.00  0.00    -0.282 NA
ATOM      6  C   UNL     1      53.237 154.130  26.831  0.00  0.00    +0.156 C 
ATOM      7  C   UNL     1      52.803 155.545  26.939  0.00  0.00    +0.244 C 
ATOM      8  O   UNL     1      53.068 156.320  25.983  0.00  0.00    -0.273 OA
ATOM      9  H   UNL     1      51.916 156.939  28.246  0.00  0.00    +0.158 HD
ATOM     10  H   UNL     1      53.289 152.416  27.892  0.00  0.00    +0.124 HD
ENDROOT
TORSDOF 0
