REMARK  Name = =
REMARK  2 active torsions:
REMARK  status: ('A' for Active; 'I' for Inactive)
REMARK    1  A    between atoms: C_2  and  O_13
REMARK    2  A    between atoms: O_13  and  N_14
REMARK                            x       y       z     vdW  Elec       q    Type
REMARK                         _______ _______ _______ _____ _____    ______ ____
ROOT
ATOM      1  C   UNL     1      50.033 159.128  30.240  0.00  0.00    +0.085 C 
ATOM      2  C   UNL     1      51.011 158.419  29.668  0.00  0.00    +0.213 C 
ATOM      3  C   UNL     1      52.348 158.967  29.677  0.00  0.00    +0.232 C 
ATOM      4  O   UNL     1      53.299 158.332  29.150  0.00  0.00    -0.283 OA
ATOM      5  C   UNL     1      52.602 160.276  30.305  0.00  0.00    +0.045 C 
ATOM      6  C   UNL     1      51.596 161.022  30.901  0.00  0.00    +0.042 C 
ATOM      7  C   UNL     1      51.828 162.244  31.483  0.00  0.00    +0.003 C 
ATOM      8  C   UNL     1      53.099 162.757  31.481  0.00  0.00    +0.000 C 
ATOM      9  C   UNL     1      54.107 162.017  30.888  0.00  0.00    +0.000 C 
ATOM     10  C   UNL     1      53.886 160.786  30.299  0.00  0.00    +0.003 C 
ATOM     11  C   UNL     1      50.260 160.416  30.863  0.00  0.00    +0.199 C 
ATOM     12  O   UNL     1      49.341 161.093  31.407  0.00  0.00    -0.286 OA
ENDROOT
BRANCH   2  13
ATOM     13  O   UNL     1      50.722 157.231  29.109  0.00  0.00    -0.371 OA
BRANCH  13  14
ATOM     14  N   UNL     1      51.412 156.133  28.846  0.00  0.00    -0.063 N 
ATOM     15  C   UNL     1      51.318 154.935  29.658  0.00  0.00    +0.280 C 
ATOM     16  O   UNL     1      50.825 154.949  30.786  0.00  0.00    -0.270 OA
ATOM     17  C   UNL     1      51.881 153.718  28.968  0.00  0.00    +0.159 C 
ATOM     18  N   UNL     1      53.276 154.017  28.768  0.00  0.00    -0.282 NA
ATOM     19  C   UNL     1      53.485 155.135  27.883  0.00  0.00    +0.159 C 
ATOM     20  C   UNL     1      52.296 156.009  27.730  0.00  0.00    +0.280 C 
ATOM     21  O   UNL     1      52.053 156.636  26.649  0.00  0.00    -0.270 OA
ATOM     22  H   UNL     1      53.732 153.196  28.369  0.00  0.00    +0.124 HD
ENDBRANCH  13  14
ENDBRANCH   2  13
TORSDOF 2
