REMARK  Name = =
REMARK  6 active torsions:
REMARK  status: ('A' for Active; 'I' for Inactive)
REMARK    1  A    between atoms: C_1  and  O_13
REMARK    2  A    between atoms: C_2  and  O_23
REMARK    3  A    between atoms: O_13  and  C_15
REMARK    4  A    between atoms: N_14  and  C_17
REMARK    5  A    between atoms: C_15  and  C_19
REMARK    6  A    between atoms: O_23  and  N_24
REMARK                            x       y       z     vdW  Elec       q    Type
REMARK                         _______ _______ _______ _____ _____    ______ ____
ROOT
ATOM      1  C   UNL     1      50.759 159.613  30.434  0.00  0.00    +0.225 C 
ATOM      2  C   UNL     1      51.674 158.704  30.166  0.00  0.00    +0.247 C 
ATOM      3  C   UNL     1      53.102 159.043  30.105  0.00  0.00    +0.235 C 
ATOM      4  O   UNL     1      53.999 158.189  29.854  0.00  0.00    -0.283 OA
ATOM      5  C   UNL     1      53.542 160.412  30.342  0.00  0.00    +0.045 C 
ATOM      6  C   UNL     1      52.618 161.370  30.619  0.00  0.00    +0.045 C 
ATOM      7  C   UNL     1      53.032 162.682  30.840  0.00  0.00    +0.003 C 
ATOM      8  C   UNL     1      54.361 163.023  30.782  0.00  0.00    +0.000 C 
ATOM      9  C   UNL     1      55.292 162.045  30.501  0.00  0.00    +0.000 C 
ATOM     10  C   UNL     1      54.896 160.750  30.283  0.00  0.00    +0.003 C 
ATOM     11  C   UNL     1      51.208 160.995  30.671  0.00  0.00    +0.233 C 
ATOM     12  O   UNL     1      50.387 161.910  30.931  0.00  0.00    -0.283 OA
ENDROOT
BRANCH   1  13
ATOM     13  O   UNL     1      49.449 159.258  30.480  0.00  0.00    -0.435 OA
BRANCH  13  15
ATOM     14  N   UNL     1      48.482 159.965  32.420  0.00  0.00    -0.132 NA
ATOM     15  C   UNL     1      48.420 159.795  31.188  0.00  0.00    +0.198 C 
BRANCH  14  17
ATOM     16  N   UNL     1      49.432 158.578  34.253  0.00  0.00    -0.312 N 
ATOM     17  C   UNL     1      49.418 159.735  33.402  0.00  0.00    +0.323 C 
ATOM     18  O   UNL     1      50.343 160.569  33.604  0.00  0.00    -0.251 OA
ATOM     19  H   UNL     1      48.740 157.885  34.153  0.00  0.00    +0.147 HD
ATOM     20  H   UNL     1      50.133 158.478  34.937  0.00  0.00    +0.147 HD
ENDBRANCH  14  17
BRANCH  15  21
ATOM     21  C   UNL     1      47.194 160.175  30.383  0.00  0.00    +0.074 C 
ATOM     22  C   UNL     1      45.906 160.277  31.135  0.00  0.00    +0.009 C 
ATOM     23  C   UNL     1      46.667 161.534  30.677  0.00  0.00    +0.009 C 
ATOM     24  C   UNL     1      46.053 162.351  29.588  0.00  0.00    +0.001 C 
ENDBRANCH  15  21
ENDBRANCH  13  15
ENDBRANCH   1  13
BRANCH   2  25
ATOM     25  O   UNL     1      51.317 157.407  29.936  0.00  0.00    -0.367 OA
BRANCH  25  26
ATOM     26  N   UNL     1      51.841 156.557  29.023  0.00  0.00    -0.062 N 
ATOM     27  C   UNL     1      52.264 156.997  27.740  0.00  0.00    +0.280 C 
ATOM     28  O   UNL     1      52.118 158.213  27.456  0.00  0.00    -0.270 OA
ATOM     29  C   UNL     1      52.857 156.045  26.774  0.00  0.00    +0.159 C 
ATOM     30  N   UNL     1      53.496 154.930  27.408  0.00  0.00    -0.282 NA
ATOM     31  C   UNL     1      52.707 154.239  28.383  0.00  0.00    +0.159 C 
ATOM     32  C   UNL     1      51.996 155.177  29.302  0.00  0.00    +0.280 C 
ATOM     33  O   UNL     1      51.523 154.699  30.365  0.00  0.00    -0.270 OA
ATOM     34  H   UNL     1      54.338 155.272  27.871  0.00  0.00    +0.124 HD
ENDBRANCH  25  26
ENDBRANCH   2  25
TORSDOF 6
