REMARK  Name = =
REMARK  9 active torsions:
REMARK  status: ('A' for Active; 'I' for Inactive)
REMARK    1  A    between atoms: N_1  and  C_3
REMARK    2  A    between atoms: N_1  and  C_5
REMARK    3  A    between atoms: C_3  and  C_14
REMARK    4  A    between atoms: C_3  and  S_17
REMARK    5  A    between atoms: C_14  and  O_16
REMARK    6  A    between atoms: S_17  and  S_22
REMARK    7  A    between atoms: C_18  and  C_19
REMARK    8  A    between atoms: C_19  and  O_21
REMARK    9  A    between atoms: S_22  and  S_23
REMARK                            x       y       z     vdW  Elec       q    Type
REMARK                         _______ _______ _______ _____ _____    ______ ____
ROOT
ATOM      1  C   UNL     1     -12.464 -43.527  28.597  0.00  0.00    +0.263 C 
ENDROOT
BRANCH   1   2
ATOM      2  N   UNL     1     -12.740 -42.477  27.942  0.00  0.00    -0.187 N 
ATOM      3  O   UNL     1     -12.221 -41.274  28.292  0.00  0.00    -0.083 OA
BRANCH   2   5
ATOM      4  C   UNL     1     -14.948 -42.409  26.922  0.00  0.00    +0.018 C 
ATOM      5  C   UNL     1     -13.603 -42.547  26.817  0.00  0.00    +0.086 C 
ATOM      6  C   UNL     1     -12.968 -42.762  25.574  0.00  0.00    +0.019 C 
ATOM      7  C   UNL     1     -13.750 -42.829  24.461  0.00  0.00    +0.002 C 
ATOM      8  C   UNL     1     -15.119 -42.694  24.521  0.00  0.00    +0.000 C 
ATOM      9  C   UNL     1     -15.718 -42.482  25.768  0.00  0.00    +0.001 C 
ATOM     10  C   UNL     1     -17.071 -42.346  25.856  0.00  0.00    +0.000 C 
ATOM     11  C   UNL     1     -17.735 -42.136  27.049  0.00  0.00    +0.000 C 
ATOM     12  C   UNL     1     -16.957 -42.065  28.194  0.00  0.00    +0.000 C 
ATOM     13  C   UNL     1     -15.588 -42.198  28.142  0.00  0.00    +0.001 C 
ENDBRANCH   2   5
ENDBRANCH   1   2
BRANCH   1  14
ATOM     14  C   UNL     1     -13.050 -44.797  28.191  0.00  0.00    +0.348 C 
ATOM     15  O   UNL     1     -12.762 -45.316  27.097  0.00  0.00    -0.247 OA
BRANCH  14  16
ATOM     16  O   UNL     1     -13.943 -45.436  29.044  0.00  0.00    -0.478 OA
ATOM     17  H   UNL     1     -14.162 -45.048  29.868  0.00  0.00    +0.295 HD
ENDBRANCH  14  16
ENDBRANCH   1  14
BRANCH   1  18
ATOM     18  S   UNL     1     -11.286 -43.539  29.952  0.00  0.00    -0.059 S 
ATOM     19  C   UNL     1      -9.714 -43.198  29.857  0.00  0.00    +0.116 C 
BRANCH  19  20
ATOM     20  C   UNL     1      -8.957 -42.823  28.691  0.00  0.00    +0.345 C 
ATOM     21  O   UNL     1      -9.495 -42.435  27.653  0.00  0.00    -0.245 OA
BRANCH  20  22
ATOM     22  O   UNL     1      -7.573 -42.894  28.715  0.00  0.00    -0.477 OA
ATOM     23  H   UNL     1      -7.132 -43.185  29.489  0.00  0.00    +0.295 HD
ENDBRANCH  20  22
ENDBRANCH  19  20
BRANCH  18  24
ATOM     24  S   UNL     1     -12.088 -43.764  31.978  0.00  0.00    -0.030 S 
BRANCH  24  25
ATOM     25  S   UNL     1     -14.174 -43.406  31.807  0.00  0.00    -0.099 S 
ATOM     26  H   UNL     1     -14.756 -43.526  33.030  0.00  0.00    +0.115 HD
ENDBRANCH  24  25
ENDBRANCH  18  24
ENDBRANCH   1  18
TORSDOF 9
