REMARK  Name = =
REMARK  12 active torsions:
REMARK  status: ('A' for Active; 'I' for Inactive)
REMARK    1  A    between atoms: N_1  and  C_3
REMARK    2  A    between atoms: N_1  and  C_5
REMARK    3  A    between atoms: C_3  and  C_14
REMARK    4  A    between atoms: C_3  and  S_17
REMARK    5  A    between atoms: C_14  and  O_16
REMARK    6  A    between atoms: S_17  and  C_18
REMARK    7  A    between atoms: S_17  and  S_24
REMARK    8  A    between atoms: C_18  and  C_19
REMARK    9  A    between atoms: C_18  and  N_22
REMARK   10  A    between atoms: C_19  and  O_21
REMARK   11  A    between atoms: N_22  and  N_23
REMARK   12  A    between atoms: S_24  and  S_25
REMARK                            x       y       z     vdW  Elec       q    Type
REMARK                         _______ _______ _______ _____ _____    ______ ____
ROOT
ATOM      1  C   UNL     1     -13.081 -43.569  30.210  0.00  0.00    +0.260 C 
ENDROOT
BRANCH   1   2
ATOM      2  N   UNL     1     -14.046 -43.777  29.439  0.00  0.00    -0.187 N 
ATOM      3  O   UNL     1     -15.318 -43.879  30.039  0.00  0.00    -0.083 OA
BRANCH   2   5
ATOM      4  C   UNL     1     -14.915 -43.259  27.245  0.00  0.00    +0.018 C 
ATOM      5  C   UNL     1     -14.025 -43.965  28.032  0.00  0.00    +0.086 C 
ATOM      6  C   UNL     1     -13.156 -44.816  27.400  0.00  0.00    +0.019 C 
ATOM      7  C   UNL     1     -13.164 -44.967  26.022  0.00  0.00    +0.002 C 
ATOM      8  C   UNL     1     -14.063 -44.248  25.275  0.00  0.00    +0.000 C 
ATOM      9  C   UNL     1     -14.962 -43.375  25.869  0.00  0.00    +0.001 C 
ATOM     10  C   UNL     1     -15.856 -42.675  25.106  0.00  0.00    +0.000 C 
ATOM     11  C   UNL     1     -16.747 -41.821  25.697  0.00  0.00    +0.000 C 
ATOM     12  C   UNL     1     -16.729 -41.679  27.063  0.00  0.00    +0.000 C 
ATOM     13  C   UNL     1     -15.826 -42.389  27.815  0.00  0.00    +0.001 C 
ENDBRANCH   2   5
ENDBRANCH   1   2
BRANCH   1  14
ATOM     14  C   UNL     1     -13.309 -43.392  31.640  0.00  0.00    +0.348 C 
ATOM     15  O   UNL     1     -12.439 -42.869  32.382  0.00  0.00    -0.247 OA
BRANCH  14  16
ATOM     16  O   UNL     1     -14.489 -43.790  32.244  0.00  0.00    -0.478 OA
ATOM     17  H   UNL     1     -15.167 -44.185  31.732  0.00  0.00    +0.295 HD
ENDBRANCH  14  16
ENDBRANCH   1  14
BRANCH   1  18
ATOM     18  S   UNL     1     -11.396 -43.461  29.612  0.00  0.00    -0.063 S 
BRANCH  18  19
ATOM     19  C   UNL     1     -10.279 -44.566  30.153  0.00  0.00    +0.219 C 
BRANCH  19  20
ATOM     20  C   UNL     1     -10.699 -45.595  31.100  0.00  0.00    +0.340 C 
ATOM     21  O   UNL     1      -9.865 -46.262  31.757  0.00  0.00    -0.248 OA
BRANCH  20  22
ATOM     22  O   UNL     1     -12.052 -45.875  31.312  0.00  0.00    -0.479 OA
ATOM     23  H   UNL     1     -12.708 -45.400  30.841  0.00  0.00    +0.295 HD
ENDBRANCH  20  22
ENDBRANCH  19  20
BRANCH  19  24
ATOM     24  N   UNL     1      -8.939 -44.514  29.717  0.00  0.00    -0.231 NA
ATOM     25  H   UNL     1      -8.599 -43.578  29.939  0.00  0.00    +0.143 HD
BRANCH  24  26
ATOM     26  N   UNL     1      -7.993 -45.402  30.203  0.00  0.00    -0.269 NA
ATOM     27  H   UNL     1      -8.290 -46.357  30.005  0.00  0.00    +0.137 HD
ATOM     28  H   UNL     1      -7.897 -45.278  31.211  0.00  0.00    +0.137 HD
ENDBRANCH  24  26
ENDBRANCH  19  24
ENDBRANCH  18  19
BRANCH  18  29
ATOM     29  S   UNL     1     -10.575 -41.434  29.569  0.00  0.00    -0.033 S 
BRANCH  29  30
ATOM     30  S   UNL     1      -9.127 -41.483  28.006  0.00  0.00    -0.100 S 
ATOM     31  H   UNL     1      -8.545 -40.259  27.888  0.00  0.00    +0.115 HD
ENDBRANCH  29  30
ENDBRANCH  18  29
ENDBRANCH   1  18
TORSDOF 12
