REMARK  Name = =
REMARK  2 active torsions:
REMARK  status: ('A' for Active; 'I' for Inactive)
REMARK    1  A    between atoms: C_1  and  N_10
REMARK    2  A    between atoms: C_8  and  O_15
REMARK                            x       y       z     vdW  Elec       q    Type
REMARK                         _______ _______ _______ _____ _____    ______ ____
ROOT
ATOM      1  C   UNL     1     -14.594 -41.908  26.483  0.00  0.00    +0.167 C 
ATOM      2  C   UNL     1     -16.065 -41.938  26.415  0.00  0.00    +0.038 C 
ATOM      3  C   UNL     1     -16.439 -42.137  25.110  0.00  0.00    +0.137 C 
ATOM      4  O   UNL     1     -15.316 -42.242  24.309  0.00  0.00    -0.473 OA
ATOM      5  C   UNL     1     -14.162 -42.431  25.108  0.00  0.00    +0.232 C 
ATOM      6  C   UNL     1     -17.804 -42.204  24.774  0.00  0.00    +0.040 C 
ATOM      7  C   UNL     1     -18.785 -42.074  25.737  0.00  0.00    +0.040 C 
ATOM      8  C   UNL     1     -18.397 -41.874  27.044  0.00  0.00    +0.134 C 
ATOM      9  C   UNL     1     -17.059 -41.810  27.363  0.00  0.00    +0.037 C 
ENDROOT
BRANCH   1  10
ATOM     10  N   UNL     1     -14.059 -42.769  27.502  0.00  0.00    -0.185 N 
ATOM     11  N   UNL     1     -12.760 -42.790  27.804  0.00  0.00    -0.153 NA
ATOM     12  C   UNL     1     -12.562 -43.683  28.785  0.00  0.00    +0.218 C 
ATOM     13  N   UNL     1     -13.744 -44.233  29.108  0.00  0.00    -0.203 NA
ATOM     14  C   UNL     1     -14.650 -43.654  28.304  0.00  0.00    +0.186 C 
ENDBRANCH   1  10
BRANCH   8  15
ATOM     15  O   UNL     1     -19.392 -41.744  27.998  0.00  0.00    -0.506 OA
ATOM     16  H   UNL     1     -20.293 -41.793  27.745  0.00  0.00    +0.292 HD
ENDBRANCH   8  15
TORSDOF 2
