REMARK  Name = =
REMARK  0 active torsions:
REMARK  status: ('A' for Active; 'I' for Inactive)
REMARK                            x       y       z     vdW  Elec       q    Type
REMARK                         _______ _______ _______ _____ _____    ______ ____
ROOT
ATOM      1  N   UNL     1     -12.360 -45.064  27.897  0.00  0.00    -0.322 N 
ATOM      2  C   UNL     1     -11.277 -44.431  28.618  0.00  0.00    +0.132 C 
ATOM      3  N   UNL     1     -11.330 -44.877  29.993  0.00  0.00    -0.283 NA
ATOM      4  C   UNL     1     -11.260 -43.716  30.824  0.00  0.00    +0.070 C 
ATOM      5  C   UNL     1     -12.084 -42.703  30.021  0.00  0.00    +0.025 C 
ATOM      6  C   UNL     1     -11.611 -42.967  28.605  0.00  0.00    +0.058 C 
ATOM      7  C   UNL     1     -12.708 -42.853  27.614  0.00  0.00    -0.006 C 
ATOM      8  C   UNL     1     -13.139 -44.092  27.206  0.00  0.00    +0.042 C 
ATOM      9  C   UNL     1     -14.173 -44.202  26.271  0.00  0.00    +0.014 C 
ATOM     10  C   UNL     1     -14.774 -43.078  25.744  0.00  0.00    +0.001 C 
ATOM     11  C   UNL     1     -14.337 -41.836  26.159  0.00  0.00    -0.000 C 
ATOM     12  C   UNL     1     -13.323 -41.719  27.077  0.00  0.00    -0.003 C 
ATOM     13  H   UNL     1     -12.534 -46.033  27.886  0.00  0.00    +0.148 HD
ATOM     14  H   UNL     1     -10.542 -45.494  30.190  0.00  0.00    +0.125 HD
ENDROOT
TORSDOF 0
