REMARK  Name = =
REMARK  3 active torsions:
REMARK  status: ('A' for Active; 'I' for Inactive)
REMARK    1  A    between atoms: N_1  and  C_11
REMARK    2  A    between atoms: C_6  and  O_18
REMARK    3  A    between atoms: C_7  and  O_17
REMARK                            x       y       z     vdW  Elec       q    Type
REMARK                         _______ _______ _______ _____ _____    ______ ____
ROOT
ATOM      1  N   UNL     1      52.473 155.544  26.500  0.00  0.00    -0.270 NA
ATOM      2  C   UNL     1      51.813 154.295  26.571  0.00  0.00    +0.099 C 
ATOM      3  C   UNL     1      52.509 153.122  26.058  0.00  0.00    -0.007 C 
ATOM      4  C   UNL     1      53.495 153.259  25.119  0.00  0.00    -0.020 C 
ATOM      5  C   UNL     1      54.121 152.118  24.657  0.00  0.00    +0.035 C 
ATOM      6  C   UNL     1      53.785 150.863  25.113  0.00  0.00    +0.167 C 
ATOM      7  C   UNL     1      52.794 150.717  26.061  0.00  0.00    +0.167 C 
ATOM      8  C   UNL     1      52.168 151.864  26.520  0.00  0.00    +0.037 C 
ATOM      9  C   UNL     1      53.823 154.633  24.663  0.00  0.00    +0.044 C 
ATOM     10  C   UNL     1      53.700 155.626  25.804  0.00  0.00    +0.077 C 
ENDROOT
BRANCH   1  11
ATOM     11  C   UNL     1      52.544 156.123  27.800  0.00  0.00    +0.066 C 
ATOM     12  C   UNL     1      53.135 157.502  27.823  0.00  0.00    +0.024 C 
ATOM     13  C   UNL     1      52.767 157.947  29.247  0.00  0.00    +0.066 C 
ATOM     14  C   UNL     1      51.467 157.283  29.510  0.00  0.00    +0.152 C 
ATOM     15  O   UNL     1      50.791 157.454  30.494  0.00  0.00    -0.296 OA
ATOM     16  C   UNL     1      51.151 156.391  28.375  0.00  0.00    +0.080 C 
ENDBRANCH   1  11
BRANCH   7  17
ATOM     17  O   UNL     1      52.423 149.459  26.550  0.00  0.00    -0.503 OA
ATOM     18  H   UNL     1      52.852 148.688  26.234  0.00  0.00    +0.292 HD
ENDBRANCH   7  17
BRANCH   6  19
ATOM     19  O   UNL     1      54.404 149.707  24.661  0.00  0.00    -0.503 OA
ATOM     20  H   UNL     1      55.083 149.760  24.017  0.00  0.00    +0.292 HD
ENDBRANCH   6  19
TORSDOF 3
