REMARK  Name = =
REMARK  4 active torsions:
REMARK  status: ('A' for Active; 'I' for Inactive)
REMARK    1  A    between atoms: C_1  and  C_16
REMARK    2  A    between atoms: C_4  and  C_7
REMARK    3  A    between atoms: C_8  and  C_13
REMARK    4  A    between atoms: C_13  and  O_15
REMARK                            x       y       z     vdW  Elec       q    Type
REMARK                         _______ _______ _______ _____ _____    ______ ____
ROOT
ATOM      1  C   UNL     1      51.975 156.562  28.252  0.00  0.00    +0.036 C 
ATOM      2  C   UNL     1      53.017 156.953  27.442  0.00  0.00    +0.003 C 
ATOM      3  C   UNL     1      53.554 156.154  26.458  0.00  0.00    +0.000 C 
ATOM      4  C   UNL     1      53.003 154.886  26.287  0.00  0.00    +0.000 C 
ATOM      5  C   UNL     1      51.958 154.454  27.075  0.00  0.00    +0.000 C 
ATOM      6  C   UNL     1      51.448 155.303  28.061  0.00  0.00    +0.003 C 
ENDROOT
BRANCH   4   7
ATOM      7  C   UNL     1      53.562 154.086  25.215  0.00  0.00    +0.006 C 
ATOM      8  C   UNL     1      53.541 152.710  25.170  0.00  0.00    +0.075 C 
ATOM      9  C   UNL     1      54.066 152.038  24.051  0.00  0.00    +0.006 C 
ATOM     10  C   UNL     1      54.601 152.733  23.002  0.00  0.00    +0.000 C 
ATOM     11  C   UNL     1      54.632 154.106  23.029  0.00  0.00    +0.000 C 
ATOM     12  C   UNL     1      54.119 154.759  24.123  0.00  0.00    +0.000 C 
BRANCH   8  13
ATOM     13  C   UNL     1      53.036 151.929  26.279  0.00  0.00    +0.338 C 
ATOM     14  O   UNL     1      52.740 152.464  27.349  0.00  0.00    -0.245 OA
BRANCH  13  15
ATOM     15  O   UNL     1      52.888 150.568  26.124  0.00  0.00    -0.477 OA
ATOM     16  H   UNL     1      53.113 150.162  25.310  0.00  0.00    +0.295 HD
ENDBRANCH  13  15
ENDBRANCH   8  13
ENDBRANCH   4   7
BRANCH   1  17
ATOM     17  C   UNL     1      51.409 157.411  29.293  0.00  0.00    +0.166 C 
ATOM     18  N   UNL     1      50.529 156.945  30.184  0.00  0.00    -0.205 NA
ATOM     19  C   UNL     1      50.041 157.768  31.117  0.00  0.00    +0.202 C 
ATOM     20  N   UNL     1      50.452 159.057  31.140  0.00  0.00    -0.202 NA
ATOM     21  C   UNL     1      51.338 159.545  30.251  0.00  0.00    +0.202 C 
ATOM     22  N   UNL     1      51.815 158.707  29.324  0.00  0.00    -0.205 NA
ENDBRANCH   1  17
TORSDOF 4
