REMARK  Name = =
REMARK  4 active torsions:
REMARK  status: ('A' for Active; 'I' for Inactive)
REMARK    1  A    between atoms: N_1  and  C_11
REMARK    2  A    between atoms: C_6  and  O_24
REMARK    3  A    between atoms: C_7  and  O_23
REMARK    4  A    between atoms: C_11  and  C_17
REMARK                            x       y       z     vdW  Elec       q    Type
REMARK                         _______ _______ _______ _____ _____    ______ ____
ROOT
ATOM      1  N   UNL     1      53.468 153.570  26.348  0.00  0.00    -0.271 NA
ATOM      2  C   UNL     1      53.822 154.115  27.572  0.00  0.00    +0.099 C 
ATOM      3  C   UNL     1      52.686 154.833  28.205  0.00  0.00    -0.007 C 
ATOM      4  C   UNL     1      51.503 154.079  28.281  0.00  0.00    -0.020 C 
ATOM      5  C   UNL     1      50.376 154.597  28.843  0.00  0.00    +0.035 C 
ATOM      6  C   UNL     1      50.411 155.881  29.341  0.00  0.00    +0.167 C 
ATOM      7  C   UNL     1      51.582 156.627  29.266  0.00  0.00    +0.167 C 
ATOM      8  C   UNL     1      52.727 156.111  28.699  0.00  0.00    +0.037 C 
ATOM      9  C   UNL     1      51.616 152.711  27.718  0.00  0.00    +0.044 C 
ATOM     10  C   UNL     1      52.218 152.879  26.342  0.00  0.00    +0.077 C 
ENDROOT
BRANCH   1  11
ATOM     11  C   UNL     1      53.985 153.938  25.106  0.00  0.00    +0.053 C 
ATOM     12  C   UNL     1      53.505 152.945  24.010  0.00  0.00    +0.023 C 
ATOM     13  C   UNL     1      54.297 151.692  24.249  0.00  0.00    +0.066 C 
ATOM     14  C   UNL     1      55.300 152.079  25.263  0.00  0.00    +0.152 C 
ATOM     15  O   UNL     1      55.845 151.358  26.059  0.00  0.00    -0.296 OA
ATOM     16  C   UNL     1      55.474 153.543  25.068  0.00  0.00    +0.079 C 
BRANCH  11  17
ATOM     17  C   UNL     1      53.765 155.310  24.580  0.00  0.00    +0.014 C 
ATOM     18  C   UNL     1      53.373 156.384  25.510  0.00  0.00    +0.001 C 
ATOM     19  C   UNL     1      54.536 157.301  25.890  0.00  0.00    +0.000 C 
ATOM     20  C   UNL     1      55.005 158.098  24.701  0.00  0.00    +0.000 C 
ATOM     21  C   UNL     1      54.613 157.315  23.473  0.00  0.00    +0.000 C 
ATOM     22  C   UNL     1      54.886 155.834  23.690  0.00  0.00    +0.001 C 
ENDBRANCH  11  17
ENDBRANCH   1  11
BRANCH   7  23
ATOM     23  O   UNL     1      51.576 157.920  29.781  0.00  0.00    -0.503 OA
ATOM     24  H   UNL     1      50.795 158.267  30.166  0.00  0.00    +0.292 HD
ENDBRANCH   7  23
BRANCH   6  25
ATOM     25  O   UNL     1      49.282 156.445  29.921  0.00  0.00    -0.503 OA
ATOM     26  H   UNL     1      48.488 155.951  29.977  0.00  0.00    +0.292 HD
ENDBRANCH   6  25
TORSDOF 4
