REMARK  Name = =
REMARK  10 active torsions:
REMARK  status: ('A' for Active; 'I' for Inactive)
REMARK    1  A    between atoms: C_1  and  C_16
REMARK    2  A    between atoms: C_4  and  C_7
REMARK    3  A    between atoms: C_8  and  C_13
REMARK    4  A    between atoms: C_13  and  O_15
REMARK    5  A    between atoms: O_25  and  P_26
REMARK    6  A    between atoms: P_26  and  O_28
REMARK    7  A    between atoms: P_26  and  O_29
REMARK    8  A    between atoms: O_30  and  P_31
REMARK    9  A    between atoms: P_31  and  O_33
REMARK   10  A    between atoms: P_31  and  O_34
REMARK                            x       y       z     vdW  Elec       q    Type
REMARK                         _______ _______ _______ _____ _____    ______ ____
ROOT
ATOM      1  C   UNL     1      53.415 156.920  26.731  0.00  0.00    +0.036 C 
ATOM      2  C   UNL     1      53.178 155.550  26.605  0.00  0.00    +0.003 C 
ATOM      3  C   UNL     1      53.681 154.973  25.464  0.00  0.00    +0.000 C 
ATOM      4  C   UNL     1      54.380 155.674  24.489  0.00  0.00    +0.000 C 
ATOM      5  C   UNL     1      54.600 157.016  24.637  0.00  0.00    +0.000 C 
ATOM      6  C   UNL     1      54.123 157.632  25.746  0.00  0.00    +0.003 C 
ENDROOT
BRANCH   4   7
ATOM      7  C   UNL     1      54.911 155.022  23.300  0.00  0.00    +0.006 C 
ATOM      8  C   UNL     1      54.750 153.684  23.122  0.00  0.00    +0.075 C 
ATOM      9  C   UNL     1      55.243 153.153  21.925  0.00  0.00    +0.006 C 
ATOM     10  C   UNL     1      55.858 153.926  20.973  0.00  0.00    +0.000 C 
ATOM     11  C   UNL     1      56.010 155.271  21.173  0.00  0.00    +0.000 C 
ATOM     12  C   UNL     1      55.540 155.830  22.336  0.00  0.00    +0.000 C 
BRANCH   8  13
ATOM     13  C   UNL     1      54.163 152.798  24.098  0.00  0.00    +0.338 C 
ATOM     14  O   UNL     1      53.309 153.076  24.947  0.00  0.00    -0.245 OA
BRANCH  13  15
ATOM     15  O   UNL     1      54.593 151.452  24.108  0.00  0.00    -0.477 OA
ATOM     16  H   UNL     1      55.239 151.162  23.495  0.00  0.00    +0.295 HD
ENDBRANCH  13  15
ENDBRANCH   8  13
ENDBRANCH   4   7
BRANCH   1  17
ATOM     17  C   UNL     1      52.919 157.686  27.866  0.00  0.00    +0.166 C 
ATOM     18  N   UNL     1      51.660 158.103  27.983  0.00  0.00    -0.205 NA
ATOM     19  C   UNL     1      51.174 158.803  29.006  0.00  0.00    +0.202 C 
ATOM     20  N   UNL     1      51.998 159.129  30.016  0.00  0.00    -0.202 NA
ATOM     21  C   UNL     1      53.286 158.733  29.951  0.00  0.00    +0.202 C 
ATOM     22  N   UNL     1      53.733 158.026  28.896  0.00  0.00    -0.205 NA
ENDBRANCH   1  17
TORSDOF 4
REMARK  Name = =
REMARK  10 active torsions:
REMARK  status: ('A' for Active; 'I' for Inactive)
REMARK    1  A    between atoms: C_1  and  C_16
REMARK    2  A    between atoms: C_4  and  C_7
REMARK    3  A    between atoms: C_8  and  C_13
REMARK    4  A    between atoms: C_13  and  O_15
REMARK    5  A    between atoms: O_25  and  P_26
REMARK    6  A    between atoms: P_26  and  O_28
REMARK    7  A    between atoms: P_26  and  O_29
REMARK    8  A    between atoms: O_30  and  P_31
REMARK    9  A    between atoms: P_31  and  O_33
REMARK   10  A    between atoms: P_31  and  O_34
REMARK                            x       y       z     vdW  Elec       q    Type
REMARK                         _______ _______ _______ _____ _____    ______ ____
ROOT
ATOM      1  P   UNL     1      52.247 154.621  27.769  0.00  0.00    +0.000 P 
ENDROOT
TORSDOF 0
REMARK  Name = =
REMARK  10 active torsions:
REMARK  status: ('A' for Active; 'I' for Inactive)
REMARK    1  A    between atoms: C_1  and  C_16
REMARK    2  A    between atoms: C_4  and  C_7
REMARK    3  A    between atoms: C_8  and  C_13
REMARK    4  A    between atoms: C_13  and  O_15
REMARK    5  A    between atoms: O_25  and  P_26
REMARK    6  A    between atoms: P_26  and  O_28
REMARK    7  A    between atoms: P_26  and  O_29
REMARK    8  A    between atoms: O_30  and  P_31
REMARK    9  A    between atoms: P_31  and  O_33
REMARK   10  A    between atoms: P_31  and  O_34
REMARK                            x       y       z     vdW  Elec       q    Type
REMARK                         _______ _______ _______ _____ _____    ______ ____
ROOT
ATOM      1  P   UNL     1      50.790 155.253  29.957  0.00  0.00    +0.501 P 
ATOM      2  O   UNL     1      50.546 153.939  30.685  0.00  0.00    -0.225 OA
ENDROOT
BRANCH   1   4
ATOM      3  O   UNL     1      53.498 154.863  28.449  0.00  0.00    -0.025 OA
ATOM      4  O   UNL     1      52.335 155.236  29.325  0.00  0.00    -0.093 OA
ENDBRANCH   1   4
BRANCH   1   5
ATOM      5  O   UNL     1      50.583 156.567  31.000  0.00  0.00    -0.301 OA
ATOM      6  H   UNL     1      51.218 156.503  31.731  0.00  0.00    +0.222 HD
ENDBRANCH   1   5
BRANCH   1   7
ATOM      7  O   UNL     1      49.684 155.371  28.691  0.00  0.00    -0.301 OA
ATOM      8  H   UNL     1      49.799 154.619  28.090  0.00  0.00    +0.222 HD
ENDBRANCH   1   7
TORSDOF 3
REMARK  Name = =
REMARK  10 active torsions:
REMARK  status: ('A' for Active; 'I' for Inactive)
REMARK    1  A    between atoms: C_1  and  C_16
REMARK    2  A    between atoms: C_4  and  C_7
REMARK    3  A    between atoms: C_8  and  C_13
REMARK    4  A    between atoms: C_13  and  O_15
REMARK    5  A    between atoms: O_25  and  P_26
REMARK    6  A    between atoms: P_26  and  O_28
REMARK    7  A    between atoms: P_26  and  O_29
REMARK    8  A    between atoms: O_30  and  P_31
REMARK    9  A    between atoms: P_31  and  O_33
REMARK   10  A    between atoms: P_31  and  O_34
REMARK                            x       y       z     vdW  Elec       q    Type
REMARK                         _______ _______ _______ _____ _____    ______ ____
ROOT
ATOM      1  O   HOH     1      50.686 154.521  27.106  0.00  0.00    -0.253 OA
ATOM      2  H   HOH     0      51.656 154.521  27.106  0.00  0.00    +0.253 HD
ENDROOT
TORSDOF 0
REMARK  Name = =
REMARK  10 active torsions:
REMARK  status: ('A' for Active; 'I' for Inactive)
REMARK    1  A    between atoms: C_1  and  C_16
REMARK    2  A    between atoms: C_4  and  C_7
REMARK    3  A    between atoms: C_8  and  C_13
REMARK    4  A    between atoms: C_13  and  O_15
REMARK    5  A    between atoms: O_25  and  P_26
REMARK    6  A    between atoms: P_26  and  O_28
REMARK    7  A    between atoms: P_26  and  O_29
REMARK    8  A    between atoms: O_30  and  P_31
REMARK    9  A    between atoms: P_31  and  O_33
REMARK   10  A    between atoms: P_31  and  O_34
REMARK                            x       y       z     vdW  Elec       q    Type
REMARK                         _______ _______ _______ _____ _____    ______ ____
ROOT
ATOM      1  P   UNL     1      52.055 151.868  27.175  0.00  0.00    +0.470 P 
ATOM      2  O   UNL     1      52.994 150.897  26.454  0.00  0.00    -0.228 OA
ENDROOT
BRANCH   1   3
ATOM      3  O   UNL     1      53.001 153.102  27.764  0.00  0.00    -0.303 OA
ATOM      4  H   UNL     1      53.637 152.745  28.403  0.00  0.00    +0.222 HD
ENDBRANCH   1   3
BRANCH   1   5
ATOM      5  O   UNL     1      50.917 152.382  26.057  0.00  0.00    -0.303 OA
ATOM      6  H   UNL     1      50.303 153.001  26.482  0.00  0.00    +0.222 HD
ENDBRANCH   1   5
BRANCH   1   7
ATOM      7  O   UNL     1      51.277 150.996  28.414  0.00  0.00    -0.303 OA
ATOM      8  H   UNL     1      51.935 150.698  29.062  0.00  0.00    +0.222 HD
ENDBRANCH   1   7
TORSDOF 3
