REMARK  Name = =
REMARK  3 active torsions:
REMARK  status: ('A' for Active; 'I' for Inactive)
REMARK    1  A    between atoms: S_1  and  N_4
REMARK    2  A    between atoms: S_1  and  N_8
REMARK    3  A    between atoms: C_5  and  O_7
REMARK                            x       y       z     vdW  Elec       q    Type
REMARK                         _______ _______ _______ _____ _____    ______ ____
ROOT
ATOM      1  S   UNL     1      -3.084  -3.841  29.836  0.00  0.00    +0.111 S 
ATOM      2  O   UNL     1      -2.795  -2.707  30.746  0.00  0.00    -0.138 OA
ATOM      3  O   UNL     1      -2.720  -3.541  28.408  0.00  0.00    -0.138 OA
ENDROOT
BRANCH   1   4
ATOM      4  N   UNL     1      -2.209  -5.258  30.288  0.00  0.00    -0.141 N 
ATOM      5  C   UNL     1      -0.791  -5.161  30.282  0.00  0.00    +0.418 C 
ATOM      6  O   UNL     1      -0.142  -4.126  29.976  0.00  0.00    -0.225 OA
ATOM      7  H   UNL     1      -2.669  -6.092  30.538  0.00  0.00    +0.181 HD
BRANCH   5   8
ATOM      8  O   UNL     1      -0.113  -6.338  30.653  0.00  0.00    -0.465 OA
ATOM      9  H   UNL     1      -0.599  -7.107  30.880  0.00  0.00    +0.297 HD
ENDBRANCH   5   8
ENDBRANCH   1   4
BRANCH   1  10
ATOM     10  N   UNL     1      -4.789  -4.188  29.942  0.00  0.00    -0.190 NA
ATOM     11  H   UNL     1      -5.035  -4.391  30.911  0.00  0.00    +0.146 HD
ATOM     12  H   UNL     1      -5.009  -4.996  29.359  0.00  0.00    +0.146 HD
ENDBRANCH   1  10
TORSDOF 3
