REMARK  Name = =
REMARK  4 active torsions:
REMARK  status: ('A' for Active; 'I' for Inactive)
REMARK    1  A    between atoms: N_1  and  C_4
REMARK    2  A    between atoms: N_1  and  S_9
REMARK    3  A    between atoms: C_2  and  O_13
REMARK    4  A    between atoms: S_9  and  N_12
REMARK                            x       y       z     vdW  Elec       q    Type
REMARK                         _______ _______ _______ _____ _____    ______ ____
ROOT
ATOM      1  N   UNL     1      -3.051  -4.556  30.543  0.00  0.00    -0.118 N 
ATOM      2  C   UNL     1      -3.397  -5.794  31.112  0.00  0.00    +0.421 C 
ATOM      3  O   UNL     1      -4.330  -5.906  31.905  0.00  0.00    -0.225 OA
ENDROOT
BRANCH   1   4
ATOM      4  C   UNL     1      -2.017  -4.428  29.590  0.00  0.00    +0.103 C 
ATOM      5  C   UNL     1      -0.633  -4.231  30.264  0.00  0.00    +0.022 C 
ATOM      6  C   UNL     1       0.198  -4.336  28.978  0.00  0.00    +0.002 C 
ATOM      7  C   UNL     1      -0.423  -5.590  28.407  0.00  0.00    +0.002 C 
ATOM      8  C   UNL     1      -1.709  -5.617  28.778  0.00  0.00    +0.022 C 
ENDBRANCH   1   4
BRANCH   1   9
ATOM      9  S   UNL     1      -3.950  -3.150  31.000  0.00  0.00    +0.114 S 
ATOM     10  O   UNL     1      -5.391  -3.287  30.691  0.00  0.00    -0.138 OA
ATOM     11  O   UNL     1      -3.668  -2.935  32.463  0.00  0.00    -0.138 OA
BRANCH   9  12
ATOM     12  N   UNL     1      -3.327  -1.734  30.190  0.00  0.00    -0.190 NA
ATOM     13  H   UNL     1      -2.334  -1.633  30.398  0.00  0.00    +0.146 HD
ATOM     14  H   UNL     1      -3.829  -0.908  30.516  0.00  0.00    +0.146 HD
ENDBRANCH   9  12
ENDBRANCH   1   9
BRANCH   2  15
ATOM     15  O   UNL     1      -2.661  -6.953  30.774  0.00  0.00    -0.465 OA
ATOM     16  H   UNL     1      -1.945  -6.895  30.172  0.00  0.00    +0.297 HD
ENDBRANCH   2  15
TORSDOF 4
