REMARK  Name = =
REMARK  5 active torsions:
REMARK  status: ('A' for Active; 'I' for Inactive)
REMARK    1  A    between atoms: S_1  and  N_4
REMARK    2  A    between atoms: S_1  and  N_13
REMARK    3  A    between atoms: N_4  and  C_7
REMARK    4  A    between atoms: C_5  and  O_12
REMARK    5  A    between atoms: N_13  and  C_15
REMARK                            x       y       z     vdW  Elec       q    Type
REMARK                         _______ _______ _______ _____ _____    ______ ____
ROOT
ATOM      1  S   UNL     1      -3.414  -5.161  31.033  0.00  0.00    +0.132 S 
ATOM      2  O   UNL     1      -3.322  -4.711  32.487  0.00  0.00    -0.135 OA
ATOM      3  O   UNL     1      -3.957  -6.584  30.999  0.00  0.00    -0.135 OA
ENDROOT
BRANCH   1   4
ATOM      4  N   UNL     1      -1.870  -5.195  30.308  0.00  0.00    -0.107 N 
ATOM      5  C   UNL     1      -1.677  -4.746  28.997  0.00  0.00    +0.422 C 
ATOM      6  O   UNL     1      -2.662  -4.308  28.345  0.00  0.00    -0.225 OA
BRANCH   4   7
ATOM      7  C   UNL     1      -0.759  -5.697  31.077  0.00  0.00    +0.147 C 
ATOM      8  C   UNL     1      -0.404  -7.103  30.739  0.00  0.00    -0.000 C 
ATOM      9  C   UNL     1       0.983  -7.069  30.223  0.00  0.00    -0.003 C 
ATOM     10  C   UNL     1       1.455  -5.687  30.368  0.00  0.00    -0.003 C 
ATOM     11  C   UNL     1       0.487  -4.941  30.838  0.00  0.00    -0.000 C 
ENDBRANCH   4   7
BRANCH   5  12
ATOM     12  O   UNL     1      -0.456  -4.741  28.333  0.00  0.00    -0.465 OA
ATOM     13  H   UNL     1       0.314  -5.055  28.765  0.00  0.00    +0.297 HD
ENDBRANCH   5  12
ENDBRANCH   1   4
BRANCH   1  14
ATOM     14  N   UNL     1      -4.487  -4.084  30.181  0.00  0.00    -0.199 N 
ATOM     15  H   UNL     1      -4.613  -4.162  29.208  0.00  0.00    +0.175 HD
BRANCH  14  17
ATOM     16  C   UNL     1      -6.237  -3.394  31.655  0.00  0.00    +0.061 C 
ATOM     17  C   UNL     1      -5.175  -3.090  30.930  0.00  0.00    +0.108 C 
ATOM     18  C   UNL     1      -4.679  -1.727  30.881  0.00  0.00    +0.210 C 
ATOM     19  O   UNL     1      -3.673  -1.383  30.208  0.00  0.00    -0.285 OA
ATOM     20  C   UNL     1      -5.401  -0.705  31.664  0.00  0.00    +0.047 C 
ATOM     21  C   UNL     1      -6.456  -1.031  32.378  0.00  0.00    +0.045 C 
ATOM     22  C   UNL     1      -6.964  -2.393  32.437  0.00  0.00    +0.197 C 
ATOM     23  O   UNL     1      -7.975  -2.668  33.131  0.00  0.00    -0.287 OA
ENDBRANCH  14  17
ENDBRANCH   1  14
TORSDOF 5
