REMARK  Name = =
REMARK  7 active torsions:
REMARK  status: ('A' for Active; 'I' for Inactive)
REMARK    1  A    between atoms: N_1  and  C_3
REMARK    2  A    between atoms: N_1  and  S_12
REMARK    3  A    between atoms: C_2  and  C_10
REMARK    4  A    between atoms: C_10  and  N_11
REMARK    5  A    between atoms: S_12  and  N_15
REMARK    6  A    between atoms: N_15  and  C_18
REMARK    7  A    between atoms: C_16  and  O_23
REMARK                            x       y       z     vdW  Elec       q    Type
REMARK                         _______ _______ _______ _____ _____    ______ ____
ROOT
ATOM      1  N   UNL     1      -2.681  -4.919  31.574  0.00  0.00    -0.199 N 
ATOM      2  H   UNL     1      -2.186  -4.647  32.381  0.00  0.00    +0.175 HD
ENDROOT
BRANCH   1   4
ATOM      3  C   UNL     1      -1.476  -6.490  30.348  0.00  0.00    +0.050 C 
ATOM      4  C   UNL     1      -2.513  -6.241  31.113  0.00  0.00    +0.105 C 
ATOM      5  C   UNL     1      -3.393  -7.351  31.443  0.00  0.00    +0.210 C 
ATOM      6  O   UNL     1      -4.403  -7.148  32.178  0.00  0.00    -0.285 OA
ATOM      7  C   UNL     1      -3.162  -8.709  30.956  0.00  0.00    +0.047 C 
ATOM      8  C   UNL     1      -2.114  -8.923  30.191  0.00  0.00    +0.045 C 
ATOM      9  C   UNL     1      -1.219  -7.843  29.844  0.00  0.00    +0.194 C 
ATOM     10  O   UNL     1      -0.209  -8.050  29.108  0.00  0.00    -0.287 OA
BRANCH   3  11
ATOM     11  C   UNL     1      -0.554  -5.396  29.983  0.00  0.00    +0.097 C 
BRANCH  11  12
ATOM     12  N   UNL     1       0.742  -5.589  30.578  0.00  0.00    -0.317 NA
ATOM     13  H   UNL     1       1.357  -4.821  30.310  0.00  0.00    +0.119 HD
ATOM     14  H   UNL     1       1.138  -6.471  30.252  0.00  0.00    +0.119 HD
ENDBRANCH  11  12
ENDBRANCH   3  11
ENDBRANCH   1   4
BRANCH   1  15
ATOM     15  S   UNL     1      -3.692  -3.750  30.821  0.00  0.00    +0.132 S 
ATOM     16  O   UNL     1      -2.807  -2.666  30.277  0.00  0.00    -0.135 OA
ATOM     17  O   UNL     1      -4.372  -4.397  29.647  0.00  0.00    -0.135 OA
BRANCH  15  18
ATOM     18  N   UNL     1      -4.868  -3.142  31.920  0.00  0.00    -0.115 N 
ATOM     19  C   UNL     1      -4.829  -3.524  33.279  0.00  0.00    +0.422 C 
ATOM     20  O   UNL     1      -3.948  -4.292  33.717  0.00  0.00    -0.225 OA
BRANCH  18  21
ATOM     21  C   UNL     1      -5.857  -2.243  31.438  0.00  0.00    +0.103 C 
ATOM     22  C   UNL     1      -5.709  -0.843  32.015  0.00  0.00    +0.022 C 
ATOM     23  C   UNL     1      -7.093  -0.286  31.824  0.00  0.00    +0.002 C 
ATOM     24  C   UNL     1      -7.952  -1.483  32.049  0.00  0.00    +0.002 C 
ATOM     25  C   UNL     1      -7.248  -2.588  31.829  0.00  0.00    +0.022 C 
ENDBRANCH  18  21
BRANCH  19  26
ATOM     26  O   UNL     1      -5.820  -3.013  34.120  0.00  0.00    -0.465 OA
ATOM     27  H   UNL     1      -6.475  -2.437  33.777  0.00  0.00    +0.297 HD
ENDBRANCH  19  26
ENDBRANCH  15  18
ENDBRANCH   1  15
TORSDOF 7
