REMARK  Name = =
REMARK  8 active torsions:
REMARK  status: ('A' for Active; 'I' for Inactive)
REMARK    1  A    between atoms: C_1  and  C_22
REMARK    2  A    between atoms: C_2  and  N_9
REMARK    3  A    between atoms: N_9  and  S_10
REMARK    4  A    between atoms: S_10  and  N_13
REMARK    5  A    between atoms: N_13  and  C_16
REMARK    6  A    between atoms: C_14  and  O_21
REMARK    7  A    between atoms: C_22  and  N_23
REMARK    8  A    between atoms: C_22  and  N_34
REMARK                            x       y       z     vdW  Elec       q    Type
REMARK                         _______ _______ _______ _____ _____    ______ ____
ROOT
ATOM      1  C   UNL     1      -1.178  -6.371  30.098  0.00  0.00    +0.068 C 
ATOM      2  C   UNL     1      -1.652  -6.629  31.277  0.00  0.00    +0.107 C 
ATOM      3  C   UNL     1      -1.669  -8.039  31.781  0.00  0.00    +0.210 C 
ATOM      4  O   UNL     1      -2.137  -8.226  32.932  0.00  0.00    -0.285 OA
ATOM      5  C   UNL     1      -1.160  -9.123  30.964  0.00  0.00    +0.047 C 
ATOM      6  C   UNL     1      -0.680  -8.866  29.771  0.00  0.00    +0.045 C 
ATOM      7  C   UNL     1      -0.673  -7.488  29.302  0.00  0.00    +0.196 C 
ATOM      8  O   UNL     1      -0.202  -7.250  28.138  0.00  0.00    -0.287 OA
ENDROOT
BRANCH   2   9
ATOM      9  N   UNL     1      -2.153  -5.594  32.111  0.00  0.00    -0.199 N 
ATOM     10  H   UNL     1      -1.546  -5.032  32.645  0.00  0.00    +0.175 HD
BRANCH   9  11
ATOM     11  S   UNL     1      -3.853  -5.355  32.156  0.00  0.00    +0.132 S 
ATOM     12  O   UNL     1      -4.369  -5.889  33.470  0.00  0.00    -0.135 OA
ATOM     13  O   UNL     1      -4.532  -6.154  31.040  0.00  0.00    -0.135 OA
BRANCH  11  14
ATOM     14  N   UNL     1      -4.379  -3.752  31.944  0.00  0.00    -0.115 N 
ATOM     15  C   UNL     1      -3.632  -2.672  31.441  0.00  0.00    +0.422 C 
ATOM     16  O   UNL     1      -4.152  -1.516  31.332  0.00  0.00    -0.225 OA
BRANCH  14  17
ATOM     17  C   UNL     1      -5.771  -3.476  32.349  0.00  0.00    +0.103 C 
ATOM     18  C   UNL     1      -6.491  -2.568  31.426  0.00  0.00    +0.022 C 
ATOM     19  C   UNL     1      -7.008  -1.438  32.255  0.00  0.00    +0.002 C 
ATOM     20  C   UNL     1      -6.326  -1.598  33.559  0.00  0.00    +0.002 C 
ATOM     21  C   UNL     1      -5.637  -2.717  33.637  0.00  0.00    +0.022 C 
ENDBRANCH  14  17
BRANCH  15  22
ATOM     22  O   UNL     1      -2.331  -2.867  31.066  0.00  0.00    -0.465 OA
ATOM     23  H   UNL     1      -1.943  -3.716  31.144  0.00  0.00    +0.297 HD
ENDBRANCH  15  22
ENDBRANCH  11  14
ENDBRANCH   9  11
ENDBRANCH   2   9
BRANCH   1  24
ATOM     24  C   UNL     1      -1.128  -4.989  29.533  0.00  0.00    +0.161 C 
BRANCH  24  25
ATOM     25  N   UNL     1       0.281  -4.632  29.539  0.00  0.00    -0.248 N 
ATOM     26  C   UNL     1       1.123  -4.933  30.586  0.00  0.00    +0.171 C 
ATOM     27  N   UNL     1       2.351  -4.492  30.334  0.00  0.00    -0.209 NA
ATOM     28  C   UNL     1       2.317  -3.904  29.124  0.00  0.00    +0.164 A 
ATOM     29  C   UNL     1       1.011  -3.994  28.626  0.00  0.00    +0.145 A 
ATOM     30  C   UNL     1       0.721  -3.459  27.391  0.00  0.00    +0.278 A 
ATOM     31  O   UNL     1      -0.431  -3.509  26.897  0.00  0.00    -0.266 OA
ATOM     32  N   UNL     1       1.740  -2.865  26.721  0.00  0.00    -0.273 N 
ATOM     33  C   UNL     1       2.989  -2.780  27.197  0.00  0.00    +0.328 A 
ATOM     34  O   UNL     1       3.925  -2.214  26.533  0.00  0.00    -0.247 OA
ATOM     35  N   UNL     1       3.285  -3.304  28.413  0.00  0.00    -0.291 N 
ATOM     36  H   UNL     1       1.551  -2.475  25.837  0.00  0.00    +0.173 HD
ATOM     37  H   UNL     1       4.200  -3.245  28.770  0.00  0.00    +0.172 HD
ENDBRANCH  24  25
BRANCH  24  38
ATOM     38  N   UNL     1      -1.740  -5.074  28.254  0.00  0.00    -0.303 NA
ATOM     39  H   UNL     1      -1.737  -4.154  27.814  0.00  0.00    +0.121 HD
ATOM     40  H   UNL     1      -2.702  -5.397  28.358  0.00  0.00    +0.121 HD
ENDBRANCH  24  38
ENDBRANCH   1  24
TORSDOF 8
