REMARK  Name = =
REMARK  9 active torsions:
REMARK  status: ('A' for Active; 'I' for Inactive)
REMARK    1  A    between atoms: C_1  and  C_28
REMARK    2  A    between atoms: C_2  and  N_9
REMARK    3  A    between atoms: N_9  and  S_10
REMARK    4  A    between atoms: S_10  and  N_13
REMARK    5  A    between atoms: N_13  and  C_16
REMARK    6  A    between atoms: C_14  and  O_27
REMARK    7  A    between atoms: C_19  and  C_21
REMARK    8  A    between atoms: C_28  and  N_29
REMARK    9  A    between atoms: C_28  and  N_40
REMARK                            x       y       z     vdW  Elec       q    Type
REMARK                         _______ _______ _______ _____ _____    ______ ____
ROOT
ATOM      1  C   UNL     1      -1.473  -4.137  29.190  0.00  0.00    +0.068 C 
ATOM      2  C   UNL     1      -2.033  -4.409  30.342  0.00  0.00    +0.107 C 
ATOM      3  C   UNL     1      -2.148  -5.807  30.773  0.00  0.00    +0.210 C 
ATOM      4  O   UNL     1      -2.692  -6.046  31.889  0.00  0.00    -0.285 OA
ATOM      5  C   UNL     1      -1.640  -6.863  29.918  0.00  0.00    +0.047 C 
ATOM      6  C   UNL     1      -1.075  -6.584  28.753  0.00  0.00    +0.045 C 
ATOM      7  C   UNL     1      -0.950  -5.208  28.304  0.00  0.00    +0.196 C 
ATOM      8  O   UNL     1      -0.421  -4.905  27.204  0.00  0.00    -0.287 OA
ENDROOT
BRANCH   2   9
ATOM      9  N   UNL     1      -2.552  -3.385  31.169  0.00  0.00    -0.199 N 
ATOM     10  H   UNL     1      -1.991  -2.936  31.842  0.00  0.00    +0.175 HD
BRANCH   9  11
ATOM     11  S   UNL     1      -4.197  -2.959  30.950  0.00  0.00    +0.132 S 
ATOM     12  O   UNL     1      -4.781  -3.937  29.923  0.00  0.00    -0.135 OA
ATOM     13  O   UNL     1      -4.283  -1.586  30.276  0.00  0.00    -0.135 OA
BRANCH  11  14
ATOM     14  N   UNL     1      -5.150  -2.961  32.353  0.00  0.00    -0.107 N 
ATOM     15  C   UNL     1      -5.127  -4.010  33.295  0.00  0.00    +0.422 C 
ATOM     16  O   UNL     1      -5.879  -3.933  34.343  0.00  0.00    -0.225 OA
BRANCH  14  17
ATOM     17  C   UNL     1      -6.046  -1.828  32.618  0.00  0.00    +0.147 C 
ATOM     18  C   UNL     1      -6.418  -1.065  31.396  0.00  0.00    -0.000 C 
ATOM     19  C   UNL     1      -7.852  -1.428  31.131  0.00  0.00    +0.000 C 
ATOM     20  C   UNL     1      -8.316  -2.154  32.332  0.00  0.00    +0.033 C 
ATOM     21  C   UNL     1      -7.306  -2.371  33.146  0.00  0.00    +0.003 C 
BRANCH  20  22
ATOM     22  C   UNL     1      -9.688  -2.576  32.603  0.00  0.00    +0.162 C 
ATOM     23  N   UNL     1      -9.970  -3.572  33.458  0.00  0.00    -0.225 NA
ATOM     24  C   UNL     1     -11.215  -3.965  33.712  0.00  0.00    +0.102 C 
ATOM     25  C   UNL     1     -12.305  -3.342  33.087  0.00  0.00    +0.041 C 
ATOM     26  C   UNL     1     -12.017  -2.330  32.220  0.00  0.00    +0.102 C 
ATOM     27  N   UNL     1     -10.734  -1.976  32.001  0.00  0.00    -0.225 NA
ENDBRANCH  20  22
ENDBRANCH  14  17
BRANCH  15  28
ATOM     28  O   UNL     1      -4.333  -5.120  33.146  0.00  0.00    -0.465 OA
ATOM     29  H   UNL     1      -3.778  -5.202  32.396  0.00  0.00    +0.297 HD
ENDBRANCH  15  28
ENDBRANCH  11  14
ENDBRANCH   9  11
ENDBRANCH   2   9
BRANCH   1  30
ATOM     30  C   UNL     1      -1.314  -2.755  28.671  0.00  0.00    +0.161 C 
BRANCH  30  31
ATOM     31  N   UNL     1       0.139  -2.555  28.562  0.00  0.00    -0.248 N 
ATOM     32  C   UNL     1       0.979  -2.932  29.532  0.00  0.00    +0.171 C 
ATOM     33  N   UNL     1       2.221  -2.630  29.124  0.00  0.00    -0.209 NA
ATOM     34  C   UNL     1       2.141  -2.067  27.904  0.00  0.00    +0.164 A 
ATOM     35  C   UNL     1       0.790  -2.017  27.540  0.00  0.00    +0.145 A 
ATOM     36  C   UNL     1       0.404  -1.483  26.324  0.00  0.00    +0.278 A 
ATOM     37  O   UNL     1      -0.813  -1.448  26.021  0.00  0.00    -0.266 OA
ATOM     38  N   UNL     1       1.341  -1.007  25.488  0.00  0.00    -0.273 N 
ATOM     39  C   UNL     1       2.625  -1.059  25.841  0.00  0.00    +0.328 A 
ATOM     40  O   UNL     1       3.499  -0.607  25.039  0.00  0.00    -0.247 OA
ATOM     41  N   UNL     1       3.026  -1.580  27.032  0.00  0.00    -0.291 N 
ATOM     42  H   UNL     1       1.081  -0.622  24.620  0.00  0.00    +0.173 HD
ATOM     43  H   UNL     1       3.985  -1.598  27.254  0.00  0.00    +0.172 HD
ENDBRANCH  30  31
BRANCH  30  44
ATOM     44  N   UNL     1      -1.795  -1.749  29.587  0.00  0.00    -0.303 NA
ATOM     45  H   UNL     1      -2.804  -1.845  29.698  0.00  0.00    +0.121 HD
ATOM     46  H   UNL     1      -1.580  -0.823  29.218  0.00  0.00    +0.121 HD
ENDBRANCH  30  44
ENDBRANCH   1  30
TORSDOF 9
