REMARK  Name = =
REMARK  0 active torsions:
REMARK  status: ('A' for Active; 'I' for Inactive)
REMARK                            x       y       z     vdW  Elec       q    Type
REMARK                         _______ _______ _______ _____ _____    ______ ____
ROOT
ATOM      1  C   UNL     1      52.436 156.664  28.346  0.00  0.00    +0.099 C 
ATOM      2  C   UNL     1      52.607 155.800  27.287  0.00  0.00    +0.022 C 
ATOM      3  C   UNL     1      52.159 154.499  27.438  0.00  0.00    +0.022 C 
ATOM      4  C   UNL     1      51.564 154.134  28.639  0.00  0.00    +0.022 C 
ATOM      5  C   UNL     1      51.405 155.010  29.678  0.00  0.00    +0.099 C 
ATOM      6  N   UNL     1      51.847 156.269  29.512  0.00  0.00    -0.242 NA
ATOM      7  C   UNL     1      52.310 153.600  26.402  0.00  0.00    +0.099 C 
ATOM      8  N   UNL     1      52.898 153.991  25.239  0.00  0.00    -0.242 NA
ATOM      9  C   UNL     1      53.348 155.243  25.050  0.00  0.00    +0.099 C 
ATOM     10  C   UNL     1      53.197 156.159  26.095  0.00  0.00    +0.022 C 
ENDROOT
TORSDOF 0
