REMARK  Name = =
REMARK  0 active torsions:
REMARK  status: ('A' for Active; 'I' for Inactive)
REMARK                            x       y       z     vdW  Elec       q    Type
REMARK                         _______ _______ _______ _____ _____    ______ ____
ROOT
ATOM      1  C   UNL     1      51.715 155.241  28.304  0.00  0.00    +0.153 C 
ATOM      2  S   UNL     1      52.778 156.581  27.635  0.00  0.00    -0.117 S 
ATOM      3  C   UNL     1      53.437 155.617  26.216  0.00  0.00    +0.081 C 
ATOM      4  C   UNL     1      52.285 154.614  26.074  0.00  0.00    +0.106 C 
ATOM      5  N   UNL     1      51.986 154.150  27.403  0.00  0.00    -0.262 N 
ATOM      6  C   UNL     1      51.952 152.789  27.808  0.00  0.00    +0.304 C 
ATOM      7  O   UNL     1      52.195 151.862  26.993  0.00  0.00    -0.265 OA
ENDROOT
TORSDOF 0
