REMARK  Name = =
REMARK  0 active torsions:
REMARK  status: ('A' for Active; 'I' for Inactive)
REMARK                            x       y       z     vdW  Elec       q    Type
REMARK                         _______ _______ _______ _____ _____    ______ ____
ROOT
ATOM      1  C   UNL     1      49.870 156.139  29.943  0.00  0.00    -0.000 C 
ATOM      2  C   UNL     1      50.086 157.565  30.246  0.00  0.00    -0.004 C 
ATOM      3  C   UNL     1      51.180 158.055  29.568  0.00  0.00    -0.018 C 
ATOM      4  C   UNL     1      51.713 156.945  28.794  0.00  0.00    -0.004 C 
ATOM      5  C   UNL     1      50.958 155.812  29.001  0.00  0.00    -0.000 C 
ATOM      6  C   UNL     1      51.309 154.620  28.341  0.00  0.00    -0.000 C 
ATOM      7  C   UNL     1      52.393 154.632  27.513  0.00  0.00    -0.000 C 
ATOM      8  C   UNL     1      53.169 155.746  27.283  0.00  0.00    -0.000 C 
ATOM      9  C   UNL     1      52.821 156.910  27.932  0.00  0.00    -0.000 C 
ATOM     10  C   UNL     1      51.555 159.371  29.712  0.00  0.00    +0.052 C 
ATOM     11  C   UNL     1      50.824 160.201  30.547  0.00  0.00    -0.021 C 
ATOM     12  C   UNL     1      49.725 159.694  31.223  0.00  0.00    -0.004 C 
ATOM     13  C   UNL     1      49.336 158.382  31.091  0.00  0.00    -0.001 C 
ENDROOT
TORSDOF 0
