REMARK  Name = =
REMARK  1 active torsions:
REMARK  status: ('A' for Active; 'I' for Inactive)
REMARK    1  A    between atoms: C_1  and  N_14
REMARK                            x       y       z     vdW  Elec       q    Type
REMARK                         _______ _______ _______ _____ _____    ______ ____
ROOT
ATOM      1  C   UNL     1      53.061 155.107  28.504  0.00  0.00    +0.103 C 
ATOM      2  C   UNL     1      53.206 155.709  27.144  0.00  0.00    -0.004 C 
ATOM      3  C   UNL     1      52.678 154.807  26.232  0.00  0.00    -0.003 C 
ATOM      4  C   UNL     1      52.255 153.624  26.972  0.00  0.00    -0.003 C 
ATOM      5  C   UNL     1      52.511 153.777  28.313  0.00  0.00    -0.004 C 
ATOM      6  C   UNL     1      52.198 152.714  29.134  0.00  0.00    -0.003 C 
ATOM      7  C   UNL     1      51.649 151.544  28.636  0.00  0.00    -0.000 C 
ATOM      8  C   UNL     1      51.401 151.418  27.293  0.00  0.00    -0.000 C 
ATOM      9  C   UNL     1      51.701 152.450  26.456  0.00  0.00    -0.000 C 
ATOM     10  C   UNL     1      52.656 155.116  24.868  0.00  0.00    -0.000 C 
ATOM     11  C   UNL     1      53.157 156.312  24.405  0.00  0.00    -0.000 C 
ATOM     12  C   UNL     1      53.681 157.199  25.315  0.00  0.00    -0.000 C 
ATOM     13  C   UNL     1      53.699 156.888  26.669  0.00  0.00    -0.003 C 
ENDROOT
BRANCH   1  14
ATOM     14  N   UNL     1      52.258 156.011  29.306  0.00  0.00    -0.267 NA
ATOM     15  C   UNL     1      51.807 157.180  28.598  0.00  0.00    +0.073 C 
ATOM     16  C   UNL     1      51.049 158.056  29.611  0.00  0.00    +0.017 C 
ATOM     17  C   UNL     1      49.714 157.397  29.912  0.00  0.00    +0.003 C 
ATOM     18  C   UNL     1      49.771 155.994  29.390  0.00  0.00    +0.017 C 
ATOM     19  C   UNL     1      51.065 155.275  29.688  0.00  0.00    +0.073 C 
ENDBRANCH   1  14
TORSDOF 1
