REMARK  Name = =
REMARK  1 active torsions:
REMARK  status: ('A' for Active; 'I' for Inactive)
REMARK    1  A    between atoms: C_1  and  C_11
REMARK                            x       y       z     vdW  Elec       q    Type
REMARK                         _______ _______ _______ _____ _____    ______ ____
ROOT
ATOM      1  C   UNL     1      51.854 155.949  28.785  0.00  0.00    +0.067 C 
ATOM      2  C   UNL     1      52.368 155.651  27.541  0.00  0.00    +0.017 C 
ATOM      3  C   UNL     1      52.665 154.313  27.366  0.00  0.00    +0.022 C 
ATOM      4  C   UNL     1      52.417 153.492  28.324  0.00  0.00    +0.022 C 
ATOM      5  C   UNL     1      51.940 153.796  29.610  0.00  0.00    +0.099 C 
ATOM      6  N   UNL     1      51.688 155.164  29.688  0.00  0.00    -0.248 NA
ATOM      7  C   UNL     1      53.400 153.977  26.259  0.00  0.00    +0.099 C 
ATOM      8  N   UNL     1      53.824 154.886  25.396  0.00  0.00    -0.242 NA
ATOM      9  C   UNL     1      53.523 156.180  25.602  0.00  0.00    +0.099 C 
ATOM     10  C   UNL     1      52.790 156.566  26.646  0.00  0.00    +0.022 C 
ENDROOT
BRANCH   1  11
ATOM     11  C   UNL     1      51.231 157.370  28.909  0.00  0.00    +0.117 C 
ATOM     12  C   UNL     1      49.953 157.316  29.720  0.00  0.00    +0.233 C 
ATOM     13  O   UNL     1      49.202 156.397  29.568  0.00  0.00    -0.274 OA
ATOM     14  N   UNL     1      49.701 158.337  30.637  0.00  0.00    -0.255 N 
ATOM     15  C   UNL     1      50.624 159.418  30.794  0.00  0.00    +0.228 C 
ATOM     16  O   UNL     1      50.433 160.225  31.729  0.00  0.00    -0.275 OA
ATOM     17  C   UNL     1      51.828 159.500  29.901  0.00  0.00    +0.086 C 
ATOM     18  C   UNL     1      52.276 158.084  29.751  0.00  0.00    +0.025 C 
ATOM     19  H   UNL     1      48.881 158.313  31.181  0.00  0.00    +0.158 HD
ENDBRANCH   1  11
TORSDOF 1
