REMARK  Name = =
REMARK  4 active torsions:
REMARK  status: ('A' for Active; 'I' for Inactive)
REMARK    1  A    between atoms: C_1  and  C_11
REMARK    2  A    between atoms: C_1  and  O_15
REMARK    3  A    between atoms: O_15  and  C_16
REMARK    4  A    between atoms: C_17  and  O_24
REMARK                            x       y       z     vdW  Elec       q    Type
REMARK                         _______ _______ _______ _____ _____    ______ ____
ROOT
ATOM      1  C   UNL     1      53.018 155.580  26.450  0.00  0.00    +0.265 C 
ATOM      2  S   UNL     1      54.873 155.642  26.393  0.00  0.00    -0.077 S 
ATOM      3  C   UNL     1      55.007 155.720  24.563  0.00  0.00    +0.084 C 
ATOM      4  C   UNL     1      53.524 155.626  24.175  0.00  0.00    +0.110 C 
ATOM      5  N   UNL     1      52.808 156.310  25.221  0.00  0.00    -0.231 N 
ATOM      6  C   UNL     1      52.056 157.474  25.067  0.00  0.00    +0.306 C 
ATOM      7  O   UNL     1      51.933 158.042  23.934  0.00  0.00    -0.265 OA
ENDROOT
BRANCH   1  11
ATOM      8  O   UNL     1      51.277 156.792  29.531  0.00  0.00    -0.421 OA
ATOM      9  C   UNL     1      51.544 155.821  28.549  0.00  0.00    +0.348 C 
ATOM     10  O   UNL     1      50.975 154.682  28.555  0.00  0.00    -0.245 OA
ATOM     11  C   UNL     1      52.523 156.339  27.604  0.00  0.00    +0.121 C 
ATOM     12  C   UNL     1      52.804 157.553  28.027  0.00  0.00    +0.046 C 
ATOM     13  C   UNL     1      52.055 157.892  29.227  0.00  0.00    +0.149 C 
ATOM     14  C   UNL     1      52.091 159.030  29.921  0.00  0.00    +0.041 C 
ENDBRANCH   1  11
BRANCH   1  15
ATOM     15  O   UNL     1      52.659 154.247  26.372  0.00  0.00    -0.447 OA
BRANCH  15  16
ATOM     16  C   UNL     1      53.417 153.183  25.954  0.00  0.00    +0.217 C 
ATOM     17  C   UNL     1      53.320 152.746  24.686  0.00  0.00    +0.211 C 
ATOM     18  C   UNL     1      54.094 151.623  24.170  0.00  0.00    +0.232 C 
ATOM     19  O   UNL     1      53.947 151.273  22.966  0.00  0.00    -0.283 OA
ATOM     20  C   UNL     1      55.016 150.936  25.065  0.00  0.00    +0.049 C 
ATOM     21  C   UNL     1      55.154 151.320  26.322  0.00  0.00    +0.049 C 
ATOM     22  C   UNL     1      54.351 152.463  26.807  0.00  0.00    +0.233 C 
ATOM     23  O   UNL     1      54.513 152.795  28.020  0.00  0.00    -0.283 OA
BRANCH  17  24
ATOM     24  O   UNL     1      52.449 153.395  23.851  0.00  0.00    -0.501 OA
ATOM     25  H   UNL     1      51.945 154.118  24.170  0.00  0.00    +0.292 HD
ENDBRANCH  17  24
ENDBRANCH  15  16
ENDBRANCH   1  15
TORSDOF 4
