REMARK  Name = =
REMARK  3 active torsions:
REMARK  status: ('A' for Active; 'I' for Inactive)
REMARK    1  A    between atoms: C_1  and  N_14
REMARK    2  A    between atoms: C_1  and  C_20
REMARK    3  A    between atoms: C_21  and  O_26
REMARK                            x       y       z     vdW  Elec       q    Type
REMARK                         _______ _______ _______ _____ _____    ______ ____
ROOT
ATOM      1  C   UNL     1      53.165 154.479  26.192  0.00  0.00    +0.106 C 
ATOM      2  C   UNL     1      52.535 153.224  26.712  0.00  0.00    -0.002 C 
ATOM      3  C   UNL     1      52.034 153.405  27.958  0.00  0.00    -0.002 C 
ATOM      4  C   UNL     1      52.334 154.749  28.403  0.00  0.00    -0.002 C 
ATOM      5  C   UNL     1      53.032 155.390  27.403  0.00  0.00    -0.002 C 
ATOM      6  C   UNL     1      53.456 156.675  27.638  0.00  0.00    -0.002 C 
ATOM      7  C   UNL     1      53.169 157.271  28.855  0.00  0.00    -0.000 C 
ATOM      8  C   UNL     1      52.472 156.639  29.851  0.00  0.00    -0.000 C 
ATOM      9  C   UNL     1      52.041 155.357  29.637  0.00  0.00    -0.000 C 
ATOM     10  C   UNL     1      51.385 152.365  28.615  0.00  0.00    -0.000 C 
ATOM     11  C   UNL     1      51.236 151.128  28.023  0.00  0.00    -0.000 C 
ATOM     12  C   UNL     1      51.740 150.925  26.762  0.00  0.00    -0.000 C 
ATOM     13  C   UNL     1      52.367 151.954  26.140  0.00  0.00    -0.002 C 
ENDROOT
BRANCH   1  14
ATOM     14  N   UNL     1      54.520 154.277  25.923  0.00  0.00    -0.265 NA
ATOM     15  C   UNL     1      55.068 154.562  24.662  0.00  0.00    +0.073 C 
ATOM     16  C   UNL     1      56.555 154.896  24.898  0.00  0.00    +0.017 C 
ATOM     17  C   UNL     1      57.295 153.774  25.545  0.00  0.00    +0.003 C 
ATOM     18  C   UNL     1      56.334 152.631  25.778  0.00  0.00    +0.017 C 
ATOM     19  C   UNL     1      55.143 153.159  26.544  0.00  0.00    +0.073 C 
ENDBRANCH   1  14
BRANCH   1  20
ATOM     20  C   UNL     1      52.325 154.967  25.061  0.00  0.00    +0.032 C 
ATOM     21  C   UNL     1      52.528 156.151  24.420  0.00  0.00    +0.131 C 
ATOM     22  C   UNL     1      51.684 156.623  23.404  0.00  0.00    +0.036 C 
ATOM     23  C   UNL     1      50.594 155.874  23.018  0.00  0.00    +0.003 C 
ATOM     24  C   UNL     1      50.373 154.675  23.653  0.00  0.00    -0.000 C 
ATOM     25  C   UNL     1      51.218 154.232  24.652  0.00  0.00    +0.001 C 
BRANCH  21  26
ATOM     26  O   UNL     1      53.586 156.969  24.719  0.00  0.00    -0.506 OA
ATOM     27  H   UNL     1      54.195 156.722  25.387  0.00  0.00    +0.292 HD
ENDBRANCH  21  26
ENDBRANCH   1  20
TORSDOF 3
