REMARK  Name = =
REMARK  2 active torsions:
REMARK  status: ('A' for Active; 'I' for Inactive)
REMARK    1  A    between atoms: C_1  and  C_9
REMARK    2  A    between atoms: C_1  and  C_19
REMARK                            x       y       z     vdW  Elec       q    Type
REMARK                         _______ _______ _______ _____ _____    ______ ____
ROOT
ATOM      1  C   UNL     1      52.256 154.407  27.648  0.00  0.00    +0.121 C 
ATOM      2  C   UNL     1      53.084 153.514  28.437  0.00  0.00    +0.236 C 
ATOM      3  O   UNL     1      54.325 153.663  28.728  0.00  0.00    -0.274 OA
ATOM      4  N   UNL     1      52.540 152.283  29.004  0.00  0.00    -0.255 N 
ATOM      5  C   UNL     1      51.727 151.497  28.116  0.00  0.00    +0.228 C 
ATOM      6  O   UNL     1      51.139 150.478  28.493  0.00  0.00    -0.275 OA
ATOM      7  C   UNL     1      51.714 152.091  26.750  0.00  0.00    +0.087 C 
ATOM      8  C   UNL     1      51.223 153.481  26.939  0.00  0.00    +0.028 C 
ATOM      9  H   UNL     1      52.718 152.009  29.933  0.00  0.00    +0.158 HD
ENDROOT
BRANCH   1  10
ATOM     10  C   UNL     1      51.383 155.336  28.406  0.00  0.00    +0.070 C 
ATOM     11  C   UNL     1      51.786 156.593  28.863  0.00  0.00    +0.017 C 
ATOM     12  C   UNL     1      50.915 157.439  29.548  0.00  0.00    +0.022 C 
ATOM     13  C   UNL     1      49.604 157.047  29.798  0.00  0.00    +0.022 C 
ATOM     14  C   UNL     1      49.238 155.823  29.344  0.00  0.00    +0.099 C 
ATOM     15  N   UNL     1      50.080 155.044  28.701  0.00  0.00    -0.247 NA
ATOM     16  C   UNL     1      51.377 158.669  29.986  0.00  0.00    +0.099 C 
ATOM     17  N   UNL     1      52.649 159.037  29.752  0.00  0.00    -0.242 NA
ATOM     18  C   UNL     1      53.501 158.236  29.096  0.00  0.00    +0.099 C 
ATOM     19  C   UNL     1      53.066 156.991  28.642  0.00  0.00    +0.022 C 
ENDBRANCH   1  10
BRANCH   1  20
ATOM     20  C   UNL     1      52.880 155.004  26.437  0.00  0.00    -0.018 C 
ATOM     21  C   UNL     1      52.548 156.256  26.140  0.00  0.00    -0.031 C 
ATOM     22  C   UNL     1      53.175 156.852  24.926  0.00  0.00    +0.044 C 
ATOM     23  C   UNL     1      54.626 156.487  24.952  0.00  0.00    +0.094 C 
ATOM     24  N   UNL     1      54.878 155.091  25.023  0.00  0.00    -0.213 NA
ATOM     25  C   UNL     1      53.771 154.290  25.522  0.00  0.00    +0.111 C 
ENDBRANCH   1  20
TORSDOF 2
