REMARK  Name = =
REMARK  4 active torsions:
REMARK  status: ('A' for Active; 'I' for Inactive)
REMARK    1  A    between atoms: C_1  and  N_14
REMARK    2  A    between atoms: C_1  and  C_20
REMARK    3  A    between atoms: C_21  and  O_26
REMARK    4  A    between atoms: O_26  and  C_27
REMARK                            x       y       z     vdW  Elec       q    Type
REMARK                         _______ _______ _______ _____ _____    ______ ____
ROOT
ATOM      1  C   UNL     1      53.755 153.049  26.238  0.00  0.00    +0.118 C 
ATOM      2  C   UNL     1      55.238 152.857  26.188  0.00  0.00    +0.002 C 
ATOM      3  C   UNL     1      55.453 151.548  25.794  0.00  0.00    -0.002 C 
ATOM      4  C   UNL     1      54.173 150.819  25.650  0.00  0.00    -0.002 C 
ATOM      5  C   UNL     1      53.205 151.721  25.965  0.00  0.00    +0.002 C 
ATOM      6  C   UNL     1      51.894 151.220  25.945  0.00  0.00    -0.002 C 
ATOM      7  C   UNL     1      51.615 149.910  25.626  0.00  0.00    -0.000 C 
ATOM      8  C   UNL     1      52.625 149.052  25.319  0.00  0.00    -0.000 C 
ATOM      9  C   UNL     1      53.913 149.503  25.328  0.00  0.00    -0.000 C 
ATOM     10  C   UNL     1      56.751 151.092  25.636  0.00  0.00    -0.000 C 
ATOM     11  C   UNL     1      57.867 151.871  25.851  0.00  0.00    -0.000 C 
ATOM     12  C   UNL     1      57.608 153.160  26.243  0.00  0.00    -0.000 C 
ATOM     13  C   UNL     1      56.334 153.650  26.409  0.00  0.00    -0.002 C 
ENDROOT
BRANCH   1  14
ATOM     14  N   UNL     1      53.425 153.481  27.607  0.00  0.00    -0.300 N 
ATOM     15  C   UNL     1      53.749 152.489  28.556  0.00  0.00    +0.057 C 
ATOM     16  C   UNL     1      52.938 152.374  29.784  0.00  0.00    -0.010 C 
ATOM     17  C   UNL     1      51.913 153.425  30.021  0.00  0.00    +0.029 C 
ATOM     18  C   UNL     1      51.208 153.664  28.705  0.00  0.00    +0.026 C 
ATOM     19  C   UNL     1      52.216 154.173  27.709  0.00  0.00    +0.092 C 
ENDBRANCH   1  14
BRANCH   1  20
ATOM     20  C   UNL     1      53.313 154.048  25.288  0.00  0.00    +0.036 C 
ATOM     21  C   UNL     1      53.146 155.375  25.569  0.00  0.00    +0.136 C 
ATOM     22  C   UNL     1      52.842 156.236  24.509  0.00  0.00    +0.037 C 
ATOM     23  C   UNL     1      52.702 155.803  23.204  0.00  0.00    +0.003 C 
ATOM     24  C   UNL     1      52.866 154.470  22.919  0.00  0.00    -0.000 C 
ATOM     25  C   UNL     1      53.167 153.621  23.957  0.00  0.00    +0.001 C 
BRANCH  21  26
ATOM     26  O   UNL     1      53.240 155.934  26.798  0.00  0.00    -0.479 OA
BRANCH  26  27
ATOM     27  C   UNL     1      53.195 157.235  27.231  0.00  0.00    +0.166 C 
ATOM     28  C   UNL     1      51.724 157.547  27.601  0.00  0.00    +0.044 C 
ATOM     29  C   UNL     1      51.588 157.132  29.044  0.00  0.00    +0.004 C 
ATOM     30  C   UNL     1      52.984 156.813  29.527  0.00  0.00    +0.004 C 
ATOM     31  C   UNL     1      53.847 157.544  28.542  0.00  0.00    +0.044 C 
ENDBRANCH  26  27
ENDBRANCH  21  26
ENDBRANCH   1  20
TORSDOF 4
