REMARK  Name = =
REMARK  6 active torsions:
REMARK  status: ('A' for Active; 'I' for Inactive)
REMARK    1  A    between atoms: C_1  and  C_7
REMARK    2  A    between atoms: C_2  and  O_26
REMARK    3  A    between atoms: C_7  and  N_20
REMARK    4  A    between atoms: O_26  and  C_27
REMARK    5  A    between atoms: C_27  and  C_32
REMARK    6  A    between atoms: C_33  and  O_44
REMARK                            x       y       z     vdW  Elec       q    Type
REMARK                         _______ _______ _______ _____ _____    ______ ____
ROOT
ATOM      1  C   UNL     1      53.236 154.551  25.608  0.00  0.00    +0.032 C 
ATOM      2  C   UNL     1      52.995 155.709  26.311  0.00  0.00    +0.136 C 
ATOM      3  C   UNL     1      52.720 156.914  25.626  0.00  0.00    +0.037 C 
ATOM      4  C   UNL     1      52.689 156.928  24.263  0.00  0.00    +0.003 C 
ATOM      5  C   UNL     1      52.927 155.773  23.550  0.00  0.00    -0.000 C 
ATOM      6  C   UNL     1      53.196 154.596  24.193  0.00  0.00    +0.001 C 
ENDROOT
BRANCH   1   7
ATOM      7  C   UNL     1      53.588 153.282  26.252  0.00  0.00    +0.106 C 
ATOM      8  C   UNL     1      55.064 153.098  26.445  0.00  0.00    -0.002 C 
ATOM      9  C   UNL     1      55.293 152.519  27.666  0.00  0.00    -0.002 C 
ATOM     10  C   UNL     1      54.034 152.403  28.366  0.00  0.00    -0.002 C 
ATOM     11  C   UNL     1      53.028 152.923  27.551  0.00  0.00    -0.002 C 
ATOM     12  C   UNL     1      51.726 152.950  28.048  0.00  0.00    -0.002 C 
ATOM     13  C   UNL     1      51.466 152.468  29.313  0.00  0.00    -0.000 C 
ATOM     14  C   UNL     1      52.480 151.952  30.108  0.00  0.00    -0.000 C 
ATOM     15  C   UNL     1      53.771 151.918  29.634  0.00  0.00    -0.000 C 
ATOM     16  C   UNL     1      56.590 152.210  28.081  0.00  0.00    -0.000 C 
ATOM     17  C   UNL     1      57.665 152.482  27.275  0.00  0.00    -0.000 C 
ATOM     18  C   UNL     1      57.450 153.064  26.052  0.00  0.00    -0.000 C 
ATOM     19  C   UNL     1      56.164 153.358  25.666  0.00  0.00    -0.002 C 
BRANCH   7  20
ATOM     20  N   UNL     1      53.212 152.153  25.412  0.00  0.00    -0.265 NA
ATOM     21  C   UNL     1      53.837 151.875  24.226  0.00  0.00    +0.073 C 
ATOM     22  C   UNL     1      54.715 150.621  24.440  0.00  0.00    +0.017 C 
ATOM     23  C   UNL     1      53.742 149.492  24.735  0.00  0.00    +0.003 C 
ATOM     24  C   UNL     1      52.384 149.951  25.142  0.00  0.00    +0.017 C 
ATOM     25  C   UNL     1      52.370 151.198  25.999  0.00  0.00    +0.073 C 
ENDBRANCH   7  20
ENDBRANCH   1   7
BRANCH   2  26
ATOM     26  O   UNL     1      52.987 155.808  27.674  0.00  0.00    -0.479 OA
BRANCH  26  27
ATOM     27  C   UNL     1      51.942 155.966  28.560  0.00  0.00    +0.158 C 
ATOM     28  C   UNL     1      52.156 155.004  29.760  0.00  0.00    +0.045 C 
ATOM     29  C   UNL     1      50.942 155.348  30.594  0.00  0.00    +0.004 C 
ATOM     30  C   UNL     1      49.833 155.582  29.562  0.00  0.00    +0.004 C 
ATOM     31  C   UNL     1      50.583 155.471  28.259  0.00  0.00    +0.045 C 
BRANCH  27  32
ATOM     32  C   UNL     1      51.928 157.350  29.145  0.00  0.00    +0.089 C 
ATOM     33  C   UNL     1      50.824 157.936  29.581  0.00  0.00    +0.175 C 
ATOM     34  C   UNL     1      50.806 159.296  30.153  0.00  0.00    +0.229 C 
ATOM     35  O   UNL     1      49.733 159.814  30.560  0.00  0.00    -0.283 OA
ATOM     36  C   UNL     1      52.018 160.080  30.267  0.00  0.00    +0.045 C 
ATOM     37  C   UNL     1      53.178 159.481  29.810  0.00  0.00    +0.042 C 
ATOM     38  C   UNL     1      54.340 160.223  29.914  0.00  0.00    +0.003 C 
ATOM     39  C   UNL     1      54.353 161.496  30.445  0.00  0.00    +0.000 C 
ATOM     40  C   UNL     1      53.191 162.080  30.896  0.00  0.00    +0.000 C 
ATOM     41  C   UNL     1      52.031 161.355  30.798  0.00  0.00    +0.003 C 
ATOM     42  C   UNL     1      53.164 158.111  29.242  0.00  0.00    +0.198 C 
ATOM     43  O   UNL     1      54.293 157.718  28.871  0.00  0.00    -0.287 OA
BRANCH  33  44
ATOM     44  O   UNL     1      49.600 157.283  29.507  0.00  0.00    -0.503 OA
ATOM     45  H   UNL     1      49.552 156.417  29.152  0.00  0.00    +0.292 HD
ENDBRANCH  33  44
ENDBRANCH  27  32
ENDBRANCH  26  27
ENDBRANCH   2  26
TORSDOF 6
