#      Rotatable Fragment
#      Build by yxyuan
#
# Name:          frag5-613-94/138278
# Creation time: Sat Jun  5 12:53:47 2010


@<TRIPOS>MOLECULE
frag5-613-94/138278
   13    13     1     1     1
SMALL
USER_CHARGES


@<TRIPOS>ATOM
      1 C3         -1.2675   -0.0430   -0.0522 C.ar       1 <1>        0.000
      2 C9         -2.4910    0.6336   -0.0158 C.ar       1 <1>        0.000
      3 C10        -1.2379   -1.4388   -0.0789 C.ar       1 <1>        0.000
      4 C13        -3.6814   -0.0942    0.0191 C.ar       1 <1>        0.000
      5 F1         -2.5188    1.9665   -0.0142 F          1 <1>        0.000
      6 C14        -2.4350   -2.1558   -0.0430 C.ar       1 <1>        0.000
      7 C17        -3.6688   -1.4979    0.0351 C.ar       1 <1>        0.000
      8 O1         -4.8382   -2.2319    0.1243 O.3        1 <1>        0.000
      9 H          -0.3346    0.5207   -0.0597 H.spc      1 <1>        0.000
     10 H          -0.2850   -1.9657   -0.1275 H.spc      1 <1>        0.000
     11 H          -4.6343    0.4348    0.0341 H.spc      1 <1>        0.000
     12 H          -2.4091   -3.2450   -0.0763 H.spc      1 <1>        0.000
     13 H          -4.6278   -3.1686    0.1211 H.spc      1 <1>        0.000
@<TRIPOS>BOND
     1    1    2 ar 
     2    1    3 ar 
     3    2    4 ar 
     4    2    5 1  
     5    3    6 ar 
     6    4    7 ar 
     7    6    7 ar 
     8    7    8 1  
     9    1    9 1  
    10    3   10 1  
    11    4   11 1  
    12    6   12 1  
    13    8   13 1  
# Name:          frag5-613-94/138278 -- energy: -0.070209
# Creation time: Sat Jun  5 12:53:47 2010


@<TRIPOS>MOLECULE
frag5-613-94/138278 -- energy: -0.070209
   13    13     1     1     1
SMALL
USER_CHARGES


@<TRIPOS>ATOM
      1 C3         -1.2675   -0.0430   -0.0522 C.ar       1 <1>        0.000
      2 C9         -2.4910    0.6336   -0.0158 C.ar       1 <1>        0.000
      3 C10        -1.2379   -1.4388   -0.0789 C.ar       1 <1>        0.000
      4 C13        -3.6814   -0.0942    0.0191 C.ar       1 <1>        0.000
      5 F1         -2.5188    1.9665   -0.0142 F          1 <1>        0.000
      6 C14        -2.4350   -2.1558   -0.0430 C.ar       1 <1>        0.000
      7 C17        -3.6688   -1.4979    0.0351 C.ar       1 <1>        0.000
      8 O1         -4.8382   -2.2319    0.1243 O.3        1 <1>        0.000
      9 H          -0.3346    0.5207   -0.0597 H.spc      1 <1>        0.000
     10 H          -0.2850   -1.9657   -0.1275 H.spc      1 <1>        0.000
     11 H          -4.6343    0.4348    0.0341 H.spc      1 <1>        0.000
     12 H          -2.4091   -3.2450   -0.0763 H.spc      1 <1>        0.000
     13 H          -4.6278   -3.1686    0.1211 H.spc      1 <1>        0.000
@<TRIPOS>BOND
     1    1    2 ar 
     2    1    3 ar 
     3    2    4 ar 
     4    2    5 1  
     5    3    6 ar 
     6    4    7 ar 
     7    6    7 ar 
     8    7    8 1  
     9    1    9 1  
    10    3   10 1  
    11    4   11 1  
    12    6   12 1  
    13    8   13 1  
