#      Rotatable Fragment
#      Build by yxyuan
#
# Name:          frag4-402-198/150395
# Creation time: Sat Jun  5 12:53:34 2010


@<TRIPOS>MOLECULE
frag4-402-198/150395
   13    13     1     1     1
SMALL
USER_CHARGES


@<TRIPOS>ATOM
      1 C2          0.6422   -0.1761   -0.0130 C.3        1 <1>        0.000
      2 C5         -0.4173   -1.2334   -0.0200 C.2        1 <1>        0.000
      3 C6          1.9035   -1.0165   -0.2865 C.3        1 <1>        0.000
      4 C9          0.1007   -2.4582    0.1328 C.2        1 <1>        0.000
      5 C10         1.5912   -2.4197    0.2664 C.3        1 <1>        0.000
      6 H           0.6871    0.3951    0.9143 H.spc      1 <1>        0.000
      7 H           0.4762    0.6174   -0.7416 H.spc      1 <1>        0.000
      8 H          -1.4820   -1.0305   -0.1356 H.spc      1 <1>        0.000
      9 H           2.7824   -0.5851    0.1925 H.spc      1 <1>        0.000
     10 H           2.1383   -1.0497   -1.3504 H.spc      1 <1>        0.000
     11 H          -0.4913   -3.3731    0.1570 H.spc      1 <1>        0.000
     12 H           1.9456   -2.5800    1.2846 H.spc      1 <1>        0.000
     13 H           2.1010   -3.2245   -0.2633 H.spc      1 <1>        0.000
@<TRIPOS>BOND
     1    1    2 1  
     2    1    3 1  
     3    2    4 2  
     4    3    5 1  
     5    4    5 1  
     6    1    6 1  
     7    1    7 1  
     8    2    8 1  
     9    3    9 1  
    10    3   10 1  
    11    4   11 1  
    12    5   12 1  
    13    5   13 1  
# Name:          frag4-402-198/150395 -- energy: -0.682946
# Creation time: Sat Jun  5 12:53:34 2010


@<TRIPOS>MOLECULE
frag4-402-198/150395 -- energy: -0.682946
   13    13     1     1     1
SMALL
USER_CHARGES


@<TRIPOS>ATOM
      1 C2          0.6422   -0.1761   -0.0130 C.3        1 <1>        0.000
      2 C5         -0.4173   -1.2334   -0.0200 C.2        1 <1>        0.000
      3 C6          1.9035   -1.0165   -0.2865 C.3        1 <1>        0.000
      4 C9          0.1007   -2.4582    0.1328 C.2        1 <1>        0.000
      5 C10         1.5912   -2.4197    0.2664 C.3        1 <1>        0.000
      6 H           0.6871    0.3951    0.9143 H.spc      1 <1>        0.000
      7 H           0.4762    0.6174   -0.7416 H.spc      1 <1>        0.000
      8 H          -1.4820   -1.0305   -0.1356 H.spc      1 <1>        0.000
      9 H           2.7824   -0.5851    0.1925 H.spc      1 <1>        0.000
     10 H           2.1383   -1.0497   -1.3504 H.spc      1 <1>        0.000
     11 H          -0.4913   -3.3731    0.1570 H.spc      1 <1>        0.000
     12 H           1.9456   -2.5800    1.2846 H.spc      1 <1>        0.000
     13 H           2.1010   -3.2245   -0.2633 H.spc      1 <1>        0.000
@<TRIPOS>BOND
     1    1    2 1  
     2    1    3 1  
     3    2    4 2  
     4    3    5 1  
     5    4    5 1  
     6    1    6 1  
     7    1    7 1  
     8    2    8 1  
     9    3    9 1  
    10    3   10 1  
    11    4   11 1  
    12    5   12 1  
    13    5   13 1  
