#      Rotatable Fragment
#      Build by yxyuan
#
# Name:          frag3-208-8/96164
# Creation time: Sat Jun  5 12:53:10 2010


@<TRIPOS>MOLECULE
frag3-208-8/96164
    9     8     1     1     1
SMALL
USER_CHARGES


@<TRIPOS>ATOM
      1 C15         1.2635   -0.6444   -0.1757 C.2        1 <1>        0.000
      2 C18         2.6140    0.1496   -0.0314 C.2        1 <1>        0.000
      3 O2          1.2037   -1.8683   -0.1575 O.2        1 <1>        0.000
      4 N3          3.5970   -0.5240    0.5121 N.am       1 <1>        0.000
      5 O3          2.6407    1.2893   -0.4578 O.2        1 <1>        0.000
      6 O4          3.6051   -1.8111    0.9178 O.3        1 <1>        0.000
      7 H           0.3389   -0.0802   -0.2974 H.spc      1 <1>        0.000
      8 H           4.4678   -0.0100    0.6458 H.spc      1 <1>        0.000
      9 H           4.4687   -2.0266    1.2775 H.spc      1 <1>        0.000
@<TRIPOS>BOND
     1    1    2 1  
     2    1    3 2  
     3    2    4 am 
     4    2    5 2  
     5    4    6 1  
     6    1    7 1  
     7    4    8 1  
     8    6    9 1  
# Name:          frag3-208-8/96164
# Creation time: Sat Jun  5 12:53:10 2010


@<TRIPOS>MOLECULE
frag3-208-8/96164
    9     8     1     1     1
SMALL
USER_CHARGES


@<TRIPOS>ATOM
      1 C15         1.6643   -1.1784   -0.4954 C.2        1 <1>        0.000
      2 C18         2.6566   -0.0516   -0.0366 C.2        1 <1>        0.000
      3 O2          0.4900   -1.1029   -0.1772 O.2        1 <1>        0.000
      4 N3          3.7294   -0.4567    0.6147 N.am       1 <1>        0.000
      5 O3          2.3317    1.0891   -0.3126 O.2        1 <1>        0.000
      6 O4          4.0521   -1.7083    1.0146 O.3        1 <1>        0.000
      7 H           2.0212   -2.0183   -1.0914 H.spc      1 <1>        0.000
      8 H           4.4058    0.2702    0.8480 H.spc      1 <1>        0.000
      9 H           4.8984   -1.6901    1.4674 H.spc      1 <1>        0.000
@<TRIPOS>BOND
     1    1    2 1  
     2    1    3 2  
     3    2    4 am 
     4    2    5 2  
     5    4    6 1  
     6    1    7 1  
     7    4    8 1  
     8    6    9 1  
# Name:          frag3-208-8/96164
# Creation time: Sat Jun  5 12:53:10 2010


@<TRIPOS>MOLECULE
frag3-208-8/96164
    9     8     1     1     1
SMALL
USER_CHARGES


@<TRIPOS>ATOM
      1 C15         1.2293   -1.1684   -0.0620 C.2        1 <1>        0.000
      2 C18         2.5105   -0.4408    0.1271 C.2        1 <1>        0.000
      3 O2          0.3815   -0.6914   -0.7918 O.2        1 <1>        0.000
      4 N3          3.4355   -1.0663    0.8496 N.am       1 <1>        0.000
      5 O3          2.6487    0.6353   -0.4341 O.2        1 <1>        0.000
      6 O4          4.7185   -0.6772    0.9187 O.3        1 <1>        0.000
      7 H           1.0516   -2.1162    0.4461 H.spc      1 <1>        0.000
      8 H           3.1538   -1.8894    1.3821 H.spc      1 <1>        0.000
      9 H           5.2018   -1.2730    1.4959 H.spc      1 <1>        0.000
@<TRIPOS>BOND
     1    1    2 1  
     2    1    3 2  
     3    2    4 am 
     4    2    5 2  
     5    4    6 1  
     6    1    7 1  
     7    4    8 1  
     8    6    9 1  
# Name:          frag3-208-8/96164 -- energy: -0.196552
# Creation time: Sat Jun  5 12:53:10 2010


@<TRIPOS>MOLECULE
frag3-208-8/96164 -- energy: -0.196552
    9     8     1     1     1
SMALL
USER_CHARGES


@<TRIPOS>ATOM
      1 C15         1.2635   -0.6444   -0.1757 C.2        1 <1>        0.000
      2 C18         2.6140    0.1496   -0.0314 C.2        1 <1>        0.000
      3 O2          1.2037   -1.8683   -0.1575 O.2        1 <1>        0.000
      4 N3          3.5970   -0.5240    0.5121 N.am       1 <1>        0.000
      5 O3          2.6407    1.2893   -0.4578 O.2        1 <1>        0.000
      6 O4          3.6051   -1.8111    0.9178 O.3        1 <1>        0.000
      7 H           0.3389   -0.0802   -0.2974 H.spc      1 <1>        0.000
      8 H           4.4678   -0.0100    0.6458 H.spc      1 <1>        0.000
      9 H           4.4687   -2.0266    1.2775 H.spc      1 <1>        0.000
@<TRIPOS>BOND
     1    1    2 1  
     2    1    3 2  
     3    2    4 am 
     4    2    5 2  
     5    4    6 1  
     6    1    7 1  
     7    4    8 1  
     8    6    9 1  
# Name:          frag3-208-8/96164 -- energy: -0.414353
# Creation time: Sat Jun  5 12:53:10 2010


@<TRIPOS>MOLECULE
frag3-208-8/96164 -- energy: -0.414353
    9     8     1     1     1
SMALL
USER_CHARGES


@<TRIPOS>ATOM
      1 C15         1.6643   -1.1784   -0.4954 C.2        1 <1>        0.000
      2 C18         2.6566   -0.0516   -0.0366 C.2        1 <1>        0.000
      3 O2          0.4900   -1.1029   -0.1772 O.2        1 <1>        0.000
      4 N3          3.7294   -0.4567    0.6147 N.am       1 <1>        0.000
      5 O3          2.3317    1.0891   -0.3126 O.2        1 <1>        0.000
      6 O4          4.0521   -1.7083    1.0146 O.3        1 <1>        0.000
      7 H           2.0212   -2.0183   -1.0914 H.spc      1 <1>        0.000
      8 H           4.4058    0.2702    0.8480 H.spc      1 <1>        0.000
      9 H           4.8984   -1.6901    1.4674 H.spc      1 <1>        0.000
@<TRIPOS>BOND
     1    1    2 1  
     2    1    3 2  
     3    2    4 am 
     4    2    5 2  
     5    4    6 1  
     6    1    7 1  
     7    4    8 1  
     8    6    9 1  
# Name:          frag3-208-8/96164 -- energy: -0.272876
# Creation time: Sat Jun  5 12:53:10 2010


@<TRIPOS>MOLECULE
frag3-208-8/96164 -- energy: -0.272876
    9     8     1     1     1
SMALL
USER_CHARGES


@<TRIPOS>ATOM
      1 C15         1.2293   -1.1684   -0.0620 C.2        1 <1>        0.000
      2 C18         2.5105   -0.4408    0.1271 C.2        1 <1>        0.000
      3 O2          0.3815   -0.6914   -0.7918 O.2        1 <1>        0.000
      4 N3          3.4355   -1.0663    0.8496 N.am       1 <1>        0.000
      5 O3          2.6487    0.6353   -0.4341 O.2        1 <1>        0.000
      6 O4          4.7185   -0.6772    0.9187 O.3        1 <1>        0.000
      7 H           1.0516   -2.1162    0.4461 H.spc      1 <1>        0.000
      8 H           3.1538   -1.8894    1.3821 H.spc      1 <1>        0.000
      9 H           5.2018   -1.2730    1.4959 H.spc      1 <1>        0.000
@<TRIPOS>BOND
     1    1    2 1  
     2    1    3 2  
     3    2    4 am 
     4    2    5 2  
     5    4    6 1  
     6    1    7 1  
     7    4    8 1  
     8    6    9 1  
