#      Rotatable Fragment
#      Build by yxyuan
#
# Name:          frag4-350-124/48856
# Creation time: Sat Jun  5 12:53:05 2010


@<TRIPOS>MOLECULE
frag4-350-124/48856
   11    11     1     1     1
SMALL
USER_CHARGES


@<TRIPOS>ATOM
      1 N1         -8.1957    1.9902    2.1060 N.2        1 <1>        0.000
      2 C1         -7.3527    2.3676    1.2308 C.2        1 <1>        0.000
      3 N2         -7.3045    3.6728    1.0218 N.pl3      1 <1>        0.000
      4 C2         -8.2405    4.3665    1.8558 C.3        1 <1>        0.000
      5 C3         -8.8640    3.1612    2.6178 C.3        1 <1>        0.000
      6 H          -6.7161    1.6658    0.6920 H.spc      1 <1>        0.000
      7 H          -6.6817    4.1266    0.3535 H.spc      1 <1>        0.000
      8 H          -8.9607    4.9791    1.3135 H.spc      1 <1>        0.000
      9 H          -7.7957    5.1258    2.4989 H.spc      1 <1>        0.000
     10 H          -8.7286    3.2580    3.6950 H.spc      1 <1>        0.000
     11 H          -9.9412    3.1053    2.4611 H.spc      1 <1>        0.000
@<TRIPOS>BOND
     1    1    2 2  
     2    1    5 1  
     3    2    3 1  
     4    3    4 1  
     5    4    5 1  
     6    2    6 1  
     7    3    7 1  
     8    4    8 1  
     9    4    9 1  
    10    5   10 1  
    11    5   11 1  
# Name:          frag4-350-124/48856 -- energy: -0.454106
# Creation time: Sat Jun  5 12:53:05 2010


@<TRIPOS>MOLECULE
frag4-350-124/48856 -- energy: -0.454106
   11    11     1     1     1
SMALL
USER_CHARGES


@<TRIPOS>ATOM
      1 N1         -8.1957    1.9902    2.1060 N.2        1 <1>        0.000
      2 C1         -7.3527    2.3676    1.2308 C.2        1 <1>        0.000
      3 N2         -7.3045    3.6728    1.0218 N.pl3      1 <1>        0.000
      4 C2         -8.2405    4.3665    1.8558 C.3        1 <1>        0.000
      5 C3         -8.8640    3.1612    2.6178 C.3        1 <1>        0.000
      6 H          -6.7161    1.6658    0.6920 H.spc      1 <1>        0.000
      7 H          -6.6817    4.1266    0.3535 H.spc      1 <1>        0.000
      8 H          -8.9607    4.9791    1.3135 H.spc      1 <1>        0.000
      9 H          -7.7957    5.1258    2.4989 H.spc      1 <1>        0.000
     10 H          -8.7286    3.2580    3.6950 H.spc      1 <1>        0.000
     11 H          -9.9412    3.1053    2.4611 H.spc      1 <1>        0.000
@<TRIPOS>BOND
     1    1    2 2  
     2    1    5 1  
     3    2    3 1  
     4    3    4 1  
     5    4    5 1  
     6    2    6 1  
     7    3    7 1  
     8    4    8 1  
     9    4    9 1  
    10    5   10 1  
    11    5   11 1  
