#      Rotatable Fragment
#      Build by yxyuan
#
# Name:          frag4-290-5550/150395
# Creation time: Sat Jun  5 12:53:29 2010


@<TRIPOS>MOLECULE
frag4-290-5550/150395
   16    16     1     1     1
SMALL
USER_CHARGES


@<TRIPOS>ATOM
      1 C14        -0.1442   -1.9465    0.9417 C.3        1 <1>        0.000
      2 O6          1.0619   -2.4534    0.3550 O.3        1 <1>        0.000
      3 C18        -1.3522   -2.0479   -0.0176 C.3        1 <1>        0.000
      4 C21         0.8731   -3.5234   -0.5805 C.3        1 <1>        0.000
      5 C22        -1.6444   -3.5395   -0.3259 C.3        1 <1>        0.000
      6 C25        -0.3554   -4.3966   -0.2368 C.3        1 <1>        0.000
      7 H           0.0117   -0.8940    1.1784 H.spc      1 <1>        0.000
      8 H          -0.3653   -2.5421    1.8274 H.spc      1 <1>        0.000
      9 H          -1.1242   -1.5232   -0.9454 H.spc      1 <1>        0.000
     10 H          -2.2266   -1.5958    0.4505 H.spc      1 <1>        0.000
     11 H           1.7581   -4.1590   -0.5491 H.spc      1 <1>        0.000
     12 H           0.7108   -3.0856   -1.5654 H.spc      1 <1>        0.000
     13 H          -2.3597   -3.9116    0.4076 H.spc      1 <1>        0.000
     14 H          -2.0406   -3.6132   -1.3387 H.spc      1 <1>        0.000
     15 H          -0.4209   -5.2237   -0.9437 H.spc      1 <1>        0.000
     16 H          -0.2499   -4.7878    0.7751 H.spc      1 <1>        0.000
@<TRIPOS>BOND
     1    5    6 1  
     2    1    2 1  
     3    1    3 1  
     4    2    4 1  
     5    3    5 1  
     6    4    6 1  
     7    1    7 1  
     8    1    8 1  
     9    3    9 1  
    10    3   10 1  
    11    4   11 1  
    12    4   12 1  
    13    5   13 1  
    14    5   14 1  
    15    6   15 1  
    16    6   16 1  
# Name:          frag4-290-5550/150395
# Creation time: Sat Jun  5 12:53:29 2010


@<TRIPOS>MOLECULE
frag4-290-5550/150395
   16    16     1     1     1
SMALL
USER_CHARGES


@<TRIPOS>ATOM
      1 C14        -0.0320   -1.5798    0.4533 C.3        1 <1>        0.000
      2 O6          1.0649   -2.4393    0.2210 O.3        1 <1>        0.000
      3 C18        -1.3774   -2.3396    0.5288 C.3        1 <1>        0.000
      4 C21         0.7013   -3.8096    0.2082 C.3        1 <1>        0.000
      5 C22        -1.6175   -3.5847   -0.3679 C.3        1 <1>        0.000
      6 C25        -0.3005   -4.1543   -0.9075 C.3        1 <1>        0.000
      7 H          -0.0897   -0.8773   -0.3781 H.spc      1 <1>        0.000
      8 H           0.1273   -1.0838    1.4107 H.spc      1 <1>        0.000
      9 H          -2.1189   -1.6148    0.1928 H.spc      1 <1>        0.000
     10 H          -1.4154   -2.7259    1.5473 H.spc      1 <1>        0.000
     11 H           0.2267   -4.0365    1.1629 H.spc      1 <1>        0.000
     12 H           1.6061   -4.3920    0.0341 H.spc      1 <1>        0.000
     13 H          -2.1043   -4.3529    0.2329 H.spc      1 <1>        0.000
     14 H          -2.2356   -3.2853   -1.2143 H.spc      1 <1>        0.000
     15 H          -0.0207   -3.7348   -1.8739 H.spc      1 <1>        0.000
     16 H          -0.3536   -5.2230   -1.1152 H.spc      1 <1>        0.000
@<TRIPOS>BOND
     1    5    6 1  
     2    1    2 1  
     3    1    3 1  
     4    2    4 1  
     5    3    5 1  
     6    4    6 1  
     7    1    7 1  
     8    1    8 1  
     9    3    9 1  
    10    3   10 1  
    11    4   11 1  
    12    4   12 1  
    13    5   13 1  
    14    5   14 1  
    15    6   15 1  
    16    6   16 1  
# Name:          frag4-290-5550/150395 -- energy: -0.730068
# Creation time: Sat Jun  5 12:53:29 2010


@<TRIPOS>MOLECULE
frag4-290-5550/150395 -- energy: -0.730068
   16    16     1     1     1
SMALL
USER_CHARGES


@<TRIPOS>ATOM
      1 C14        -0.1442   -1.9465    0.9417 C.3        1 <1>        0.000
      2 O6          1.0619   -2.4534    0.3550 O.3        1 <1>        0.000
      3 C18        -1.3522   -2.0479   -0.0176 C.3        1 <1>        0.000
      4 C21         0.8731   -3.5234   -0.5805 C.3        1 <1>        0.000
      5 C22        -1.6444   -3.5395   -0.3259 C.3        1 <1>        0.000
      6 C25        -0.3554   -4.3966   -0.2368 C.3        1 <1>        0.000
      7 H           0.0117   -0.8940    1.1784 H.spc      1 <1>        0.000
      8 H          -0.3653   -2.5421    1.8274 H.spc      1 <1>        0.000
      9 H          -1.1242   -1.5232   -0.9454 H.spc      1 <1>        0.000
     10 H          -2.2266   -1.5958    0.4505 H.spc      1 <1>        0.000
     11 H           1.7581   -4.1590   -0.5491 H.spc      1 <1>        0.000
     12 H           0.7108   -3.0856   -1.5654 H.spc      1 <1>        0.000
     13 H          -2.3597   -3.9116    0.4076 H.spc      1 <1>        0.000
     14 H          -2.0406   -3.6132   -1.3387 H.spc      1 <1>        0.000
     15 H          -0.4209   -5.2237   -0.9437 H.spc      1 <1>        0.000
     16 H          -0.2499   -4.7878    0.7751 H.spc      1 <1>        0.000
@<TRIPOS>BOND
     1    5    6 1  
     2    1    2 1  
     3    1    3 1  
     4    2    4 1  
     5    3    5 1  
     6    4    6 1  
     7    1    7 1  
     8    1    8 1  
     9    3    9 1  
    10    3   10 1  
    11    4   11 1  
    12    4   12 1  
    13    5   13 1  
    14    5   14 1  
    15    6   15 1  
    16    6   16 1  
# Name:          frag4-290-5550/150395 -- energy: 0.123850
# Creation time: Sat Jun  5 12:53:29 2010


@<TRIPOS>MOLECULE
frag4-290-5550/150395 -- energy: 0.123850
   16    16     1     1     1
SMALL
USER_CHARGES


@<TRIPOS>ATOM
      1 C14        -0.0320   -1.5798    0.4533 C.3        1 <1>        0.000
      2 O6          1.0649   -2.4393    0.2210 O.3        1 <1>        0.000
      3 C18        -1.3774   -2.3396    0.5288 C.3        1 <1>        0.000
      4 C21         0.7013   -3.8096    0.2082 C.3        1 <1>        0.000
      5 C22        -1.6175   -3.5847   -0.3679 C.3        1 <1>        0.000
      6 C25        -0.3005   -4.1543   -0.9075 C.3        1 <1>        0.000
      7 H          -0.0897   -0.8773   -0.3781 H.spc      1 <1>        0.000
      8 H           0.1273   -1.0838    1.4107 H.spc      1 <1>        0.000
      9 H          -2.1189   -1.6148    0.1928 H.spc      1 <1>        0.000
     10 H          -1.4154   -2.7259    1.5473 H.spc      1 <1>        0.000
     11 H           0.2267   -4.0365    1.1629 H.spc      1 <1>        0.000
     12 H           1.6061   -4.3920    0.0341 H.spc      1 <1>        0.000
     13 H          -2.1043   -4.3529    0.2329 H.spc      1 <1>        0.000
     14 H          -2.2356   -3.2853   -1.2143 H.spc      1 <1>        0.000
     15 H          -0.0207   -3.7348   -1.8739 H.spc      1 <1>        0.000
     16 H          -0.3536   -5.2230   -1.1152 H.spc      1 <1>        0.000
@<TRIPOS>BOND
     1    5    6 1  
     2    1    2 1  
     3    1    3 1  
     4    2    4 1  
     5    3    5 1  
     6    4    6 1  
     7    1    7 1  
     8    1    8 1  
     9    3    9 1  
    10    3   10 1  
    11    4   11 1  
    12    4   12 1  
    13    5   13 1  
    14    5   14 1  
    15    6   15 1  
    16    6   16 1  
