#      Rotatable Fragment
#      Build by yxyuan
#
# Name:          frag3-189-7/31924
# Creation time: Sat Jun  5 12:52:10 2010


@<TRIPOS>MOLECULE
frag3-189-7/31924
   21    20     1     1     1
SMALL
USER_CHARGES


@<TRIPOS>ATOM
      1 C15         1.0611   -2.5159   -0.4498 C.2        1 <1>        0.000
      2 C16        -0.1799   -2.3151   -0.8957 C.2        1 <1>        0.000
      3 C17        -1.3463   -3.0208   -0.3986 C.2        1 <1>        0.000
      4 C18        -2.4177   -3.3539   -1.1311 C.2        1 <1>        0.000
      5 C19        -3.5799   -4.0649   -0.6364 C.2        1 <1>        0.000
      6 C20        -4.6646   -4.3650   -1.3624 C.2        1 <1>        0.000
      7 C21        -5.8293   -5.0841   -0.8740 C.2        1 <1>        0.000
      8 C22        -6.6981   -5.7306   -1.6686 C.2        1 <1>        0.000
      9 C23        -7.8751   -6.4610   -1.1792 C.2        1 <1>        0.000
     10 O5         -8.5609   -7.1268   -1.9423 O.2        1 <1>        0.000
     11 O6         -8.2052   -6.4169    0.1155 O.3        1 <1>        0.000
     12 H           1.2460   -3.2482    0.3361 H.spc      1 <1>        0.000
     13 H           1.8903   -1.9477   -0.8713 H.spc      1 <1>        0.000
     14 H          -0.3270   -1.5750   -1.6823 H.spc      1 <1>        0.000
     15 H          -1.3513   -3.3023    0.6544 H.spc      1 <1>        0.000
     16 H          -2.4151   -3.0674   -2.1828 H.spc      1 <1>        0.000
     17 H          -3.5703   -4.3797    0.4071 H.spc      1 <1>        0.000
     18 H          -4.6747   -4.0439   -2.4040 H.spc      1 <1>        0.000
     19 H          -6.0085   -5.0997    0.2011 H.spc      1 <1>        0.000
     20 H          -6.5187   -5.7122   -2.7436 H.spc      1 <1>        0.000
     21 H          -7.5802   -5.8597    0.5851 H.spc      1 <1>        0.000
@<TRIPOS>BOND
     1    2    3 1  
     2    9   11 1  
     3    5    6 2  
     4    6    7 1  
     5    4    5 1  
     6    9   10 2  
     7    7    8 2  
     8    3    4 2  
     9    8    9 1  
    10    1    2 2  
    11    1   12 1  
    12    1   13 1  
    13    2   14 1  
    14    3   15 1  
    15    4   16 1  
    16    5   17 1  
    17    6   18 1  
    18    7   19 1  
    19    8   20 1  
    20   11   21 1  
# Name:          frag3-189-7/31924
# Creation time: Sat Jun  5 12:52:10 2010


@<TRIPOS>MOLECULE
frag3-189-7/31924
   21    20     1     1     1
SMALL
USER_CHARGES


@<TRIPOS>ATOM
      1 C15         0.3609   -2.7066    0.5337 C.2        1 <1>        0.000
      2 C16        -0.3951   -2.5440   -0.5517 C.2        1 <1>        0.000
      3 C17        -1.5743   -3.3224   -0.8510 C.2        1 <1>        0.000
      4 C18        -2.4329   -3.0897   -1.8563 C.2        1 <1>        0.000
      5 C19        -3.6110   -3.8771   -2.1367 C.2        1 <1>        0.000
      6 C20        -4.3925   -4.4359   -1.1956 C.2        1 <1>        0.000
      7 C21        -5.5786   -5.2288   -1.4437 C.2        1 <1>        0.000
      8 C22        -6.4995   -5.5252   -0.5073 C.2        1 <1>        0.000
      9 C23        -7.7034   -6.3249   -0.7671 C.2        1 <1>        0.000
     10 O5         -8.1693   -6.4257   -1.8904 O.2        1 <1>        0.000
     11 O6         -8.3003   -6.9746    0.2433 O.3        1 <1>        0.000
     12 H           0.1029   -3.4694    1.2683 H.spc      1 <1>        0.000
     13 H           1.2373   -2.0768    0.6868 H.spc      1 <1>        0.000
     14 H          -0.1035   -1.7706   -1.2622 H.spc      1 <1>        0.000
     15 H          -1.7856   -4.1736   -0.2037 H.spc      1 <1>        0.000
     16 H          -2.2255   -2.2427   -2.5103 H.spc      1 <1>        0.000
     17 H          -3.8849   -4.0285   -3.1808 H.spc      1 <1>        0.000
     18 H          -4.1083   -4.2782   -0.1552 H.spc      1 <1>        0.000
     19 H          -5.7358   -5.6099   -2.4527 H.spc      1 <1>        0.000
     20 H          -6.3421   -5.1492    0.5036 H.spc      1 <1>        0.000
     21 H          -7.8247   -6.8014    1.0590 H.spc      1 <1>        0.000
@<TRIPOS>BOND
     1    2    3 1  
     2    9   11 1  
     3    5    6 2  
     4    6    7 1  
     5    4    5 1  
     6    9   10 2  
     7    7    8 2  
     8    3    4 2  
     9    8    9 1  
    10    1    2 2  
    11    1   12 1  
    12    1   13 1  
    13    2   14 1  
    14    3   15 1  
    15    4   16 1  
    16    5   17 1  
    17    6   18 1  
    18    7   19 1  
    19    8   20 1  
    20   11   21 1  
# Name:          frag3-189-7/31924
# Creation time: Sat Jun  5 12:52:10 2010


@<TRIPOS>MOLECULE
frag3-189-7/31924
   21    20     1     1     1
SMALL
USER_CHARGES


@<TRIPOS>ATOM
      1 C15         0.2144   -2.3331   -1.7523 C.2        1 <1>        0.000
      2 C16        -0.0526   -3.0213   -0.6389 C.2        1 <1>        0.000
      3 C17        -1.3414   -3.6220   -0.3555 C.2        1 <1>        0.000
      4 C18        -2.5166   -2.9667   -0.4043 C.2        1 <1>        0.000
      5 C19        -3.8079   -3.5653   -0.1406 C.2        1 <1>        0.000
      6 C20        -4.4724   -4.3503   -1.0035 C.2        1 <1>        0.000
      7 C21        -5.7584   -4.9758   -0.7508 C.2        1 <1>        0.000
      8 C22        -6.3727   -5.8051   -1.6105 C.2        1 <1>        0.000
      9 C23        -7.6730   -6.4385   -1.3569 C.2        1 <1>        0.000
     10 O5         -8.0618   -7.3695   -2.0490 O.2        1 <1>        0.000
     11 O6         -8.4537   -6.0074   -0.3606 O.3        1 <1>        0.000
     12 H          -0.5590   -2.1985   -2.5085 H.spc      1 <1>        0.000
     13 H           1.2057   -1.9062   -1.9046 H.spc      1 <1>        0.000
     14 H           0.7426   -3.1377    0.0974 H.spc      1 <1>        0.000
     15 H          -1.3602   -4.6775   -0.0841 H.spc      1 <1>        0.000
     16 H          -2.4939   -1.9077   -0.6612 H.spc      1 <1>        0.000
     17 H          -4.2726   -3.3650    0.8248 H.spc      1 <1>        0.000
     18 H          -4.0088   -4.5331   -1.9729 H.spc      1 <1>        0.000
     19 H          -6.2557   -4.7590    0.1946 H.spc      1 <1>        0.000
     20 H          -5.8748   -6.0215   -2.5557 H.spc      1 <1>        0.000
     21 H          -8.0213   -5.2788    0.0909 H.spc      1 <1>        0.000
@<TRIPOS>BOND
     1    2    3 1  
     2    9   11 1  
     3    5    6 2  
     4    6    7 1  
     5    4    5 1  
     6    9   10 2  
     7    7    8 2  
     8    3    4 2  
     9    8    9 1  
    10    1    2 2  
    11    1   12 1  
    12    1   13 1  
    13    2   14 1  
    14    3   15 1  
    15    4   16 1  
    16    5   17 1  
    17    6   18 1  
    18    7   19 1  
    19    8   20 1  
    20   11   21 1  
# Name:          frag3-189-7/31924
# Creation time: Sat Jun  5 12:52:10 2010


@<TRIPOS>MOLECULE
frag3-189-7/31924
   21    20     1     1     1
SMALL
USER_CHARGES


@<TRIPOS>ATOM
      1 C15         0.7334   -1.6549   -1.0599 C.2        1 <1>        0.000
      2 C16        -0.1369   -2.4702   -0.4644 C.2        1 <1>        0.000
      3 C17        -1.3114   -3.0209   -1.1060 C.2        1 <1>        0.000
      4 C18        -2.2416   -3.7793   -0.5115 C.2        1 <1>        0.000
      5 C19        -3.4163   -4.3255   -1.1523 C.2        1 <1>        0.000
      6 C20        -4.4408   -4.9140   -0.5217 C.2        1 <1>        0.000
      7 C21        -5.6273   -5.4526   -1.1578 C.2        1 <1>        0.000
      8 C22        -6.7863   -5.6875   -0.5147 C.2        1 <1>        0.000
      9 C23        -7.9876   -6.2307   -1.1653 C.2        1 <1>        0.000
     10 O5         -7.9712   -6.5864   -2.3310 O.2        1 <1>        0.000
     11 O6         -9.1100   -6.3330   -0.4381 O.3        1 <1>        0.000
     12 H           0.5826   -1.3618   -2.0989 H.spc      1 <1>        0.000
     13 H           1.5958   -1.2813   -0.5079 H.spc      1 <1>        0.000
     14 H           0.0484   -2.7402    0.5753 H.spc      1 <1>        0.000
     15 H          -1.4510   -2.7994   -2.1641 H.spc      1 <1>        0.000
     16 H          -2.1007   -4.0037    0.5458 H.spc      1 <1>        0.000
     17 H          -3.4731   -4.2524   -2.2384 H.spc      1 <1>        0.000
     18 H          -4.3772   -4.9951    0.5634 H.spc      1 <1>        0.000
     19 H          -5.5777   -5.6814   -2.2224 H.spc      1 <1>        0.000
     20 H          -6.8371   -5.4618    0.5505 H.spc      1 <1>        0.000
     21 H          -8.9447   -6.0100    0.4507 H.spc      1 <1>        0.000
@<TRIPOS>BOND
     1    2    3 1  
     2    9   11 1  
     3    5    6 2  
     4    6    7 1  
     5    4    5 1  
     6    9   10 2  
     7    7    8 2  
     8    3    4 2  
     9    8    9 1  
    10    1    2 2  
    11    1   12 1  
    12    1   13 1  
    13    2   14 1  
    14    3   15 1  
    15    4   16 1  
    16    5   17 1  
    17    6   18 1  
    18    7   19 1  
    19    8   20 1  
    20   11   21 1  
# Name:          frag3-189-7/31924
# Creation time: Sat Jun  5 12:52:10 2010


@<TRIPOS>MOLECULE
frag3-189-7/31924
   21    20     1     1     1
SMALL
USER_CHARGES


@<TRIPOS>ATOM
      1 C15         0.6190   -2.3286    0.2798 C.2        1 <1>        0.000
      2 C16        -0.2322   -2.6661   -0.6888 C.2        1 <1>        0.000
      3 C17        -1.5797   -3.1407   -0.4642 C.2        1 <1>        0.000
      4 C18        -2.4332   -3.5470   -1.4127 C.2        1 <1>        0.000
      5 C19        -3.7775   -4.0229   -1.1877 C.2        1 <1>        0.000
      6 C20        -4.6329   -4.4187   -2.1432 C.2        1 <1>        0.000
      7 C21        -5.9781   -4.9070   -1.9114 C.2        1 <1>        0.000
      8 C22        -6.2702   -5.8580   -0.9971 C.2        1 <1>        0.000
      9 C23        -7.6287   -6.3587   -0.7449 C.2        1 <1>        0.000
     10 O5         -8.5410   -6.1315   -1.5209 O.2        1 <1>        0.000
     11 O6         -7.8413   -7.0758    0.3684 O.3        1 <1>        0.000
     12 H           0.3139   -2.4024    1.3236 H.spc      1 <1>        0.000
     13 H           1.6202   -1.9788    0.0281 H.spc      1 <1>        0.000
     14 H           0.1105   -2.5785   -1.7198 H.spc      1 <1>        0.000
     15 H          -1.9313   -3.1703    0.5671 H.spc      1 <1>        0.000
     16 H          -2.0825   -3.5157   -2.4443 H.spc      1 <1>        0.000
     17 H          -4.1268   -4.0642   -0.1560 H.spc      1 <1>        0.000
     18 H          -4.2886   -4.3690   -3.1762 H.spc      1 <1>        0.000
     19 H          -6.7921   -4.4872   -2.5024 H.spc      1 <1>        0.000
     20 H          -5.4513   -6.2779   -0.4131 H.spc      1 <1>        0.000
     21 H          -7.0194   -7.1558    0.8580 H.spc      1 <1>        0.000
@<TRIPOS>BOND
     1    2    3 1  
     2    9   11 1  
     3    5    6 2  
     4    6    7 1  
     5    4    5 1  
     6    9   10 2  
     7    7    8 2  
     8    3    4 2  
     9    8    9 1  
    10    1    2 2  
    11    1   12 1  
    12    1   13 1  
    13    2   14 1  
    14    3   15 1  
    15    4   16 1  
    16    5   17 1  
    17    6   18 1  
    18    7   19 1  
    19    8   20 1  
    20   11   21 1  
# Name:          frag3-189-7/31924
# Creation time: Sat Jun  5 12:52:10 2010


@<TRIPOS>MOLECULE
frag3-189-7/31924
   21    20     1     1     1
SMALL
USER_CHARGES


@<TRIPOS>ATOM
      1 C15         0.7862   -2.4620   -1.6037 C.2        1 <1>        0.000
      2 C16        -0.2178   -2.6756   -0.7533 C.2        1 <1>        0.000
      3 C17        -1.5205   -3.1751   -1.1357 C.2        1 <1>        0.000
      4 C18        -2.5120   -3.4941   -0.2941 C.2        1 <1>        0.000
      5 C19        -3.8124   -3.9932   -0.6764 C.2        1 <1>        0.000
      6 C20        -4.7807   -4.3702    0.1728 C.2        1 <1>        0.000
      7 C21        -6.0852   -4.8698   -0.2152 C.2        1 <1>        0.000
      8 C22        -6.2578   -5.8764   -1.0957 C.2        1 <1>        0.000
      9 C23        -7.5701   -6.3887   -1.5145 C.2        1 <1>        0.000
     10 O5         -7.6555   -7.2660   -2.3613 O.2        1 <1>        0.000
     11 O6         -8.6702   -5.8837   -0.9457 O.3        1 <1>        0.000
     12 H           0.6533   -2.6661   -2.6661 H.spc      1 <1>        0.000
     13 H           1.7401   -2.0832   -1.2367 H.spc      1 <1>        0.000
     14 H          -0.0457   -2.4594    0.3011 H.spc      1 <1>        0.000
     15 H          -1.7115   -3.3029   -2.2012 H.spc      1 <1>        0.000
     16 H          -2.3213   -3.3661    0.7714 H.spc      1 <1>        0.000
     17 H          -4.0248   -4.0700   -1.7427 H.spc      1 <1>        0.000
     18 H          -4.5696   -4.2948    1.2395 H.spc      1 <1>        0.000
     19 H          -6.9692   -4.4095    0.2262 H.spc      1 <1>        0.000
     20 H          -5.3684   -6.3390   -1.5236 H.spc      1 <1>        0.000
     21 H          -8.4196   -5.2104   -0.3089 H.spc      1 <1>        0.000
@<TRIPOS>BOND
     1    2    3 1  
     2    9   11 1  
     3    5    6 2  
     4    6    7 1  
     5    4    5 1  
     6    9   10 2  
     7    7    8 2  
     8    3    4 2  
     9    8    9 1  
    10    1    2 2  
    11    1   12 1  
    12    1   13 1  
    13    2   14 1  
    14    3   15 1  
    15    4   16 1  
    16    5   17 1  
    17    6   18 1  
    18    7   19 1  
    19    8   20 1  
    20   11   21 1  
# Name:          frag3-189-7/31924
# Creation time: Sat Jun  5 12:52:10 2010


@<TRIPOS>MOLECULE
frag3-189-7/31924
   21    20     1     1     1
SMALL
USER_CHARGES


@<TRIPOS>ATOM
      1 C15         0.4872   -2.5869   -1.4122 C.2        1 <1>        0.000
      2 C16        -0.3082   -2.5645   -0.3393 C.2        1 <1>        0.000
      3 C17        -1.5161   -3.3529   -0.2177 C.2        1 <1>        0.000
      4 C18        -2.4060   -3.5477   -1.2090 C.2        1 <1>        0.000
      5 C19        -3.6135   -4.3302   -1.0973 C.2        1 <1>        0.000
      6 C20        -4.7842   -3.8692   -0.6209 C.2        1 <1>        0.000
      7 C21        -6.0007   -4.6505   -0.5003 C.2        1 <1>        0.000
      8 C22        -6.3432   -5.6186   -1.3749 C.2        1 <1>        0.000
      9 C23        -7.5634   -6.4266   -1.2713 C.2        1 <1>        0.000
     10 O5         -7.7274   -7.4072   -1.9843 O.2        1 <1>        0.000
     11 O6         -8.5204   -6.1007   -0.3956 O.3        1 <1>        0.000
     12 H           0.2399   -3.2248   -2.2608 H.spc      1 <1>        0.000
     13 H           1.3836   -1.9673   -1.4391 H.spc      1 <1>        0.000
     14 H          -0.0320   -1.9157    0.4919 H.spc      1 <1>        0.000
     15 H          -1.7196   -3.8222    0.7448 H.spc      1 <1>        0.000
     16 H          -2.1984   -3.0780   -2.1705 H.spc      1 <1>        0.000
     17 H          -3.5742   -5.3698   -1.4224 H.spc      1 <1>        0.000
     18 H          -4.8216   -2.8280   -0.3007 H.spc      1 <1>        0.000
     19 H          -6.6690   -4.4456    0.3360 H.spc      1 <1>        0.000
     20 H          -5.6714   -5.8128   -2.2110 H.spc      1 <1>        0.000
     21 H          -8.2547   -5.3163    0.0898 H.spc      1 <1>        0.000
@<TRIPOS>BOND
     1    2    3 1  
     2    9   11 1  
     3    5    6 2  
     4    6    7 1  
     5    4    5 1  
     6    9   10 2  
     7    7    8 2  
     8    3    4 2  
     9    8    9 1  
    10    1    2 2  
    11    1   12 1  
    12    1   13 1  
    13    2   14 1  
    14    3   15 1  
    15    4   16 1  
    16    5   17 1  
    17    6   18 1  
    18    7   19 1  
    19    8   20 1  
    20   11   21 1  
# Name:          frag3-189-7/31924
# Creation time: Sat Jun  5 12:52:10 2010


@<TRIPOS>MOLECULE
frag3-189-7/31924
   21    20     1     1     1
SMALL
USER_CHARGES


@<TRIPOS>ATOM
      1 C15         0.4851   -2.7201   -1.4694 C.2        1 <1>        0.000
      2 C16        -0.3276   -2.0530   -0.6445 C.2        1 <1>        0.000
      3 C17        -1.6650   -2.4920   -0.3063 C.2        1 <1>        0.000
      4 C18        -2.1870   -3.6856   -0.6462 C.2        1 <1>        0.000
      5 C19        -3.5179   -4.1412   -0.3232 C.2        1 <1>        0.000
      6 C20        -4.2361   -5.0115   -1.0448 C.2        1 <1>        0.000
      7 C21        -5.5759   -5.4671   -0.7279 C.2        1 <1>        0.000
      8 C22        -6.4996   -5.7884   -1.6495 C.2        1 <1>        0.000
      9 C23        -7.8597   -6.2415   -1.3303 C.2        1 <1>        0.000
     10 O5         -8.5307   -6.8385   -2.1609 O.2        1 <1>        0.000
     11 O6         -8.3817   -6.0160   -0.1196 O.3        1 <1>        0.000
     12 H           0.1511   -3.6503   -1.9292 H.spc      1 <1>        0.000
     13 H           1.4819   -2.3340   -1.6825 H.spc      1 <1>        0.000
     14 H           0.0370   -1.1263   -0.2014 H.spc      1 <1>        0.000
     15 H          -2.2937   -1.8080    0.2637 H.spc      1 <1>        0.000
     16 H          -1.5508   -4.3652   -1.2132 H.spc      1 <1>        0.000
     17 H          -3.9763   -3.7443    0.5826 H.spc      1 <1>        0.000
     18 H          -3.7741   -5.4115   -1.9474 H.spc      1 <1>        0.000
     19 H          -5.8508   -5.5544    0.3233 H.spc      1 <1>        0.000
     20 H          -6.2219   -5.7076   -2.7004 H.spc      1 <1>        0.000
     21 H          -7.7442   -5.5418    0.4192 H.spc      1 <1>        0.000
@<TRIPOS>BOND
     1    2    3 1  
     2    9   11 1  
     3    5    6 2  
     4    6    7 1  
     5    4    5 1  
     6    9   10 2  
     7    7    8 2  
     8    3    4 2  
     9    8    9 1  
    10    1    2 2  
    11    1   12 1  
    12    1   13 1  
    13    2   14 1  
    14    3   15 1  
    15    4   16 1  
    16    5   17 1  
    17    6   18 1  
    18    7   19 1  
    19    8   20 1  
    20   11   21 1  
# Name:          frag3-189-7/31924
# Creation time: Sat Jun  5 12:52:10 2010


@<TRIPOS>MOLECULE
frag3-189-7/31924
   21    20     1     1     1
SMALL
USER_CHARGES


@<TRIPOS>ATOM
      1 C15         0.3213   -1.7762   -1.3485 C.2        1 <1>        0.000
      2 C16        -0.3520   -2.6014   -0.5484 C.2        1 <1>        0.000
      3 C17        -1.5915   -3.2488   -0.8931 C.2        1 <1>        0.000
      4 C18        -2.2398   -4.1601   -0.1516 C.2        1 <1>        0.000
      5 C19        -3.4831   -4.7906   -0.5127 C.2        1 <1>        0.000
      6 C20        -4.4878   -4.1775   -1.1699 C.2        1 <1>        0.000
      7 C21        -5.7393   -4.7942   -1.5511 C.2        1 <1>        0.000
      8 C22        -6.4448   -5.5999   -0.7280 C.2        1 <1>        0.000
      9 C23        -7.7076   -6.2474   -1.1017 C.2        1 <1>        0.000
     10 O5         -7.8331   -6.8176   -2.1737 O.2        1 <1>        0.000
     11 O6         -8.7384   -6.2413   -0.2439 O.3        1 <1>        0.000
     12 H          -0.0610   -1.5495   -2.3438 H.spc      1 <1>        0.000
     13 H           1.2545   -1.3276   -1.0079 H.spc      1 <1>        0.000
     14 H           0.0653   -2.8011    0.4385 H.spc      1 <1>        0.000
     15 H          -2.0452   -2.9728   -1.8450 H.spc      1 <1>        0.000
     16 H          -1.7898   -4.4457    0.7992 H.spc      1 <1>        0.000
     17 H          -3.6213   -5.8357   -0.2355 H.spc      1 <1>        0.000
     18 H          -4.3452   -3.1302   -1.4361 H.spc      1 <1>        0.000
     19 H          -6.1315   -4.5997   -2.5493 H.spc      1 <1>        0.000
     20 H          -6.0530   -5.7798    0.2731 H.spc      1 <1>        0.000
     21 H          -8.4912   -5.7585    0.5482 H.spc      1 <1>        0.000
@<TRIPOS>BOND
     1    2    3 1  
     2    9   11 1  
     3    5    6 2  
     4    6    7 1  
     5    4    5 1  
     6    9   10 2  
     7    7    8 2  
     8    3    4 2  
     9    8    9 1  
    10    1    2 2  
    11    1   12 1  
    12    1   13 1  
    13    2   14 1  
    14    3   15 1  
    15    4   16 1  
    16    5   17 1  
    17    6   18 1  
    18    7   19 1  
    19    8   20 1  
    20   11   21 1  
# Name:          frag3-189-7/31924
# Creation time: Sat Jun  5 12:52:10 2010


@<TRIPOS>MOLECULE
frag3-189-7/31924
   21    20     1     1     1
SMALL
USER_CHARGES


@<TRIPOS>ATOM
      1 C15         0.2361   -2.0818   -1.0593 C.2        1 <1>        0.000
      2 C16        -0.2201   -2.8649   -0.0783 C.2        1 <1>        0.000
      3 C17        -1.5791   -3.3442    0.0008 C.2        1 <1>        0.000
      4 C18        -2.3991   -3.5097   -1.0532 C.2        1 <1>        0.000
      5 C19        -3.7551   -3.9865   -1.0009 C.2        1 <1>        0.000
      6 C20        -4.4340   -4.5355   -2.0200 C.2        1 <1>        0.000
      7 C21        -5.7916   -5.0333   -1.9532 C.2        1 <1>        0.000
      8 C22        -6.2535   -5.7875   -0.9301 C.2        1 <1>        0.000
      9 C23        -7.6284   -6.2935   -0.8429 C.2        1 <1>        0.000
     10 O5         -8.3031   -6.4705   -1.8443 O.2        1 <1>        0.000
     11 O6         -8.1682   -6.5476    0.3588 O.3        1 <1>        0.000
     12 H          -0.4317   -1.7687   -1.8619 H.spc      1 <1>        0.000
     13 H           1.2762   -1.7557   -1.0573 H.spc      1 <1>        0.000
     14 H           0.4745   -3.1592    0.7085 H.spc      1 <1>        0.000
     15 H          -1.9704   -3.5905    0.9879 H.spc      1 <1>        0.000
     16 H          -1.9994   -3.2597   -2.0360 H.spc      1 <1>        0.000
     17 H          -4.2777   -3.8937   -0.0489 H.spc      1 <1>        0.000
     18 H          -3.9202   -4.6131   -2.9782 H.spc      1 <1>        0.000
     19 H          -6.4745   -4.7885   -2.7667 H.spc      1 <1>        0.000
     20 H          -5.5640   -6.0341   -0.1227 H.spc      1 <1>        0.000
     21 H          -7.5220   -6.3627    1.0442 H.spc      1 <1>        0.000
@<TRIPOS>BOND
     1    2    3 1  
     2    9   11 1  
     3    5    6 2  
     4    6    7 1  
     5    4    5 1  
     6    9   10 2  
     7    7    8 2  
     8    3    4 2  
     9    8    9 1  
    10    1    2 2  
    11    1   12 1  
    12    1   13 1  
    13    2   14 1  
    14    3   15 1  
    15    4   16 1  
    16    5   17 1  
    17    6   18 1  
    18    7   19 1  
    19    8   20 1  
    20   11   21 1  
# Name:          frag3-189-7/31924
# Creation time: Sat Jun  5 12:52:10 2010


@<TRIPOS>MOLECULE
frag3-189-7/31924
   21    20     1     1     1
SMALL
USER_CHARGES


@<TRIPOS>ATOM
      1 C15         0.9579   -3.1164   -1.0283 C.2        1 <1>        0.000
      2 C16        -0.2575   -2.6609   -0.7249 C.2        1 <1>        0.000
      3 C17        -1.4379   -3.4894   -0.6188 C.2        1 <1>        0.000
      4 C18        -2.7036   -3.0597   -0.7039 C.2        1 <1>        0.000
      5 C19        -3.8818   -3.8886   -0.6093 C.2        1 <1>        0.000
      6 C20        -5.0965   -3.5712   -1.0843 C.2        1 <1>        0.000
      7 C21        -6.2731   -4.4144   -1.0010 C.2        1 <1>        0.000
      8 C22        -6.2527   -5.7368   -1.2660 C.2        1 <1>        0.000
      9 C23        -7.4307   -6.6114   -1.1830 C.2        1 <1>        0.000
     10 O5         -7.5424   -7.5789   -1.9209 O.2        1 <1>        0.000
     11 O6         -8.3777   -6.3272   -0.2822 O.3        1 <1>        0.000
     12 H           1.1105   -4.1793   -1.2156 H.spc      1 <1>        0.000
     13 H           1.7992   -2.4260   -1.0891 H.spc      1 <1>        0.000
     14 H          -0.3692   -1.5917   -0.5446 H.spc      1 <1>        0.000
     15 H          -1.2843   -4.5561   -0.4554 H.spc      1 <1>        0.000
     16 H          -2.8574   -1.9917   -0.8579 H.spc      1 <1>        0.000
     17 H          -3.7762   -4.8522   -0.1108 H.spc      1 <1>        0.000
     18 H          -5.2072   -2.6024   -1.5714 H.spc      1 <1>        0.000
     19 H          -7.2193   -3.9579   -0.7104 H.spc      1 <1>        0.000
     20 H          -5.3034   -6.1846   -1.5600 H.spc      1 <1>        0.000
     21 H          -8.1269   -5.5399    0.2066 H.spc      1 <1>        0.000
@<TRIPOS>BOND
     1    2    3 1  
     2    9   11 1  
     3    5    6 2  
     4    6    7 1  
     5    4    5 1  
     6    9   10 2  
     7    7    8 2  
     8    3    4 2  
     9    8    9 1  
    10    1    2 2  
    11    1   12 1  
    12    1   13 1  
    13    2   14 1  
    14    3   15 1  
    15    4   16 1  
    16    5   17 1  
    17    6   18 1  
    18    7   19 1  
    19    8   20 1  
    20   11   21 1  
# Name:          frag3-189-7/31924
# Creation time: Sat Jun  5 12:52:10 2010


@<TRIPOS>MOLECULE
frag3-189-7/31924
   21    20     1     1     1
SMALL
USER_CHARGES


@<TRIPOS>ATOM
      1 C15         0.7762   -3.2437   -0.4792 C.2        1 <1>        0.000
      2 C16        -0.4021   -2.6345   -0.6048 C.2        1 <1>        0.000
      3 C17        -1.6710   -3.3157   -0.6963 C.2        1 <1>        0.000
      4 C18        -2.8735   -2.7283   -0.7892 C.2        1 <1>        0.000
      5 C19        -4.1318   -3.4256   -0.8901 C.2        1 <1>        0.000
      6 C20        -4.3847   -4.4210   -1.7617 C.2        1 <1>        0.000
      7 C21        -5.6322   -5.1489   -1.8609 C.2        1 <1>        0.000
      8 C22        -6.2646   -5.6789   -0.7913 C.2        1 <1>        0.000
      9 C23        -7.5360   -6.4113   -0.8730 C.2        1 <1>        0.000
     10 O5         -7.9662   -6.8137   -1.9412 O.2        1 <1>        0.000
     11 O6         -8.2103   -6.6333    0.2649 O.3        1 <1>        0.000
     12 H           0.8256   -4.3318   -0.4392 H.spc      1 <1>        0.000
     13 H           1.6907   -2.6539   -0.4165 H.spc      1 <1>        0.000
     14 H          -0.4080   -1.5451   -0.6410 H.spc      1 <1>        0.000
     15 H          -1.6505   -4.4055   -0.6893 H.spc      1 <1>        0.000
     16 H          -2.9017   -1.6387   -0.7884 H.spc      1 <1>        0.000
     17 H          -4.9333   -3.1266   -0.2146 H.spc      1 <1>        0.000
     18 H          -3.5854   -4.7011   -2.4478 H.spc      1 <1>        0.000
     19 H          -6.0826   -5.2753   -2.8454 H.spc      1 <1>        0.000
     20 H          -5.8051   -5.5562    0.1895 H.spc      1 <1>        0.000
     21 H          -7.7284   -6.2495    1.0012 H.spc      1 <1>        0.000
@<TRIPOS>BOND
     1    2    3 1  
     2    9   11 1  
     3    5    6 2  
     4    6    7 1  
     5    4    5 1  
     6    9   10 2  
     7    7    8 2  
     8    3    4 2  
     9    8    9 1  
    10    1    2 2  
    11    1   12 1  
    12    1   13 1  
    13    2   14 1  
    14    3   15 1  
    15    4   16 1  
    16    5   17 1  
    17    6   18 1  
    18    7   19 1  
    19    8   20 1  
    20   11   21 1  
# Name:          frag3-189-7/31924
# Creation time: Sat Jun  5 12:52:10 2010


@<TRIPOS>MOLECULE
frag3-189-7/31924
   21    20     1     1     1
SMALL
USER_CHARGES


@<TRIPOS>ATOM
      1 C15         0.4104   -2.6212    0.1714 C.2        1 <1>        0.000
      2 C16        -0.0895   -2.3345   -1.0339 C.2        1 <1>        0.000
      3 C17        -1.4623   -2.5832   -1.4140 C.2        1 <1>        0.000
      4 C18        -2.2146   -3.5981   -0.9499 C.2        1 <1>        0.000
      5 C19        -3.5870   -3.8592   -1.3088 C.2        1 <1>        0.000
      6 C20        -4.3551   -4.8293   -0.7979 C.2        1 <1>        0.000
      7 C21        -5.7357   -5.0915   -1.1505 C.2        1 <1>        0.000
      8 C22        -6.4592   -6.1156   -0.6621 C.2        1 <1>        0.000
      9 C23        -7.8573   -6.3801   -1.0289 C.2        1 <1>        0.000
     10 O5         -8.3155   -6.0011   -2.0936 O.2        1 <1>        0.000
     11 O6         -8.6303   -7.0412   -0.1545 O.3        1 <1>        0.000
     12 H          -0.2275   -3.0687    0.9336 H.spc      1 <1>        0.000
     13 H           1.4561   -2.4076    0.3926 H.spc      1 <1>        0.000
     14 H           0.5754   -1.8876   -1.7730 H.spc      1 <1>        0.000
     15 H          -1.9210   -1.8992   -2.1280 H.spc      1 <1>        0.000
     16 H          -1.7464   -4.2817   -0.2417 H.spc      1 <1>        0.000
     17 H          -4.0374   -3.2110   -2.0605 H.spc      1 <1>        0.000
     18 H          -3.9015   -5.4798   -0.0501 H.spc      1 <1>        0.000
     19 H          -6.2191   -4.4162   -1.8564 H.spc      1 <1>        0.000
     20 H          -5.9795   -6.7892    0.0480 H.spc      1 <1>        0.000
     21 H          -8.1137   -7.2629    0.6237 H.spc      1 <1>        0.000
@<TRIPOS>BOND
     1    2    3 1  
     2    9   11 1  
     3    5    6 2  
     4    6    7 1  
     5    4    5 1  
     6    9   10 2  
     7    7    8 2  
     8    3    4 2  
     9    8    9 1  
    10    1    2 2  
    11    1   12 1  
    12    1   13 1  
    13    2   14 1  
    14    3   15 1  
    15    4   16 1  
    16    5   17 1  
    17    6   18 1  
    18    7   19 1  
    19    8   20 1  
    20   11   21 1  
# Name:          frag3-189-7/31924
# Creation time: Sat Jun  5 12:52:10 2010


@<TRIPOS>MOLECULE
frag3-189-7/31924
   21    20     1     1     1
SMALL
USER_CHARGES


@<TRIPOS>ATOM
      1 C15         0.7497   -3.2831   -1.4686 C.2        1 <1>        0.000
      2 C16        -0.2824   -2.7947   -0.7812 C.2        1 <1>        0.000
      3 C17        -1.6521   -3.2238   -0.9470 C.2        1 <1>        0.000
      4 C18        -2.7174   -2.7036   -0.3183 C.2        1 <1>        0.000
      5 C19        -4.0811   -3.1480   -0.4900 C.2        1 <1>        0.000
      6 C20        -4.4809   -4.4284   -0.3995 C.2        1 <1>        0.000
      7 C21        -5.8379   -4.9026   -0.5761 C.2        1 <1>        0.000
      8 C22        -6.1600   -6.0497   -1.1982 C.2        1 <1>        0.000
      9 C23        -7.5381   -6.5246   -1.3926 C.2        1 <1>        0.000
     10 O5         -7.8101   -7.2920   -2.3038 O.2        1 <1>        0.000
     11 O6         -8.4858   -6.1043   -0.5474 O.3        1 <1>        0.000
     12 H           0.5882   -4.0604   -2.2154 H.spc      1 <1>        0.000
     13 H           1.7553   -2.9052   -1.2840 H.spc      1 <1>        0.000
     14 H          -0.0793   -2.0184   -0.0435 H.spc      1 <1>        0.000
     15 H          -1.8362   -4.0416   -1.6437 H.spc      1 <1>        0.000
     16 H          -2.5399   -1.8821    0.3757 H.spc      1 <1>        0.000
     17 H          -4.8374   -2.3939   -0.7078 H.spc      1 <1>        0.000
     18 H          -3.7182   -5.1737   -0.1738 H.spc      1 <1>        0.000
     19 H          -6.6485   -4.2911   -0.1798 H.spc      1 <1>        0.000
     20 H          -5.3483   -6.6671   -1.5830 H.spc      1 <1>        0.000
     21 H          -8.0961   -5.5117    0.0995 H.spc      1 <1>        0.000
@<TRIPOS>BOND
     1    2    3 1  
     2    9   11 1  
     3    5    6 2  
     4    6    7 1  
     5    4    5 1  
     6    9   10 2  
     7    7    8 2  
     8    3    4 2  
     9    8    9 1  
    10    1    2 2  
    11    1   12 1  
    12    1   13 1  
    13    2   14 1  
    14    3   15 1  
    15    4   16 1  
    16    5   17 1  
    17    6   18 1  
    18    7   19 1  
    19    8   20 1  
    20   11   21 1  
# Name:          frag3-189-7/31924
# Creation time: Sat Jun  5 12:52:10 2010


@<TRIPOS>MOLECULE
frag3-189-7/31924
   21    20     1     1     1
SMALL
USER_CHARGES


@<TRIPOS>ATOM
      1 C15         0.2865   -1.2650   -0.6717 C.2        1 <1>        0.000
      2 C16        -0.1254   -2.5201   -0.8521 C.2        1 <1>        0.000
      3 C17        -1.4041   -3.0313   -0.4051 C.2        1 <1>        0.000
      4 C18        -2.0841   -4.0339   -0.9778 C.2        1 <1>        0.000
      5 C19        -3.3656   -4.5384   -0.5364 C.2        1 <1>        0.000
      6 C20        -4.2840   -5.1127   -1.3247 C.2        1 <1>        0.000
      7 C21        -5.5722   -5.6165   -0.8884 C.2        1 <1>        0.000
      8 C22        -6.6812   -5.6026   -1.6476 C.2        1 <1>        0.000
      9 C23        -7.9902   -6.1059   -1.2053 C.2        1 <1>        0.000
     10 O5         -8.8582   -6.3841   -2.0190 O.2        1 <1>        0.000
     11 O6         -8.2175   -6.2447    0.1054 O.3        1 <1>        0.000
     12 H          -0.3554   -0.5493   -0.1581 H.spc      1 <1>        0.000
     13 H           1.2651   -0.9546   -1.0379 H.spc      1 <1>        0.000
     14 H           0.5445   -3.2064   -1.3701 H.spc      1 <1>        0.000
     15 H          -1.8512   -2.5611    0.4708 H.spc      1 <1>        0.000
     16 H          -1.6337   -4.5090   -1.8493 H.spc      1 <1>        0.000
     17 H          -3.6034   -4.4437    0.5231 H.spc      1 <1>        0.000
     18 H          -4.0428   -5.2095   -2.3833 H.spc      1 <1>        0.000
     19 H          -5.6454   -6.0318    0.1167 H.spc      1 <1>        0.000
     20 H          -6.6055   -5.1924   -2.6546 H.spc      1 <1>        0.000
     21 H          -7.4339   -5.9829    0.5944 H.spc      1 <1>        0.000
@<TRIPOS>BOND
     1    2    3 1  
     2    9   11 1  
     3    5    6 2  
     4    6    7 1  
     5    4    5 1  
     6    9   10 2  
     7    7    8 2  
     8    3    4 2  
     9    8    9 1  
    10    1    2 2  
    11    1   12 1  
    12    1   13 1  
    13    2   14 1  
    14    3   15 1  
    15    4   16 1  
    16    5   17 1  
    17    6   18 1  
    18    7   19 1  
    19    8   20 1  
    20   11   21 1  
# Name:          frag3-189-7/31924
# Creation time: Sat Jun  5 12:52:10 2010


@<TRIPOS>MOLECULE
frag3-189-7/31924
   21    20     1     1     1
SMALL
USER_CHARGES


@<TRIPOS>ATOM
      1 C15         0.6624   -2.4281   -1.3842 C.2        1 <1>        0.000
      2 C16        -0.3978   -2.4692   -0.5779 C.2        1 <1>        0.000
      3 C17        -1.6757   -3.0376   -0.9336 C.2        1 <1>        0.000
      4 C18        -2.6635   -3.3452   -0.0800 C.2        1 <1>        0.000
      5 C19        -3.9303   -3.9243   -0.4507 C.2        1 <1>        0.000
      6 C20        -4.0752   -5.0765   -1.1332 C.2        1 <1>        0.000
      7 C21        -5.3408   -5.6677   -1.5149 C.2        1 <1>        0.000
      8 C22        -6.4572   -5.5692   -0.7594 C.2        1 <1>        0.000
      9 C23        -7.7519   -6.1544   -1.1323 C.2        1 <1>        0.000
     10 O5         -7.9307   -6.6419   -2.2361 O.2        1 <1>        0.000
     11 O6         -8.7353   -6.1408   -0.2204 O.3        1 <1>        0.000
     12 H           0.5984   -2.8428   -2.3902 H.spc      1 <1>        0.000
     13 H           1.5936   -1.9798   -1.0377 H.spc      1 <1>        0.000
     14 H          -0.2924   -2.0437    0.4201 H.spc      1 <1>        0.000
     15 H          -1.8541   -3.2346   -1.9907 H.spc      1 <1>        0.000
     16 H          -2.4950   -3.1412    0.9774 H.spc      1 <1>        0.000
     17 H          -4.8353   -3.3920   -0.1579 H.spc      1 <1>        0.000
     18 H          -3.1672   -5.6063   -1.4212 H.spc      1 <1>        0.000
     19 H          -5.3956   -6.2173   -2.4546 H.spc      1 <1>        0.000
     20 H          -6.3930   -5.0234    0.1819 H.spc      1 <1>        0.000
     21 H          -8.4191   -5.7218    0.5834 H.spc      1 <1>        0.000
@<TRIPOS>BOND
     1    2    3 1  
     2    9   11 1  
     3    5    6 2  
     4    6    7 1  
     5    4    5 1  
     6    9   10 2  
     7    7    8 2  
     8    3    4 2  
     9    8    9 1  
    10    1    2 2  
    11    1   12 1  
    12    1   13 1  
    13    2   14 1  
    14    3   15 1  
    15    4   16 1  
    16    5   17 1  
    17    6   18 1  
    18    7   19 1  
    19    8   20 1  
    20   11   21 1  
# Name:          frag3-189-7/31924
# Creation time: Sat Jun  5 12:52:10 2010


@<TRIPOS>MOLECULE
frag3-189-7/31924
   21    20     1     1     1
SMALL
USER_CHARGES


@<TRIPOS>ATOM
      1 C15        -0.0711   -1.6257    0.2007 C.2        1 <1>        0.000
      2 C16        -0.4320   -2.5568   -0.6818 C.2        1 <1>        0.000
      3 C17        -1.7329   -3.1797   -0.7286 C.2        1 <1>        0.000
      4 C18        -2.0206   -4.3541   -1.3099 C.2        1 <1>        0.000
      5 C19        -3.3277   -4.9625   -1.3496 C.2        1 <1>        0.000
      6 C20        -4.4433   -4.3453   -1.7832 C.2        1 <1>        0.000
      7 C21        -5.7652   -4.9346   -1.8192 C.2        1 <1>        0.000
      8 C22        -6.3439   -5.5173   -0.7469 C.2        1 <1>        0.000
      9 C23        -7.6780   -6.1334   -0.7713 C.2        1 <1>        0.000
     10 O5         -8.4279   -5.9804   -1.7211 O.2        1 <1>        0.000
     11 O6         -8.0536   -6.8652    0.2881 O.3        1 <1>        0.000
     12 H          -0.7807   -1.2855    0.9549 H.spc      1 <1>        0.000
     13 H           0.9337   -1.2044    0.1683 H.spc      1 <1>        0.000
     14 H           0.3068   -2.8696   -1.4196 H.spc      1 <1>        0.000
     15 H          -2.5551   -2.6487   -0.2489 H.spc      1 <1>        0.000
     16 H          -1.2022   -4.8906   -1.7899 H.spc      1 <1>        0.000
     17 H          -3.4188   -5.9926   -1.0050 H.spc      1 <1>        0.000
     18 H          -4.3429   -3.3188   -2.1357 H.spc      1 <1>        0.000
     19 H          -6.3202   -4.9067   -2.7569 H.spc      1 <1>        0.000
     20 H          -5.7891   -5.5314    0.1913 H.spc      1 <1>        0.000
     21 H          -7.3443   -6.8774    0.9349 H.spc      1 <1>        0.000
@<TRIPOS>BOND
     1    2    3 1  
     2    9   11 1  
     3    5    6 2  
     4    6    7 1  
     5    4    5 1  
     6    9   10 2  
     7    7    8 2  
     8    3    4 2  
     9    8    9 1  
    10    1    2 2  
    11    1   12 1  
    12    1   13 1  
    13    2   14 1  
    14    3   15 1  
    15    4   16 1  
    16    5   17 1  
    17    6   18 1  
    18    7   19 1  
    19    8   20 1  
    20   11   21 1  
# Name:          frag3-189-7/31924
# Creation time: Sat Jun  5 12:52:10 2010


@<TRIPOS>MOLECULE
frag3-189-7/31924
   21    20     1     1     1
SMALL
USER_CHARGES


@<TRIPOS>ATOM
      1 C15         0.6010   -2.7971   -0.5507 C.2        1 <1>        0.000
      2 C16        -0.5422   -2.1846   -0.8634 C.2        1 <1>        0.000
      3 C17        -1.7701   -2.8727   -1.1521 C.2        1 <1>        0.000
      4 C18        -2.2548   -3.9223   -0.4594 C.2        1 <1>        0.000
      5 C19        -3.4805   -4.6122   -0.7467 C.2        1 <1>        0.000
      6 C20        -4.6029   -4.0225   -1.2035 C.2        1 <1>        0.000
      7 C21        -5.8427   -4.6948   -1.5105 C.2        1 <1>        0.000
      8 C22        -6.3819   -5.6476   -0.7188 C.2        1 <1>        0.000
      9 C23        -7.6306   -6.3554   -1.0227 C.2        1 <1>        0.000
     10 O5         -7.8458   -6.8078   -2.1361 O.2        1 <1>        0.000
     11 O6         -8.5456   -6.5379   -0.0588 O.3        1 <1>        0.000
     12 H           0.6408   -3.8853   -0.5024 H.spc      1 <1>        0.000
     13 H           1.4952   -2.2093   -0.3435 H.spc      1 <1>        0.000
     14 H          -0.5449   -1.0953   -0.9023 H.spc      1 <1>        0.000
     15 H          -2.3566   -2.5173   -1.9993 H.spc      1 <1>        0.000
     16 H          -1.6682   -4.2763    0.3883 H.spc      1 <1>        0.000
     17 H          -3.5051   -5.6897   -0.5838 H.spc      1 <1>        0.000
     18 H          -4.5717   -2.9434   -1.3543 H.spc      1 <1>        0.000
     19 H          -6.3691   -4.4207   -2.4248 H.spc      1 <1>        0.000
     20 H          -5.8576   -5.9060    0.2012 H.spc      1 <1>        0.000
     21 H          -8.2385   -6.1295    0.7539 H.spc      1 <1>        0.000
@<TRIPOS>BOND
     1    2    3 1  
     2    9   11 1  
     3    5    6 2  
     4    6    7 1  
     5    4    5 1  
     6    9   10 2  
     7    7    8 2  
     8    3    4 2  
     9    8    9 1  
    10    1    2 2  
    11    1   12 1  
    12    1   13 1  
    13    2   14 1  
    14    3   15 1  
    15    4   16 1  
    16    5   17 1  
    17    6   18 1  
    18    7   19 1  
    19    8   20 1  
    20   11   21 1  
# Name:          frag3-189-7/31924
# Creation time: Sat Jun  5 12:52:10 2010


@<TRIPOS>MOLECULE
frag3-189-7/31924
   21    20     1     1     1
SMALL
USER_CHARGES


@<TRIPOS>ATOM
      1 C15         0.7581   -3.2333   -0.2946 C.2        1 <1>        0.000
      2 C16        -0.3713   -2.6723   -0.7259 C.2        1 <1>        0.000
      3 C17        -1.6494   -3.3420   -0.7782 C.2        1 <1>        0.000
      4 C18        -2.6933   -2.9802   -1.5387 C.2        1 <1>        0.000
      5 C19        -3.9661   -3.6595   -1.5780 C.2        1 <1>        0.000
      6 C20        -4.7144   -3.9393   -0.4944 C.2        1 <1>        0.000
      7 C21        -5.9878   -4.6301   -0.5117 C.2        1 <1>        0.000
      8 C22        -6.1710   -5.8240   -1.1102 C.2        1 <1>        0.000
      9 C23        -7.4580   -6.5328   -1.1564 C.2        1 <1>        0.000
     10 O5         -7.8036   -7.1322   -2.1638 O.2        1 <1>        0.000
     11 O6         -8.2393   -6.5093   -0.0710 O.3        1 <1>        0.000
     12 H           0.7559   -4.2673    0.0503 H.spc      1 <1>        0.000
     13 H           1.6840   -2.6581   -0.2868 H.spc      1 <1>        0.000
     14 H          -0.3271   -1.6365   -1.0624 H.spc      1 <1>        0.000
     15 H          -1.7772   -4.2190   -0.1436 H.spc      1 <1>        0.000
     16 H          -2.5708   -2.1050   -2.1767 H.spc      1 <1>        0.000
     17 H          -4.3476   -3.9670   -2.5516 H.spc      1 <1>        0.000
     18 H          -4.3310   -3.6202    0.4748 H.spc      1 <1>        0.000
     19 H          -6.8387   -4.1619   -0.0169 H.spc      1 <1>        0.000
     20 H          -5.3116   -6.2928   -1.5896 H.spc      1 <1>        0.000
     21 H          -7.8118   -5.9961    0.6185 H.spc      1 <1>        0.000
@<TRIPOS>BOND
     1    2    3 1  
     2    9   11 1  
     3    5    6 2  
     4    6    7 1  
     5    4    5 1  
     6    9   10 2  
     7    7    8 2  
     8    3    4 2  
     9    8    9 1  
    10    1    2 2  
    11    1   12 1  
    12    1   13 1  
    13    2   14 1  
    14    3   15 1  
    15    4   16 1  
    16    5   17 1  
    17    6   18 1  
    18    7   19 1  
    19    8   20 1  
    20   11   21 1  
# Name:          frag3-189-7/31924
# Creation time: Sat Jun  5 12:52:10 2010


@<TRIPOS>MOLECULE
frag3-189-7/31924
   21    20     1     1     1
SMALL
USER_CHARGES


@<TRIPOS>ATOM
      1 C15         0.3881   -1.9231   -0.0326 C.2        1 <1>        0.000
      2 C16        -0.3366   -2.5616   -0.9510 C.2        1 <1>        0.000
      3 C17        -1.6155   -3.1817   -0.6983 C.2        1 <1>        0.000
      4 C18        -2.1910   -4.1286   -1.4540 C.2        1 <1>        0.000
      5 C19        -3.4720   -4.7369   -1.1882 C.2        1 <1>        0.000
      6 C20        -4.6112   -4.0523   -0.9727 C.2        1 <1>        0.000
      7 C21        -5.9052   -4.6461   -0.7037 C.2        1 <1>        0.000
      8 C22        -6.3838   -5.7068   -1.3850 C.2        1 <1>        0.000
      9 C23        -7.6900   -6.3293   -1.1270 C.2        1 <1>        0.000
     10 O5         -8.4177   -6.6574   -2.0523 O.2        1 <1>        0.000
     11 O6         -8.0611   -6.5312    0.1420 O.3        1 <1>        0.000
     12 H           0.0225   -1.8430    0.9911 H.spc      1 <1>        0.000
     13 H           1.3464   -1.4810   -0.3052 H.spc      1 <1>        0.000
     14 H           0.0641   -2.6196   -1.9630 H.spc      1 <1>        0.000
     15 H          -2.1619   -2.8511    0.1850 H.spc      1 <1>        0.000
     16 H          -1.6487   -4.4647   -2.3378 H.spc      1 <1>        0.000
     17 H          -3.5209   -5.8254   -1.1599 H.spc      1 <1>        0.000
     18 H          -4.5555   -2.9641   -1.0030 H.spc      1 <1>        0.000
     19 H          -6.5205   -4.2153    0.0862 H.spc      1 <1>        0.000
     20 H          -5.7636   -6.1286   -2.1759 H.spc      1 <1>        0.000
     21 H          -7.3716   -6.2146    0.7301 H.spc      1 <1>        0.000
@<TRIPOS>BOND
     1    2    3 1  
     2    9   11 1  
     3    5    6 2  
     4    6    7 1  
     5    4    5 1  
     6    9   10 2  
     7    7    8 2  
     8    3    4 2  
     9    8    9 1  
    10    1    2 2  
    11    1   12 1  
    12    1   13 1  
    13    2   14 1  
    14    3   15 1  
    15    4   16 1  
    16    5   17 1  
    17    6   18 1  
    18    7   19 1  
    19    8   20 1  
    20   11   21 1  
# Name:          frag3-189-7/31924
# Creation time: Sat Jun  5 12:52:10 2010


@<TRIPOS>MOLECULE
frag3-189-7/31924
   21    20     1     1     1
SMALL
USER_CHARGES


@<TRIPOS>ATOM
      1 C15         0.4547   -2.2092   -0.8396 C.2        1 <1>        0.000
      2 C16        -0.4872   -2.5533    0.0422 C.2        1 <1>        0.000
      3 C17        -1.8169   -2.9757   -0.3267 C.2        1 <1>        0.000
      4 C18        -2.1310   -3.6213   -1.4677 C.2        1 <1>        0.000
      5 C19        -3.4537   -4.0518   -1.8416 C.2        1 <1>        0.000
      6 C20        -4.2257   -4.8703   -1.1080 C.2        1 <1>        0.000
      7 C21        -5.5655   -5.3004   -1.4431 C.2        1 <1>        0.000
      8 C22        -6.4479   -5.7963   -0.5562 C.2        1 <1>        0.000
      9 C23        -7.8096   -6.2255   -0.9062 C.2        1 <1>        0.000
     10 O5         -8.1926   -6.2353   -2.0643 O.2        1 <1>        0.000
     11 O6         -8.6207   -6.6158    0.0886 O.3        1 <1>        0.000
     12 H           0.2383   -2.2384   -1.9075 H.spc      1 <1>        0.000
     13 H           1.4400   -1.8991   -0.4915 H.spc      1 <1>        0.000
     14 H          -0.2372   -2.5128    1.1024 H.spc      1 <1>        0.000
     15 H          -2.6272   -2.7565    0.3686 H.spc      1 <1>        0.000
     16 H          -1.3191   -3.8346   -2.1629 H.spc      1 <1>        0.000
     17 H          -3.8566   -3.6876   -2.7867 H.spc      1 <1>        0.000
     18 H          -3.8041   -5.2446   -0.1751 H.spc      1 <1>        0.000
     19 H          -5.8814   -5.2173   -2.4830 H.spc      1 <1>        0.000
     20 H          -6.1341   -5.8850    0.4839 H.spc      1 <1>        0.000
     21 H          -8.1564   -6.5432    0.9257 H.spc      1 <1>        0.000
@<TRIPOS>BOND
     1    2    3 1  
     2    9   11 1  
     3    5    6 2  
     4    6    7 1  
     5    4    5 1  
     6    9   10 2  
     7    7    8 2  
     8    3    4 2  
     9    8    9 1  
    10    1    2 2  
    11    1   12 1  
    12    1   13 1  
    13    2   14 1  
    14    3   15 1  
    15    4   16 1  
    16    5   17 1  
    17    6   18 1  
    18    7   19 1  
    19    8   20 1  
    20   11   21 1  
# Name:          frag3-189-7/31924
# Creation time: Sat Jun  5 12:52:10 2010


@<TRIPOS>MOLECULE
frag3-189-7/31924
   21    20     1     1     1
SMALL
USER_CHARGES


@<TRIPOS>ATOM
      1 C15         0.0070   -1.5222   -0.8129 C.2        1 <1>        0.000
      2 C16         0.0875   -2.8530   -0.8951 C.2        1 <1>        0.000
      3 C17        -1.0080   -3.7448   -0.5846 C.2        1 <1>        0.000
      4 C18        -2.2952   -3.5184   -0.9041 C.2        1 <1>        0.000
      5 C19        -3.4029   -4.3917   -0.5981 C.2        1 <1>        0.000
      6 C20        -4.6778   -4.1856   -0.9526 C.2        1 <1>        0.000
      7 C21        -5.7902   -5.0669   -0.6580 C.2        1 <1>        0.000
      8 C22        -6.7144   -5.4374   -1.5618 C.2        1 <1>        0.000
      9 C23        -7.8360   -6.3423   -1.2693 C.2        1 <1>        0.000
     10 O5         -8.1564   -7.2159   -2.0607 O.2        1 <1>        0.000
     11 O6         -8.5096   -6.1767   -0.1253 O.3        1 <1>        0.000
     12 H          -0.9237   -1.0510   -0.4969 H.spc      1 <1>        0.000
     13 H           0.8720   -0.9075   -1.0619 H.spc      1 <1>        0.000
     14 H           1.0328   -3.2919   -1.2144 H.spc      1 <1>        0.000
     15 H          -0.7738   -4.6672   -0.0532 H.spc      1 <1>        0.000
     16 H          -2.5208   -2.5964   -1.4400 H.spc      1 <1>        0.000
     17 H          -3.1831   -5.2958   -0.0302 H.spc      1 <1>        0.000
     18 H          -4.8981   -3.2760   -1.5113 H.spc      1 <1>        0.000
     19 H          -5.8832   -5.4525    0.3573 H.spc      1 <1>        0.000
     20 H          -6.6267   -5.0425   -2.5740 H.spc      1 <1>        0.000
     21 H          -8.1233   -5.4507    0.3700 H.spc      1 <1>        0.000
@<TRIPOS>BOND
     1    2    3 1  
     2    9   11 1  
     3    5    6 2  
     4    6    7 1  
     5    4    5 1  
     6    9   10 2  
     7    7    8 2  
     8    3    4 2  
     9    8    9 1  
    10    1    2 2  
    11    1   12 1  
    12    1   13 1  
    13    2   14 1  
    14    3   15 1  
    15    4   16 1  
    16    5   17 1  
    17    6   18 1  
    18    7   19 1  
    19    8   20 1  
    20   11   21 1  
# Name:          frag3-189-7/31924
# Creation time: Sat Jun  5 12:52:10 2010


@<TRIPOS>MOLECULE
frag3-189-7/31924
   21    20     1     1     1
SMALL
USER_CHARGES


@<TRIPOS>ATOM
      1 C15         0.5071   -2.2472    0.0663 C.2        1 <1>        0.000
      2 C16        -0.3649   -2.5323   -0.9003 C.2        1 <1>        0.000
      3 C17        -1.6478   -3.1585   -0.6877 C.2        1 <1>        0.000
      4 C18        -2.6295   -3.2646   -1.5945 C.2        1 <1>        0.000
      5 C19        -3.9029   -3.9016   -1.3676 C.2        1 <1>        0.000
      6 C20        -4.0585   -5.1695   -0.9421 C.2        1 <1>        0.000
      7 C21        -5.3302   -5.8177   -0.6933 C.2        1 <1>        0.000
      8 C22        -6.4664   -5.4769   -1.3352 C.2        1 <1>        0.000
      9 C23        -7.7695   -6.1123   -1.0977 C.2        1 <1>        0.000
     10 O5         -8.5380   -6.3227   -2.0246 O.2        1 <1>        0.000
     11 O6         -8.0955   -6.4517    0.1541 O.3        1 <1>        0.000
     12 H           0.2704   -2.4888    1.1025 H.spc      1 <1>        0.000
     13 H           1.4570   -1.7724   -0.1793 H.spc      1 <1>        0.000
     14 H          -0.0900   -2.2745   -1.9231 H.spc      1 <1>        0.000
     15 H          -1.8353   -3.5832    0.2985 H.spc      1 <1>        0.000
     16 H          -2.4510   -2.8357   -2.5805 H.spc      1 <1>        0.000
     17 H          -4.8029   -3.3155   -1.5536 H.spc      1 <1>        0.000
     18 H          -3.1553   -5.7553   -0.7711 H.spc      1 <1>        0.000
     19 H          -5.3705   -6.6173    0.0464 H.spc      1 <1>        0.000
     20 H          -6.4145   -4.6798   -2.0769 H.spc      1 <1>        0.000
     21 H          -7.3782   -6.2138    0.7461 H.spc      1 <1>        0.000
@<TRIPOS>BOND
     1    2    3 1  
     2    9   11 1  
     3    5    6 2  
     4    6    7 1  
     5    4    5 1  
     6    9   10 2  
     7    7    8 2  
     8    3    4 2  
     9    8    9 1  
    10    1    2 2  
    11    1   12 1  
    12    1   13 1  
    13    2   14 1  
    14    3   15 1  
    15    4   16 1  
    16    5   17 1  
    17    6   18 1  
    18    7   19 1  
    19    8   20 1  
    20   11   21 1  
# Name:          frag3-189-7/31924
# Creation time: Sat Jun  5 12:52:10 2010


@<TRIPOS>MOLECULE
frag3-189-7/31924
   21    20     1     1     1
SMALL
USER_CHARGES


@<TRIPOS>ATOM
      1 C15         0.5365   -2.9221   -0.7433 C.2        1 <1>        0.000
      2 C16        -0.4630   -2.2355   -1.3025 C.2        1 <1>        0.000
      3 C17        -1.8104   -2.7403   -1.4365 C.2        1 <1>        0.000
      4 C18        -2.4743   -3.4199   -0.4850 C.2        1 <1>        0.000
      5 C19        -3.8121   -3.9430   -0.6033 C.2        1 <1>        0.000
      6 C20        -4.2735   -5.0508   -0.0025 C.2        1 <1>        0.000
      7 C21        -5.6175   -5.5757   -0.1319 C.2        1 <1>        0.000
      8 C22        -6.2698   -5.6526   -1.3098 C.2        1 <1>        0.000
      9 C23        -7.6366   -6.1702   -1.4630 C.2        1 <1>        0.000
     10 O5         -7.9807   -6.7237   -2.4969 O.2        1 <1>        0.000
     11 O6         -8.4948   -6.0209   -0.4480 O.3        1 <1>        0.000
     12 H           0.3586   -3.9250   -0.3553 H.spc      1 <1>        0.000
     13 H           1.5303   -2.4796   -0.6749 H.spc      1 <1>        0.000
     14 H          -0.2500   -1.2354   -1.6801 H.spc      1 <1>        0.000
     15 H          -2.3268   -2.5565   -2.3787 H.spc      1 <1>        0.000
     16 H          -1.9554   -3.5901    0.4583 H.spc      1 <1>        0.000
     17 H          -4.5087   -3.3916   -1.2348 H.spc      1 <1>        0.000
     18 H          -3.5806   -5.6003    0.6347 H.spc      1 <1>        0.000
     19 H          -6.1263   -5.9255    0.7664 H.spc      1 <1>        0.000
     20 H          -5.7505   -5.3092   -2.2045 H.spc      1 <1>        0.000
     21 H          -8.0565   -5.5682    0.2762 H.spc      1 <1>        0.000
@<TRIPOS>BOND
     1    2    3 1  
     2    9   11 1  
     3    5    6 2  
     4    6    7 1  
     5    4    5 1  
     6    9   10 2  
     7    7    8 2  
     8    3    4 2  
     9    8    9 1  
    10    1    2 2  
    11    1   12 1  
    12    1   13 1  
    13    2   14 1  
    14    3   15 1  
    15    4   16 1  
    16    5   17 1  
    17    6   18 1  
    18    7   19 1  
    19    8   20 1  
    20   11   21 1  
# Name:          frag3-189-7/31924
# Creation time: Sat Jun  5 12:52:10 2010


@<TRIPOS>MOLECULE
frag3-189-7/31924
   21    20     1     1     1
SMALL
USER_CHARGES


@<TRIPOS>ATOM
      1 C15         0.3269   -2.0222   -0.7417 C.2        1 <1>        0.000
      2 C16        -0.1825   -3.1017   -1.3403 C.2        1 <1>        0.000
      3 C17        -1.5836   -3.4488   -1.3126 C.2        1 <1>        0.000
      4 C18        -2.4192   -3.1943   -0.2863 C.2        1 <1>        0.000
      5 C19        -3.8188   -3.5393   -0.2506 C.2        1 <1>        0.000
      6 C20        -4.3092   -4.7592   -0.5267 C.2        1 <1>        0.000
      7 C21        -5.7068   -5.1330   -0.5115 C.2        1 <1>        0.000
      8 C22        -6.2760   -5.9662   -1.3992 C.2        1 <1>        0.000
      9 C23        -7.7005   -6.3318   -1.3934 C.2        1 <1>        0.000
     10 O5         -8.2509   -6.7057   -2.4189 O.2        1 <1>        0.000
     11 O6         -8.3755   -6.2529   -0.2415 O.3        1 <1>        0.000
     12 H          -0.3265   -1.3442   -0.1926 H.spc      1 <1>        0.000
     13 H           1.3961   -1.8190   -0.8022 H.spc      1 <1>        0.000
     14 H           0.4988   -3.7587   -1.8810 H.spc      1 <1>        0.000
     15 H          -1.9960   -3.9539   -2.1861 H.spc      1 <1>        0.000
     16 H          -2.0044   -2.6879    0.5853 H.spc      1 <1>        0.000
     17 H          -4.5277   -2.7564    0.0190 H.spc      1 <1>        0.000
     18 H          -3.5901   -5.5365   -0.7852 H.spc      1 <1>        0.000
     19 H          -6.3388   -4.7117    0.2703 H.spc      1 <1>        0.000
     20 H          -5.6414   -6.3986   -2.1728 H.spc      1 <1>        0.000
     21 H          -7.7880   -5.9433    0.4518 H.spc      1 <1>        0.000
@<TRIPOS>BOND
     1    2    3 1  
     2    9   11 1  
     3    5    6 2  
     4    6    7 1  
     5    4    5 1  
     6    9   10 2  
     7    7    8 2  
     8    3    4 2  
     9    8    9 1  
    10    1    2 2  
    11    1   12 1  
    12    1   13 1  
    13    2   14 1  
    14    3   15 1  
    15    4   16 1  
    16    5   17 1  
    17    6   18 1  
    18    7   19 1  
    19    8   20 1  
    20   11   21 1  
# Name:          frag3-189-7/31924
# Creation time: Sat Jun  5 12:52:10 2010


@<TRIPOS>MOLECULE
frag3-189-7/31924
   21    20     1     1     1
SMALL
USER_CHARGES


@<TRIPOS>ATOM
      1 C15         1.0289   -2.3733   -0.5631 C.2        1 <1>        0.000
      2 C16        -0.2959   -2.2392   -0.5002 C.2        1 <1>        0.000
      3 C17        -1.2337   -3.3317   -0.6416 C.2        1 <1>        0.000
      4 C18        -2.4579   -3.2430   -1.1798 C.2        1 <1>        0.000
      5 C19        -3.3926   -4.3355   -1.3213 C.2        1 <1>        0.000
      6 C20        -4.6958   -4.2821   -1.0144 C.2        1 <1>        0.000
      7 C21        -5.6416   -5.3731   -1.1480 C.2        1 <1>        0.000
      8 C22        -6.9604   -5.2625   -0.9042 C.2        1 <1>        0.000
      9 C23        -7.9147   -6.3718   -1.0432 C.2        1 <1>        0.000
     10 O5         -7.7892   -7.2080   -1.9216 O.2        1 <1>        0.000
     11 O6         -8.9433   -6.4347   -0.1852 O.3        1 <1>        0.000
     12 H           1.4699   -3.3559   -0.7309 H.spc      1 <1>        0.000
     13 H           1.6712   -1.5004   -0.4467 H.spc      1 <1>        0.000
     14 H          -0.6991   -1.2407   -0.3311 H.spc      1 <1>        0.000
     15 H          -0.9178   -4.3101   -0.2797 H.spc      1 <1>        0.000
     16 H          -2.7749   -2.2647   -1.5410 H.spc      1 <1>        0.000
     17 H          -3.0069   -5.2785   -1.7087 H.spc      1 <1>        0.000
     18 H          -5.0783   -3.3362   -0.6309 H.spc      1 <1>        0.000
     19 H          -5.2605   -6.3436   -1.4658 H.spc      1 <1>        0.000
     20 H          -7.3435   -4.2933   -0.5849 H.spc      1 <1>        0.000
     21 H          -8.8867   -5.7038    0.4346 H.spc      1 <1>        0.000
@<TRIPOS>BOND
     1    2    3 1  
     2    9   11 1  
     3    5    6 2  
     4    6    7 1  
     5    4    5 1  
     6    9   10 2  
     7    7    8 2  
     8    3    4 2  
     9    8    9 1  
    10    1    2 2  
    11    1   12 1  
    12    1   13 1  
    13    2   14 1  
    14    3   15 1  
    15    4   16 1  
    16    5   17 1  
    17    6   18 1  
    18    7   19 1  
    19    8   20 1  
    20   11   21 1  
# Name:          frag3-189-7/31924
# Creation time: Sat Jun  5 12:52:11 2010


@<TRIPOS>MOLECULE
frag3-189-7/31924
   21    20     1     1     1
SMALL
USER_CHARGES


@<TRIPOS>ATOM
      1 C15         0.5501   -2.6523   -1.8630 C.2        1 <1>        0.000
      2 C16        -0.4661   -2.4100   -1.0354 C.2        1 <1>        0.000
      3 C17        -1.6297   -3.2542   -0.9012 C.2        1 <1>        0.000
      4 C18        -2.3932   -3.3673    0.1971 C.2        1 <1>        0.000
      5 C19        -3.5560   -4.2153    0.3143 C.2        1 <1>        0.000
      6 C20        -4.5017   -4.3429   -0.6325 C.2        1 <1>        0.000
      7 C21        -5.6697   -5.1961   -0.5529 C.2        1 <1>        0.000
      8 C22        -6.5000   -5.4388   -1.5810 C.2        1 <1>        0.000
      9 C23        -7.6815   -6.3090   -1.4965 C.2        1 <1>        0.000
     10 O5         -7.6395   -7.4631   -1.8928 O.2        1 <1>        0.000
     11 O6         -8.8087   -5.8060   -0.9786 O.3        1 <1>        0.000
     12 H           0.5369   -3.5386   -2.4973 H.spc      1 <1>        0.000
     13 H           1.3943   -1.9642   -1.9055 H.spc      1 <1>        0.000
     14 H          -0.4153   -1.5133   -0.4177 H.spc      1 <1>        0.000
     15 H          -1.9130   -3.8520   -1.7675 H.spc      1 <1>        0.000
     16 H          -2.1139   -2.7733    1.0673 H.spc      1 <1>        0.000
     17 H          -3.6750   -4.7908    1.2323 H.spc      1 <1>        0.000
     18 H          -4.3788   -3.7522   -1.5403 H.spc      1 <1>        0.000
     19 H          -5.8892   -5.6720    0.4029 H.spc      1 <1>        0.000
     20 H          -6.2841   -4.9609   -2.5366 H.spc      1 <1>        0.000
     21 H          -8.6616   -4.8929   -0.7212 H.spc      1 <1>        0.000
@<TRIPOS>BOND
     1    2    3 1  
     2    9   11 1  
     3    5    6 2  
     4    6    7 1  
     5    4    5 1  
     6    9   10 2  
     7    7    8 2  
     8    3    4 2  
     9    8    9 1  
    10    1    2 2  
    11    1   12 1  
    12    1   13 1  
    13    2   14 1  
    14    3   15 1  
    15    4   16 1  
    16    5   17 1  
    17    6   18 1  
    18    7   19 1  
    19    8   20 1  
    20   11   21 1  
# Name:          frag3-189-7/31924
# Creation time: Sat Jun  5 12:52:11 2010


@<TRIPOS>MOLECULE
frag3-189-7/31924
   21    20     1     1     1
SMALL
USER_CHARGES


@<TRIPOS>ATOM
      1 C15         0.3757   -2.4172   -0.2635 C.2        1 <1>        0.000
      2 C16        -0.2325   -3.0155   -1.2775 C.2        1 <1>        0.000
      3 C17        -1.5234   -3.6160   -1.2347 C.2        1 <1>        0.000
      4 C18        -2.5115   -3.2952   -0.4021 C.2        1 <1>        0.000
      5 C19        -3.8075   -3.8915   -0.3409 C.2        1 <1>        0.000
      6 C20        -4.7200   -3.8947   -1.3029 C.2        1 <1>        0.000
      7 C21        -6.0243   -4.5000   -1.2935 C.2        1 <1>        0.000
      8 C22        -6.2249   -5.8181   -1.1313 C.2        1 <1>        0.000
      9 C23        -7.5363   -6.4668   -1.1142 C.2        1 <1>        0.000
     10 O5         -7.9850   -6.9654   -2.1332 O.2        1 <1>        0.000
     11 O6         -8.1064   -6.5744    0.0712 O.3        1 <1>        0.000
     12 H          -0.1163   -2.3550    0.7072 H.spc      1 <1>        0.000
     13 H           1.3680   -1.9872   -0.4001 H.spc      1 <1>        0.000
     14 H           0.3016   -3.0512   -2.2270 H.spc      1 <1>        0.000
     15 H          -1.7209   -4.4134   -1.9512 H.spc      1 <1>        0.000
     16 H          -2.3099   -2.4928    0.3076 H.spc      1 <1>        0.000
     17 H          -4.0731   -4.3940    0.5892 H.spc      1 <1>        0.000
     18 H          -4.4462   -3.3711   -2.2188 H.spc      1 <1>        0.000
     19 H          -6.8943   -3.8565   -1.4247 H.spc      1 <1>        0.000
     20 H          -5.3466   -6.4508   -1.0030 H.spc      1 <1>        0.000
     21 H          -7.5798   -6.1048    0.7221 H.spc      1 <1>        0.000
@<TRIPOS>BOND
     1    2    3 1  
     2    9   11 1  
     3    5    6 2  
     4    6    7 1  
     5    4    5 1  
     6    9   10 2  
     7    7    8 2  
     8    3    4 2  
     9    8    9 1  
    10    1    2 2  
    11    1   12 1  
    12    1   13 1  
    13    2   14 1  
    14    3   15 1  
    15    4   16 1  
    16    5   17 1  
    17    6   18 1  
    18    7   19 1  
    19    8   20 1  
    20   11   21 1  
# Name:          frag3-189-7/31924
# Creation time: Sat Jun  5 12:52:11 2010


@<TRIPOS>MOLECULE
frag3-189-7/31924
   21    20     1     1     1
SMALL
USER_CHARGES


@<TRIPOS>ATOM
      1 C15         0.1864   -1.9281   -1.3659 C.2        1 <1>        0.000
      2 C16        -0.2796   -2.6551   -0.3482 C.2        1 <1>        0.000
      3 C17        -1.6461   -3.1093   -0.2434 C.2        1 <1>        0.000
      4 C18        -2.3722   -3.6061   -1.2608 C.2        1 <1>        0.000
      5 C19        -3.7345   -4.0663   -1.1639 C.2        1 <1>        0.000
      6 C20        -4.1254   -5.1716   -0.5063 C.2        1 <1>        0.000
      7 C21        -5.4925   -5.6347   -0.3849 C.2        1 <1>        0.000
      8 C22        -6.3620   -5.6425   -1.4144 C.2        1 <1>        0.000
      9 C23        -7.7568   -6.0950   -1.3130 C.2        1 <1>        0.000
     10 O5         -8.3198   -6.5964   -2.2758 O.2        1 <1>        0.000
     11 O6         -8.3936   -5.9500   -0.1460 O.3        1 <1>        0.000
     12 H          -0.4781   -1.6439   -2.1819 H.spc      1 <1>        0.000
     13 H           1.2314   -1.6186   -1.3811 H.spc      1 <1>        0.000
     14 H           0.4122   -2.9216    0.4509 H.spc      1 <1>        0.000
     15 H          -2.1253   -3.0448    0.7335 H.spc      1 <1>        0.000
     16 H          -1.8915   -3.6654   -2.2373 H.spc      1 <1>        0.000
     17 H          -4.5040   -3.4749   -1.6601 H.spc      1 <1>        0.000
     18 H          -3.3503   -5.7681   -0.0251 H.spc      1 <1>        0.000
     19 H          -5.8343   -5.9941    0.5857 H.spc      1 <1>        0.000
     20 H          -6.0086   -5.2910   -2.3837 H.spc      1 <1>        0.000
     21 H          -7.8028   -5.5417    0.4911 H.spc      1 <1>        0.000
@<TRIPOS>BOND
     1    2    3 1  
     2    9   11 1  
     3    5    6 2  
     4    6    7 1  
     5    4    5 1  
     6    9   10 2  
     7    7    8 2  
     8    3    4 2  
     9    8    9 1  
    10    1    2 2  
    11    1   12 1  
    12    1   13 1  
    13    2   14 1  
    14    3   15 1  
    15    4   16 1  
    16    5   17 1  
    17    6   18 1  
    18    7   19 1  
    19    8   20 1  
    20   11   21 1  
# Name:          frag3-189-7/31924
# Creation time: Sat Jun  5 12:52:11 2010


@<TRIPOS>MOLECULE
frag3-189-7/31924
   21    20     1     1     1
SMALL
USER_CHARGES


@<TRIPOS>ATOM
      1 C15         0.5499   -2.5548   -0.5216 C.2        1 <1>        0.000
      2 C16        -0.6525   -1.9747   -0.5142 C.2        1 <1>        0.000
      3 C17        -1.8923   -2.6956   -0.3368 C.2        1 <1>        0.000
      4 C18        -2.2744   -3.7595   -1.0647 C.2        1 <1>        0.000
      5 C19        -3.5044   -4.4933   -0.8985 C.2        1 <1>        0.000
      6 C20        -4.1900   -5.0984   -1.8808 C.2        1 <1>        0.000
      7 C21        -5.4315   -5.8272   -1.7114 C.2        1 <1>        0.000
      8 C22        -6.5130   -5.3100   -1.0914 C.2        1 <1>        0.000
      9 C23        -7.7745   -6.0390   -0.9004 C.2        1 <1>        0.000
     10 O5         -8.4830   -6.3295   -1.8503 O.2        1 <1>        0.000
     11 O6         -8.1303   -6.3730    0.3475 O.3        1 <1>        0.000
     12 H           0.6355   -3.6333   -0.3886 H.spc      1 <1>        0.000
     13 H           1.4460   -1.9500   -0.6606 H.spc      1 <1>        0.000
     14 H          -0.7019   -0.8943   -0.6499 H.spc      1 <1>        0.000
     15 H          -2.5683   -2.3510    0.4457 H.spc      1 <1>        0.000
     16 H          -1.5956   -4.0964   -1.8482 H.spc      1 <1>        0.000
     17 H          -3.9118   -4.5624    0.1101 H.spc      1 <1>        0.000
     18 H          -3.7796   -5.0368   -2.8887 H.spc      1 <1>        0.000
     19 H          -5.4947   -6.8422   -2.1038 H.spc      1 <1>        0.000
     20 H          -6.4468   -4.2912   -0.7097 H.spc      1 <1>        0.000
     21 H          -7.4599   -6.0672    0.9629 H.spc      1 <1>        0.000
@<TRIPOS>BOND
     1    2    3 1  
     2    9   11 1  
     3    5    6 2  
     4    6    7 1  
     5    4    5 1  
     6    9   10 2  
     7    7    8 2  
     8    3    4 2  
     9    8    9 1  
    10    1    2 2  
    11    1   12 1  
    12    1   13 1  
    13    2   14 1  
    14    3   15 1  
    15    4   16 1  
    16    5   17 1  
    17    6   18 1  
    18    7   19 1  
    19    8   20 1  
    20   11   21 1  
# Name:          frag3-189-7/31924 -- energy: -0.400265
# Creation time: Sat Jun  5 12:52:11 2010


@<TRIPOS>MOLECULE
frag3-189-7/31924 -- energy: -0.400265
   21    20     1     1     1
SMALL
USER_CHARGES


@<TRIPOS>ATOM
      1 C15         1.0611   -2.5159   -0.4498 C.2        1 <1>        0.000
      2 C16        -0.1799   -2.3151   -0.8957 C.2        1 <1>        0.000
      3 C17        -1.3463   -3.0208   -0.3986 C.2        1 <1>        0.000
      4 C18        -2.4177   -3.3539   -1.1311 C.2        1 <1>        0.000
      5 C19        -3.5799   -4.0649   -0.6364 C.2        1 <1>        0.000
      6 C20        -4.6646   -4.3650   -1.3624 C.2        1 <1>        0.000
      7 C21        -5.8293   -5.0841   -0.8740 C.2        1 <1>        0.000
      8 C22        -6.6981   -5.7306   -1.6686 C.2        1 <1>        0.000
      9 C23        -7.8751   -6.4610   -1.1792 C.2        1 <1>        0.000
     10 O5         -8.5609   -7.1268   -1.9423 O.2        1 <1>        0.000
     11 O6         -8.2052   -6.4169    0.1155 O.3        1 <1>        0.000
     12 H           1.2460   -3.2482    0.3361 H.spc      1 <1>        0.000
     13 H           1.8903   -1.9477   -0.8713 H.spc      1 <1>        0.000
     14 H          -0.3270   -1.5750   -1.6823 H.spc      1 <1>        0.000
     15 H          -1.3513   -3.3023    0.6544 H.spc      1 <1>        0.000
     16 H          -2.4151   -3.0674   -2.1828 H.spc      1 <1>        0.000
     17 H          -3.5703   -4.3797    0.4071 H.spc      1 <1>        0.000
     18 H          -4.6747   -4.0439   -2.4040 H.spc      1 <1>        0.000
     19 H          -6.0085   -5.0997    0.2011 H.spc      1 <1>        0.000
     20 H          -6.5187   -5.7122   -2.7436 H.spc      1 <1>        0.000
     21 H          -7.5802   -5.8597    0.5851 H.spc      1 <1>        0.000
@<TRIPOS>BOND
     1    2    3 1  
     2    9   11 1  
     3    5    6 2  
     4    6    7 1  
     5    4    5 1  
     6    9   10 2  
     7    7    8 2  
     8    3    4 2  
     9    8    9 1  
    10    1    2 2  
    11    1   12 1  
    12    1   13 1  
    13    2   14 1  
    14    3   15 1  
    15    4   16 1  
    16    5   17 1  
    17    6   18 1  
    18    7   19 1  
    19    8   20 1  
    20   11   21 1  
# Name:          frag3-189-7/31924 -- energy: -1.693125
# Creation time: Sat Jun  5 12:52:11 2010


@<TRIPOS>MOLECULE
frag3-189-7/31924 -- energy: -1.693125
   21    20     1     1     1
SMALL
USER_CHARGES


@<TRIPOS>ATOM
      1 C15         0.3609   -2.7066    0.5337 C.2        1 <1>        0.000
      2 C16        -0.3951   -2.5440   -0.5517 C.2        1 <1>        0.000
      3 C17        -1.5743   -3.3224   -0.8510 C.2        1 <1>        0.000
      4 C18        -2.4329   -3.0897   -1.8563 C.2        1 <1>        0.000
      5 C19        -3.6110   -3.8771   -2.1367 C.2        1 <1>        0.000
      6 C20        -4.3925   -4.4359   -1.1956 C.2        1 <1>        0.000
      7 C21        -5.5786   -5.2288   -1.4437 C.2        1 <1>        0.000
      8 C22        -6.4995   -5.5252   -0.5073 C.2        1 <1>        0.000
      9 C23        -7.7034   -6.3249   -0.7671 C.2        1 <1>        0.000
     10 O5         -8.1693   -6.4257   -1.8904 O.2        1 <1>        0.000
     11 O6         -8.3003   -6.9746    0.2433 O.3        1 <1>        0.000
     12 H           0.1029   -3.4694    1.2683 H.spc      1 <1>        0.000
     13 H           1.2373   -2.0768    0.6868 H.spc      1 <1>        0.000
     14 H          -0.1035   -1.7706   -1.2622 H.spc      1 <1>        0.000
     15 H          -1.7856   -4.1736   -0.2037 H.spc      1 <1>        0.000
     16 H          -2.2255   -2.2427   -2.5103 H.spc      1 <1>        0.000
     17 H          -3.8849   -4.0285   -3.1808 H.spc      1 <1>        0.000
     18 H          -4.1083   -4.2782   -0.1552 H.spc      1 <1>        0.000
     19 H          -5.7358   -5.6099   -2.4527 H.spc      1 <1>        0.000
     20 H          -6.3421   -5.1492    0.5036 H.spc      1 <1>        0.000
     21 H          -7.8247   -6.8014    1.0590 H.spc      1 <1>        0.000
@<TRIPOS>BOND
     1    2    3 1  
     2    9   11 1  
     3    5    6 2  
     4    6    7 1  
     5    4    5 1  
     6    9   10 2  
     7    7    8 2  
     8    3    4 2  
     9    8    9 1  
    10    1    2 2  
    11    1   12 1  
    12    1   13 1  
    13    2   14 1  
    14    3   15 1  
    15    4   16 1  
    16    5   17 1  
    17    6   18 1  
    18    7   19 1  
    19    8   20 1  
    20   11   21 1  
# Name:          frag3-189-7/31924 -- energy: -0.976665
# Creation time: Sat Jun  5 12:52:11 2010


@<TRIPOS>MOLECULE
frag3-189-7/31924 -- energy: -0.976665
   21    20     1     1     1
SMALL
USER_CHARGES


@<TRIPOS>ATOM
      1 C15         0.2144   -2.3331   -1.7523 C.2        1 <1>        0.000
      2 C16        -0.0526   -3.0213   -0.6389 C.2        1 <1>        0.000
      3 C17        -1.3414   -3.6220   -0.3555 C.2        1 <1>        0.000
      4 C18        -2.5166   -2.9667   -0.4043 C.2        1 <1>        0.000
      5 C19        -3.8079   -3.5653   -0.1406 C.2        1 <1>        0.000
      6 C20        -4.4724   -4.3503   -1.0035 C.2        1 <1>        0.000
      7 C21        -5.7584   -4.9758   -0.7508 C.2        1 <1>        0.000
      8 C22        -6.3727   -5.8051   -1.6105 C.2        1 <1>        0.000
      9 C23        -7.6730   -6.4385   -1.3569 C.2        1 <1>        0.000
     10 O5         -8.0618   -7.3695   -2.0490 O.2        1 <1>        0.000
     11 O6         -8.4537   -6.0074   -0.3606 O.3        1 <1>        0.000
     12 H          -0.5590   -2.1985   -2.5085 H.spc      1 <1>        0.000
     13 H           1.2057   -1.9062   -1.9046 H.spc      1 <1>        0.000
     14 H           0.7426   -3.1377    0.0974 H.spc      1 <1>        0.000
     15 H          -1.3602   -4.6775   -0.0841 H.spc      1 <1>        0.000
     16 H          -2.4939   -1.9077   -0.6612 H.spc      1 <1>        0.000
     17 H          -4.2726   -3.3650    0.8248 H.spc      1 <1>        0.000
     18 H          -4.0088   -4.5331   -1.9729 H.spc      1 <1>        0.000
     19 H          -6.2557   -4.7590    0.1946 H.spc      1 <1>        0.000
     20 H          -5.8748   -6.0215   -2.5557 H.spc      1 <1>        0.000
     21 H          -8.0213   -5.2788    0.0909 H.spc      1 <1>        0.000
@<TRIPOS>BOND
     1    2    3 1  
     2    9   11 1  
     3    5    6 2  
     4    6    7 1  
     5    4    5 1  
     6    9   10 2  
     7    7    8 2  
     8    3    4 2  
     9    8    9 1  
    10    1    2 2  
    11    1   12 1  
    12    1   13 1  
    13    2   14 1  
    14    3   15 1  
    15    4   16 1  
    16    5   17 1  
    17    6   18 1  
    18    7   19 1  
    19    8   20 1  
    20   11   21 1  
# Name:          frag3-189-7/31924 -- energy: -1.505382
# Creation time: Sat Jun  5 12:52:11 2010


@<TRIPOS>MOLECULE
frag3-189-7/31924 -- energy: -1.505382
   21    20     1     1     1
SMALL
USER_CHARGES


@<TRIPOS>ATOM
      1 C15         0.7334   -1.6549   -1.0599 C.2        1 <1>        0.000
      2 C16        -0.1369   -2.4702   -0.4644 C.2        1 <1>        0.000
      3 C17        -1.3114   -3.0209   -1.1060 C.2        1 <1>        0.000
      4 C18        -2.2416   -3.7793   -0.5115 C.2        1 <1>        0.000
      5 C19        -3.4163   -4.3255   -1.1523 C.2        1 <1>        0.000
      6 C20        -4.4408   -4.9140   -0.5217 C.2        1 <1>        0.000
      7 C21        -5.6273   -5.4526   -1.1578 C.2        1 <1>        0.000
      8 C22        -6.7863   -5.6875   -0.5147 C.2        1 <1>        0.000
      9 C23        -7.9876   -6.2307   -1.1653 C.2        1 <1>        0.000
     10 O5         -7.9712   -6.5864   -2.3310 O.2        1 <1>        0.000
     11 O6         -9.1100   -6.3330   -0.4381 O.3        1 <1>        0.000
     12 H           0.5826   -1.3618   -2.0989 H.spc      1 <1>        0.000
     13 H           1.5958   -1.2813   -0.5079 H.spc      1 <1>        0.000
     14 H           0.0484   -2.7402    0.5753 H.spc      1 <1>        0.000
     15 H          -1.4510   -2.7994   -2.1641 H.spc      1 <1>        0.000
     16 H          -2.1007   -4.0037    0.5458 H.spc      1 <1>        0.000
     17 H          -3.4731   -4.2524   -2.2384 H.spc      1 <1>        0.000
     18 H          -4.3772   -4.9951    0.5634 H.spc      1 <1>        0.000
     19 H          -5.5777   -5.6814   -2.2224 H.spc      1 <1>        0.000
     20 H          -6.8371   -5.4618    0.5505 H.spc      1 <1>        0.000
     21 H          -8.9447   -6.0100    0.4507 H.spc      1 <1>        0.000
@<TRIPOS>BOND
     1    2    3 1  
     2    9   11 1  
     3    5    6 2  
     4    6    7 1  
     5    4    5 1  
     6    9   10 2  
     7    7    8 2  
     8    3    4 2  
     9    8    9 1  
    10    1    2 2  
    11    1   12 1  
    12    1   13 1  
    13    2   14 1  
    14    3   15 1  
    15    4   16 1  
    16    5   17 1  
    17    6   18 1  
    18    7   19 1  
    19    8   20 1  
    20   11   21 1  
# Name:          frag3-189-7/31924 -- energy: -1.638025
# Creation time: Sat Jun  5 12:52:11 2010


@<TRIPOS>MOLECULE
frag3-189-7/31924 -- energy: -1.638025
   21    20     1     1     1
SMALL
USER_CHARGES


@<TRIPOS>ATOM
      1 C15         0.6190   -2.3286    0.2798 C.2        1 <1>        0.000
      2 C16        -0.2322   -2.6661   -0.6888 C.2        1 <1>        0.000
      3 C17        -1.5797   -3.1407   -0.4642 C.2        1 <1>        0.000
      4 C18        -2.4332   -3.5470   -1.4127 C.2        1 <1>        0.000
      5 C19        -3.7775   -4.0229   -1.1877 C.2        1 <1>        0.000
      6 C20        -4.6329   -4.4187   -2.1432 C.2        1 <1>        0.000
      7 C21        -5.9781   -4.9070   -1.9114 C.2        1 <1>        0.000
      8 C22        -6.2702   -5.8580   -0.9971 C.2        1 <1>        0.000
      9 C23        -7.6287   -6.3587   -0.7449 C.2        1 <1>        0.000
     10 O5         -8.5410   -6.1315   -1.5209 O.2        1 <1>        0.000
     11 O6         -7.8413   -7.0758    0.3684 O.3        1 <1>        0.000
     12 H           0.3139   -2.4024    1.3236 H.spc      1 <1>        0.000
     13 H           1.6202   -1.9788    0.0281 H.spc      1 <1>        0.000
     14 H           0.1105   -2.5785   -1.7198 H.spc      1 <1>        0.000
     15 H          -1.9313   -3.1703    0.5671 H.spc      1 <1>        0.000
     16 H          -2.0825   -3.5157   -2.4443 H.spc      1 <1>        0.000
     17 H          -4.1268   -4.0642   -0.1560 H.spc      1 <1>        0.000
     18 H          -4.2886   -4.3690   -3.1762 H.spc      1 <1>        0.000
     19 H          -6.7921   -4.4872   -2.5024 H.spc      1 <1>        0.000
     20 H          -5.4513   -6.2779   -0.4131 H.spc      1 <1>        0.000
     21 H          -7.0194   -7.1558    0.8580 H.spc      1 <1>        0.000
@<TRIPOS>BOND
     1    2    3 1  
     2    9   11 1  
     3    5    6 2  
     4    6    7 1  
     5    4    5 1  
     6    9   10 2  
     7    7    8 2  
     8    3    4 2  
     9    8    9 1  
    10    1    2 2  
    11    1   12 1  
    12    1   13 1  
    13    2   14 1  
    14    3   15 1  
    15    4   16 1  
    16    5   17 1  
    17    6   18 1  
    18    7   19 1  
    19    8   20 1  
    20   11   21 1  
# Name:          frag3-189-7/31924 -- energy: 0.111099
# Creation time: Sat Jun  5 12:52:11 2010


@<TRIPOS>MOLECULE
frag3-189-7/31924 -- energy: 0.111099
   21    20     1     1     1
SMALL
USER_CHARGES


@<TRIPOS>ATOM
      1 C15         0.7862   -2.4620   -1.6037 C.2        1 <1>        0.000
      2 C16        -0.2178   -2.6756   -0.7533 C.2        1 <1>        0.000
      3 C17        -1.5205   -3.1751   -1.1357 C.2        1 <1>        0.000
      4 C18        -2.5120   -3.4941   -0.2941 C.2        1 <1>        0.000
      5 C19        -3.8124   -3.9932   -0.6764 C.2        1 <1>        0.000
      6 C20        -4.7807   -4.3702    0.1728 C.2        1 <1>        0.000
      7 C21        -6.0852   -4.8698   -0.2152 C.2        1 <1>        0.000
      8 C22        -6.2578   -5.8764   -1.0957 C.2        1 <1>        0.000
      9 C23        -7.5701   -6.3887   -1.5145 C.2        1 <1>        0.000
     10 O5         -7.6555   -7.2660   -2.3613 O.2        1 <1>        0.000
     11 O6         -8.6702   -5.8837   -0.9457 O.3        1 <1>        0.000
     12 H           0.6533   -2.6661   -2.6661 H.spc      1 <1>        0.000
     13 H           1.7401   -2.0832   -1.2367 H.spc      1 <1>        0.000
     14 H          -0.0457   -2.4594    0.3011 H.spc      1 <1>        0.000
     15 H          -1.7115   -3.3029   -2.2012 H.spc      1 <1>        0.000
     16 H          -2.3213   -3.3661    0.7714 H.spc      1 <1>        0.000
     17 H          -4.0248   -4.0700   -1.7427 H.spc      1 <1>        0.000
     18 H          -4.5696   -4.2948    1.2395 H.spc      1 <1>        0.000
     19 H          -6.9692   -4.4095    0.2262 H.spc      1 <1>        0.000
     20 H          -5.3684   -6.3390   -1.5236 H.spc      1 <1>        0.000
     21 H          -8.4196   -5.2104   -0.3089 H.spc      1 <1>        0.000
@<TRIPOS>BOND
     1    2    3 1  
     2    9   11 1  
     3    5    6 2  
     4    6    7 1  
     5    4    5 1  
     6    9   10 2  
     7    7    8 2  
     8    3    4 2  
     9    8    9 1  
    10    1    2 2  
    11    1   12 1  
    12    1   13 1  
    13    2   14 1  
    14    3   15 1  
    15    4   16 1  
    16    5   17 1  
    17    6   18 1  
    18    7   19 1  
    19    8   20 1  
    20   11   21 1  
# Name:          frag3-189-7/31924 -- energy: -0.899220
# Creation time: Sat Jun  5 12:52:11 2010


@<TRIPOS>MOLECULE
frag3-189-7/31924 -- energy: -0.899220
   21    20     1     1     1
SMALL
USER_CHARGES


@<TRIPOS>ATOM
      1 C15         0.4872   -2.5869   -1.4122 C.2        1 <1>        0.000
      2 C16        -0.3082   -2.5645   -0.3393 C.2        1 <1>        0.000
      3 C17        -1.5161   -3.3529   -0.2177 C.2        1 <1>        0.000
      4 C18        -2.4060   -3.5477   -1.2090 C.2        1 <1>        0.000
      5 C19        -3.6135   -4.3302   -1.0973 C.2        1 <1>        0.000
      6 C20        -4.7842   -3.8692   -0.6209 C.2        1 <1>        0.000
      7 C21        -6.0007   -4.6505   -0.5003 C.2        1 <1>        0.000
      8 C22        -6.3432   -5.6186   -1.3749 C.2        1 <1>        0.000
      9 C23        -7.5634   -6.4266   -1.2713 C.2        1 <1>        0.000
     10 O5         -7.7274   -7.4072   -1.9843 O.2        1 <1>        0.000
     11 O6         -8.5204   -6.1007   -0.3956 O.3        1 <1>        0.000
     12 H           0.2399   -3.2248   -2.2608 H.spc      1 <1>        0.000
     13 H           1.3836   -1.9673   -1.4391 H.spc      1 <1>        0.000
     14 H          -0.0320   -1.9157    0.4919 H.spc      1 <1>        0.000
     15 H          -1.7196   -3.8222    0.7448 H.spc      1 <1>        0.000
     16 H          -2.1984   -3.0780   -2.1705 H.spc      1 <1>        0.000
     17 H          -3.5742   -5.3698   -1.4224 H.spc      1 <1>        0.000
     18 H          -4.8216   -2.8280   -0.3007 H.spc      1 <1>        0.000
     19 H          -6.6690   -4.4456    0.3360 H.spc      1 <1>        0.000
     20 H          -5.6714   -5.8128   -2.2110 H.spc      1 <1>        0.000
     21 H          -8.2547   -5.3163    0.0898 H.spc      1 <1>        0.000
@<TRIPOS>BOND
     1    2    3 1  
     2    9   11 1  
     3    5    6 2  
     4    6    7 1  
     5    4    5 1  
     6    9   10 2  
     7    7    8 2  
     8    3    4 2  
     9    8    9 1  
    10    1    2 2  
    11    1   12 1  
    12    1   13 1  
    13    2   14 1  
    14    3   15 1  
    15    4   16 1  
    16    5   17 1  
    17    6   18 1  
    18    7   19 1  
    19    8   20 1  
    20   11   21 1  
# Name:          frag3-189-7/31924 -- energy: -0.872586
# Creation time: Sat Jun  5 12:52:11 2010


@<TRIPOS>MOLECULE
frag3-189-7/31924 -- energy: -0.872586
   21    20     1     1     1
SMALL
USER_CHARGES


@<TRIPOS>ATOM
      1 C15         0.4851   -2.7201   -1.4694 C.2        1 <1>        0.000
      2 C16        -0.3276   -2.0530   -0.6445 C.2        1 <1>        0.000
      3 C17        -1.6650   -2.4920   -0.3063 C.2        1 <1>        0.000
      4 C18        -2.1870   -3.6856   -0.6462 C.2        1 <1>        0.000
      5 C19        -3.5179   -4.1412   -0.3232 C.2        1 <1>        0.000
      6 C20        -4.2361   -5.0115   -1.0448 C.2        1 <1>        0.000
      7 C21        -5.5759   -5.4671   -0.7279 C.2        1 <1>        0.000
      8 C22        -6.4996   -5.7884   -1.6495 C.2        1 <1>        0.000
      9 C23        -7.8597   -6.2415   -1.3303 C.2        1 <1>        0.000
     10 O5         -8.5307   -6.8385   -2.1609 O.2        1 <1>        0.000
     11 O6         -8.3817   -6.0160   -0.1196 O.3        1 <1>        0.000
     12 H           0.1511   -3.6503   -1.9292 H.spc      1 <1>        0.000
     13 H           1.4819   -2.3340   -1.6825 H.spc      1 <1>        0.000
     14 H           0.0370   -1.1263   -0.2014 H.spc      1 <1>        0.000
     15 H          -2.2937   -1.8080    0.2637 H.spc      1 <1>        0.000
     16 H          -1.5508   -4.3652   -1.2132 H.spc      1 <1>        0.000
     17 H          -3.9763   -3.7443    0.5826 H.spc      1 <1>        0.000
     18 H          -3.7741   -5.4115   -1.9474 H.spc      1 <1>        0.000
     19 H          -5.8508   -5.5544    0.3233 H.spc      1 <1>        0.000
     20 H          -6.2219   -5.7076   -2.7004 H.spc      1 <1>        0.000
     21 H          -7.7442   -5.5418    0.4192 H.spc      1 <1>        0.000
@<TRIPOS>BOND
     1    2    3 1  
     2    9   11 1  
     3    5    6 2  
     4    6    7 1  
     5    4    5 1  
     6    9   10 2  
     7    7    8 2  
     8    3    4 2  
     9    8    9 1  
    10    1    2 2  
    11    1   12 1  
    12    1   13 1  
    13    2   14 1  
    14    3   15 1  
    15    4   16 1  
    16    5   17 1  
    17    6   18 1  
    18    7   19 1  
    19    8   20 1  
    20   11   21 1  
# Name:          frag3-189-7/31924 -- energy: -1.839700
# Creation time: Sat Jun  5 12:52:11 2010


@<TRIPOS>MOLECULE
frag3-189-7/31924 -- energy: -1.839700
   21    20     1     1     1
SMALL
USER_CHARGES


@<TRIPOS>ATOM
      1 C15         0.3213   -1.7762   -1.3485 C.2        1 <1>        0.000
      2 C16        -0.3520   -2.6014   -0.5484 C.2        1 <1>        0.000
      3 C17        -1.5915   -3.2488   -0.8931 C.2        1 <1>        0.000
      4 C18        -2.2398   -4.1601   -0.1516 C.2        1 <1>        0.000
      5 C19        -3.4831   -4.7906   -0.5127 C.2        1 <1>        0.000
      6 C20        -4.4878   -4.1775   -1.1699 C.2        1 <1>        0.000
      7 C21        -5.7393   -4.7942   -1.5511 C.2        1 <1>        0.000
      8 C22        -6.4448   -5.5999   -0.7280 C.2        1 <1>        0.000
      9 C23        -7.7076   -6.2474   -1.1017 C.2        1 <1>        0.000
     10 O5         -7.8331   -6.8176   -2.1737 O.2        1 <1>        0.000
     11 O6         -8.7384   -6.2413   -0.2439 O.3        1 <1>        0.000
     12 H          -0.0610   -1.5495   -2.3438 H.spc      1 <1>        0.000
     13 H           1.2545   -1.3276   -1.0079 H.spc      1 <1>        0.000
     14 H           0.0653   -2.8011    0.4385 H.spc      1 <1>        0.000
     15 H          -2.0452   -2.9728   -1.8450 H.spc      1 <1>        0.000
     16 H          -1.7898   -4.4457    0.7992 H.spc      1 <1>        0.000
     17 H          -3.6213   -5.8357   -0.2355 H.spc      1 <1>        0.000
     18 H          -4.3452   -3.1302   -1.4361 H.spc      1 <1>        0.000
     19 H          -6.1315   -4.5997   -2.5493 H.spc      1 <1>        0.000
     20 H          -6.0530   -5.7798    0.2731 H.spc      1 <1>        0.000
     21 H          -8.4912   -5.7585    0.5482 H.spc      1 <1>        0.000
@<TRIPOS>BOND
     1    2    3 1  
     2    9   11 1  
     3    5    6 2  
     4    6    7 1  
     5    4    5 1  
     6    9   10 2  
     7    7    8 2  
     8    3    4 2  
     9    8    9 1  
    10    1    2 2  
    11    1   12 1  
    12    1   13 1  
    13    2   14 1  
    14    3   15 1  
    15    4   16 1  
    16    5   17 1  
    17    6   18 1  
    18    7   19 1  
    19    8   20 1  
    20   11   21 1  
# Name:          frag3-189-7/31924 -- energy: -1.727648
# Creation time: Sat Jun  5 12:52:11 2010


@<TRIPOS>MOLECULE
frag3-189-7/31924 -- energy: -1.727648
   21    20     1     1     1
SMALL
USER_CHARGES


@<TRIPOS>ATOM
      1 C15         0.2361   -2.0818   -1.0593 C.2        1 <1>        0.000
      2 C16        -0.2201   -2.8649   -0.0783 C.2        1 <1>        0.000
      3 C17        -1.5791   -3.3442    0.0008 C.2        1 <1>        0.000
      4 C18        -2.3991   -3.5097   -1.0532 C.2        1 <1>        0.000
      5 C19        -3.7551   -3.9865   -1.0009 C.2        1 <1>        0.000
      6 C20        -4.4340   -4.5355   -2.0200 C.2        1 <1>        0.000
      7 C21        -5.7916   -5.0333   -1.9532 C.2        1 <1>        0.000
      8 C22        -6.2535   -5.7875   -0.9301 C.2        1 <1>        0.000
      9 C23        -7.6284   -6.2935   -0.8429 C.2        1 <1>        0.000
     10 O5         -8.3031   -6.4705   -1.8443 O.2        1 <1>        0.000
     11 O6         -8.1682   -6.5476    0.3588 O.3        1 <1>        0.000
     12 H          -0.4317   -1.7687   -1.8619 H.spc      1 <1>        0.000
     13 H           1.2762   -1.7557   -1.0573 H.spc      1 <1>        0.000
     14 H           0.4745   -3.1592    0.7085 H.spc      1 <1>        0.000
     15 H          -1.9704   -3.5905    0.9879 H.spc      1 <1>        0.000
     16 H          -1.9994   -3.2597   -2.0360 H.spc      1 <1>        0.000
     17 H          -4.2777   -3.8937   -0.0489 H.spc      1 <1>        0.000
     18 H          -3.9202   -4.6131   -2.9782 H.spc      1 <1>        0.000
     19 H          -6.4745   -4.7885   -2.7667 H.spc      1 <1>        0.000
     20 H          -5.5640   -6.0341   -0.1227 H.spc      1 <1>        0.000
     21 H          -7.5220   -6.3627    1.0442 H.spc      1 <1>        0.000
@<TRIPOS>BOND
     1    2    3 1  
     2    9   11 1  
     3    5    6 2  
     4    6    7 1  
     5    4    5 1  
     6    9   10 2  
     7    7    8 2  
     8    3    4 2  
     9    8    9 1  
    10    1    2 2  
    11    1   12 1  
    12    1   13 1  
    13    2   14 1  
    14    3   15 1  
    15    4   16 1  
    16    5   17 1  
    17    6   18 1  
    18    7   19 1  
    19    8   20 1  
    20   11   21 1  
# Name:          frag3-189-7/31924 -- energy: -1.513232
# Creation time: Sat Jun  5 12:52:11 2010


@<TRIPOS>MOLECULE
frag3-189-7/31924 -- energy: -1.513232
   21    20     1     1     1
SMALL
USER_CHARGES


@<TRIPOS>ATOM
      1 C15         0.9579   -3.1164   -1.0283 C.2        1 <1>        0.000
      2 C16        -0.2575   -2.6609   -0.7249 C.2        1 <1>        0.000
      3 C17        -1.4379   -3.4894   -0.6188 C.2        1 <1>        0.000
      4 C18        -2.7036   -3.0597   -0.7039 C.2        1 <1>        0.000
      5 C19        -3.8818   -3.8886   -0.6093 C.2        1 <1>        0.000
      6 C20        -5.0965   -3.5712   -1.0843 C.2        1 <1>        0.000
      7 C21        -6.2731   -4.4144   -1.0010 C.2        1 <1>        0.000
      8 C22        -6.2527   -5.7368   -1.2660 C.2        1 <1>        0.000
      9 C23        -7.4307   -6.6114   -1.1830 C.2        1 <1>        0.000
     10 O5         -7.5424   -7.5789   -1.9209 O.2        1 <1>        0.000
     11 O6         -8.3777   -6.3272   -0.2822 O.3        1 <1>        0.000
     12 H           1.1105   -4.1793   -1.2156 H.spc      1 <1>        0.000
     13 H           1.7992   -2.4260   -1.0891 H.spc      1 <1>        0.000
     14 H          -0.3692   -1.5917   -0.5446 H.spc      1 <1>        0.000
     15 H          -1.2843   -4.5561   -0.4554 H.spc      1 <1>        0.000
     16 H          -2.8574   -1.9917   -0.8579 H.spc      1 <1>        0.000
     17 H          -3.7762   -4.8522   -0.1108 H.spc      1 <1>        0.000
     18 H          -5.2072   -2.6024   -1.5714 H.spc      1 <1>        0.000
     19 H          -7.2193   -3.9579   -0.7104 H.spc      1 <1>        0.000
     20 H          -5.3034   -6.1846   -1.5600 H.spc      1 <1>        0.000
     21 H          -8.1269   -5.5399    0.2066 H.spc      1 <1>        0.000
@<TRIPOS>BOND
     1    2    3 1  
     2    9   11 1  
     3    5    6 2  
     4    6    7 1  
     5    4    5 1  
     6    9   10 2  
     7    7    8 2  
     8    3    4 2  
     9    8    9 1  
    10    1    2 2  
    11    1   12 1  
    12    1   13 1  
    13    2   14 1  
    14    3   15 1  
    15    4   16 1  
    16    5   17 1  
    17    6   18 1  
    18    7   19 1  
    19    8   20 1  
    20   11   21 1  
# Name:          frag3-189-7/31924 -- energy: -1.752311
# Creation time: Sat Jun  5 12:52:11 2010


@<TRIPOS>MOLECULE
frag3-189-7/31924 -- energy: -1.752311
   21    20     1     1     1
SMALL
USER_CHARGES


@<TRIPOS>ATOM
      1 C15         0.7762   -3.2437   -0.4792 C.2        1 <1>        0.000
      2 C16        -0.4021   -2.6345   -0.6048 C.2        1 <1>        0.000
      3 C17        -1.6710   -3.3157   -0.6963 C.2        1 <1>        0.000
      4 C18        -2.8735   -2.7283   -0.7892 C.2        1 <1>        0.000
      5 C19        -4.1318   -3.4256   -0.8901 C.2        1 <1>        0.000
      6 C20        -4.3847   -4.4210   -1.7617 C.2        1 <1>        0.000
      7 C21        -5.6322   -5.1489   -1.8609 C.2        1 <1>        0.000
      8 C22        -6.2646   -5.6789   -0.7913 C.2        1 <1>        0.000
      9 C23        -7.5360   -6.4113   -0.8730 C.2        1 <1>        0.000
     10 O5         -7.9662   -6.8137   -1.9412 O.2        1 <1>        0.000
     11 O6         -8.2103   -6.6333    0.2649 O.3        1 <1>        0.000
     12 H           0.8256   -4.3318   -0.4392 H.spc      1 <1>        0.000
     13 H           1.6907   -2.6539   -0.4165 H.spc      1 <1>        0.000
     14 H          -0.4080   -1.5451   -0.6410 H.spc      1 <1>        0.000
     15 H          -1.6505   -4.4055   -0.6893 H.spc      1 <1>        0.000
     16 H          -2.9017   -1.6387   -0.7884 H.spc      1 <1>        0.000
     17 H          -4.9333   -3.1266   -0.2146 H.spc      1 <1>        0.000
     18 H          -3.5854   -4.7011   -2.4478 H.spc      1 <1>        0.000
     19 H          -6.0826   -5.2753   -2.8454 H.spc      1 <1>        0.000
     20 H          -5.8051   -5.5562    0.1895 H.spc      1 <1>        0.000
     21 H          -7.7284   -6.2495    1.0012 H.spc      1 <1>        0.000
@<TRIPOS>BOND
     1    2    3 1  
     2    9   11 1  
     3    5    6 2  
     4    6    7 1  
     5    4    5 1  
     6    9   10 2  
     7    7    8 2  
     8    3    4 2  
     9    8    9 1  
    10    1    2 2  
    11    1   12 1  
    12    1   13 1  
    13    2   14 1  
    14    3   15 1  
    15    4   16 1  
    16    5   17 1  
    17    6   18 1  
    18    7   19 1  
    19    8   20 1  
    20   11   21 1  
# Name:          frag3-189-7/31924 -- energy: -1.609465
# Creation time: Sat Jun  5 12:52:11 2010


@<TRIPOS>MOLECULE
frag3-189-7/31924 -- energy: -1.609465
   21    20     1     1     1
SMALL
USER_CHARGES


@<TRIPOS>ATOM
      1 C15         0.4104   -2.6212    0.1714 C.2        1 <1>        0.000
      2 C16        -0.0895   -2.3345   -1.0339 C.2        1 <1>        0.000
      3 C17        -1.4623   -2.5832   -1.4140 C.2        1 <1>        0.000
      4 C18        -2.2146   -3.5981   -0.9499 C.2        1 <1>        0.000
      5 C19        -3.5870   -3.8592   -1.3088 C.2        1 <1>        0.000
      6 C20        -4.3551   -4.8293   -0.7979 C.2        1 <1>        0.000
      7 C21        -5.7357   -5.0915   -1.1505 C.2        1 <1>        0.000
      8 C22        -6.4592   -6.1156   -0.6621 C.2        1 <1>        0.000
      9 C23        -7.8573   -6.3801   -1.0289 C.2        1 <1>        0.000
     10 O5         -8.3155   -6.0011   -2.0936 O.2        1 <1>        0.000
     11 O6         -8.6303   -7.0412   -0.1545 O.3        1 <1>        0.000
     12 H          -0.2275   -3.0687    0.9336 H.spc      1 <1>        0.000
     13 H           1.4561   -2.4076    0.3926 H.spc      1 <1>        0.000
     14 H           0.5754   -1.8876   -1.7730 H.spc      1 <1>        0.000
     15 H          -1.9210   -1.8992   -2.1280 H.spc      1 <1>        0.000
     16 H          -1.7464   -4.2817   -0.2417 H.spc      1 <1>        0.000
     17 H          -4.0374   -3.2110   -2.0605 H.spc      1 <1>        0.000
     18 H          -3.9015   -5.4798   -0.0501 H.spc      1 <1>        0.000
     19 H          -6.2191   -4.4162   -1.8564 H.spc      1 <1>        0.000
     20 H          -5.9795   -6.7892    0.0480 H.spc      1 <1>        0.000
     21 H          -8.1137   -7.2629    0.6237 H.spc      1 <1>        0.000
@<TRIPOS>BOND
     1    2    3 1  
     2    9   11 1  
     3    5    6 2  
     4    6    7 1  
     5    4    5 1  
     6    9   10 2  
     7    7    8 2  
     8    3    4 2  
     9    8    9 1  
    10    1    2 2  
    11    1   12 1  
    12    1   13 1  
    13    2   14 1  
    14    3   15 1  
    15    4   16 1  
    16    5   17 1  
    17    6   18 1  
    18    7   19 1  
    19    8   20 1  
    20   11   21 1  
# Name:          frag3-189-7/31924 -- energy: -1.197576
# Creation time: Sat Jun  5 12:52:11 2010


@<TRIPOS>MOLECULE
frag3-189-7/31924 -- energy: -1.197576
   21    20     1     1     1
SMALL
USER_CHARGES


@<TRIPOS>ATOM
      1 C15         0.7497   -3.2831   -1.4686 C.2        1 <1>        0.000
      2 C16        -0.2824   -2.7947   -0.7812 C.2        1 <1>        0.000
      3 C17        -1.6521   -3.2238   -0.9470 C.2        1 <1>        0.000
      4 C18        -2.7174   -2.7036   -0.3183 C.2        1 <1>        0.000
      5 C19        -4.0811   -3.1480   -0.4900 C.2        1 <1>        0.000
      6 C20        -4.4809   -4.4284   -0.3995 C.2        1 <1>        0.000
      7 C21        -5.8379   -4.9026   -0.5761 C.2        1 <1>        0.000
      8 C22        -6.1600   -6.0497   -1.1982 C.2        1 <1>        0.000
      9 C23        -7.5381   -6.5246   -1.3926 C.2        1 <1>        0.000
     10 O5         -7.8101   -7.2920   -2.3038 O.2        1 <1>        0.000
     11 O6         -8.4858   -6.1043   -0.5474 O.3        1 <1>        0.000
     12 H           0.5882   -4.0604   -2.2154 H.spc      1 <1>        0.000
     13 H           1.7553   -2.9052   -1.2840 H.spc      1 <1>        0.000
     14 H          -0.0793   -2.0184   -0.0435 H.spc      1 <1>        0.000
     15 H          -1.8362   -4.0416   -1.6437 H.spc      1 <1>        0.000
     16 H          -2.5399   -1.8821    0.3757 H.spc      1 <1>        0.000
     17 H          -4.8374   -2.3939   -0.7078 H.spc      1 <1>        0.000
     18 H          -3.7182   -5.1737   -0.1738 H.spc      1 <1>        0.000
     19 H          -6.6485   -4.2911   -0.1798 H.spc      1 <1>        0.000
     20 H          -5.3483   -6.6671   -1.5830 H.spc      1 <1>        0.000
     21 H          -8.0961   -5.5117    0.0995 H.spc      1 <1>        0.000
@<TRIPOS>BOND
     1    2    3 1  
     2    9   11 1  
     3    5    6 2  
     4    6    7 1  
     5    4    5 1  
     6    9   10 2  
     7    7    8 2  
     8    3    4 2  
     9    8    9 1  
    10    1    2 2  
    11    1   12 1  
    12    1   13 1  
    13    2   14 1  
    14    3   15 1  
    15    4   16 1  
    16    5   17 1  
    17    6   18 1  
    18    7   19 1  
    19    8   20 1  
    20   11   21 1  
# Name:          frag3-189-7/31924 -- energy: -0.797448
# Creation time: Sat Jun  5 12:52:11 2010


@<TRIPOS>MOLECULE
frag3-189-7/31924 -- energy: -0.797448
   21    20     1     1     1
SMALL
USER_CHARGES


@<TRIPOS>ATOM
      1 C15         0.2865   -1.2650   -0.6717 C.2        1 <1>        0.000
      2 C16        -0.1254   -2.5201   -0.8521 C.2        1 <1>        0.000
      3 C17        -1.4041   -3.0313   -0.4051 C.2        1 <1>        0.000
      4 C18        -2.0841   -4.0339   -0.9778 C.2        1 <1>        0.000
      5 C19        -3.3656   -4.5384   -0.5364 C.2        1 <1>        0.000
      6 C20        -4.2840   -5.1127   -1.3247 C.2        1 <1>        0.000
      7 C21        -5.5722   -5.6165   -0.8884 C.2        1 <1>        0.000
      8 C22        -6.6812   -5.6026   -1.6476 C.2        1 <1>        0.000
      9 C23        -7.9902   -6.1059   -1.2053 C.2        1 <1>        0.000
     10 O5         -8.8582   -6.3841   -2.0190 O.2        1 <1>        0.000
     11 O6         -8.2175   -6.2447    0.1054 O.3        1 <1>        0.000
     12 H          -0.3554   -0.5493   -0.1581 H.spc      1 <1>        0.000
     13 H           1.2651   -0.9546   -1.0379 H.spc      1 <1>        0.000
     14 H           0.5445   -3.2064   -1.3701 H.spc      1 <1>        0.000
     15 H          -1.8512   -2.5611    0.4708 H.spc      1 <1>        0.000
     16 H          -1.6337   -4.5090   -1.8493 H.spc      1 <1>        0.000
     17 H          -3.6034   -4.4437    0.5231 H.spc      1 <1>        0.000
     18 H          -4.0428   -5.2095   -2.3833 H.spc      1 <1>        0.000
     19 H          -5.6454   -6.0318    0.1167 H.spc      1 <1>        0.000
     20 H          -6.6055   -5.1924   -2.6546 H.spc      1 <1>        0.000
     21 H          -7.4339   -5.9829    0.5944 H.spc      1 <1>        0.000
@<TRIPOS>BOND
     1    2    3 1  
     2    9   11 1  
     3    5    6 2  
     4    6    7 1  
     5    4    5 1  
     6    9   10 2  
     7    7    8 2  
     8    3    4 2  
     9    8    9 1  
    10    1    2 2  
    11    1   12 1  
    12    1   13 1  
    13    2   14 1  
    14    3   15 1  
    15    4   16 1  
    16    5   17 1  
    17    6   18 1  
    18    7   19 1  
    19    8   20 1  
    20   11   21 1  
# Name:          frag3-189-7/31924 -- energy: -1.694768
# Creation time: Sat Jun  5 12:52:11 2010


@<TRIPOS>MOLECULE
frag3-189-7/31924 -- energy: -1.694768
   21    20     1     1     1
SMALL
USER_CHARGES


@<TRIPOS>ATOM
      1 C15         0.6624   -2.4281   -1.3842 C.2        1 <1>        0.000
      2 C16        -0.3978   -2.4692   -0.5779 C.2        1 <1>        0.000
      3 C17        -1.6757   -3.0376   -0.9336 C.2        1 <1>        0.000
      4 C18        -2.6635   -3.3452   -0.0800 C.2        1 <1>        0.000
      5 C19        -3.9303   -3.9243   -0.4507 C.2        1 <1>        0.000
      6 C20        -4.0752   -5.0765   -1.1332 C.2        1 <1>        0.000
      7 C21        -5.3408   -5.6677   -1.5149 C.2        1 <1>        0.000
      8 C22        -6.4572   -5.5692   -0.7594 C.2        1 <1>        0.000
      9 C23        -7.7519   -6.1544   -1.1323 C.2        1 <1>        0.000
     10 O5         -7.9307   -6.6419   -2.2361 O.2        1 <1>        0.000
     11 O6         -8.7353   -6.1408   -0.2204 O.3        1 <1>        0.000
     12 H           0.5984   -2.8428   -2.3902 H.spc      1 <1>        0.000
     13 H           1.5936   -1.9798   -1.0377 H.spc      1 <1>        0.000
     14 H          -0.2924   -2.0437    0.4201 H.spc      1 <1>        0.000
     15 H          -1.8541   -3.2346   -1.9907 H.spc      1 <1>        0.000
     16 H          -2.4950   -3.1412    0.9774 H.spc      1 <1>        0.000
     17 H          -4.8353   -3.3920   -0.1579 H.spc      1 <1>        0.000
     18 H          -3.1672   -5.6063   -1.4212 H.spc      1 <1>        0.000
     19 H          -5.3956   -6.2173   -2.4546 H.spc      1 <1>        0.000
     20 H          -6.3930   -5.0234    0.1819 H.spc      1 <1>        0.000
     21 H          -8.4191   -5.7218    0.5834 H.spc      1 <1>        0.000
@<TRIPOS>BOND
     1    2    3 1  
     2    9   11 1  
     3    5    6 2  
     4    6    7 1  
     5    4    5 1  
     6    9   10 2  
     7    7    8 2  
     8    3    4 2  
     9    8    9 1  
    10    1    2 2  
    11    1   12 1  
    12    1   13 1  
    13    2   14 1  
    14    3   15 1  
    15    4   16 1  
    16    5   17 1  
    17    6   18 1  
    18    7   19 1  
    19    8   20 1  
    20   11   21 1  
# Name:          frag3-189-7/31924 -- energy: -1.740449
# Creation time: Sat Jun  5 12:52:11 2010


@<TRIPOS>MOLECULE
frag3-189-7/31924 -- energy: -1.740449
   21    20     1     1     1
SMALL
USER_CHARGES


@<TRIPOS>ATOM
      1 C15        -0.0711   -1.6257    0.2007 C.2        1 <1>        0.000
      2 C16        -0.4320   -2.5568   -0.6818 C.2        1 <1>        0.000
      3 C17        -1.7329   -3.1797   -0.7286 C.2        1 <1>        0.000
      4 C18        -2.0206   -4.3541   -1.3099 C.2        1 <1>        0.000
      5 C19        -3.3277   -4.9625   -1.3496 C.2        1 <1>        0.000
      6 C20        -4.4433   -4.3453   -1.7832 C.2        1 <1>        0.000
      7 C21        -5.7652   -4.9346   -1.8192 C.2        1 <1>        0.000
      8 C22        -6.3439   -5.5173   -0.7469 C.2        1 <1>        0.000
      9 C23        -7.6780   -6.1334   -0.7713 C.2        1 <1>        0.000
     10 O5         -8.4279   -5.9804   -1.7211 O.2        1 <1>        0.000
     11 O6         -8.0536   -6.8652    0.2881 O.3        1 <1>        0.000
     12 H          -0.7807   -1.2855    0.9549 H.spc      1 <1>        0.000
     13 H           0.9337   -1.2044    0.1683 H.spc      1 <1>        0.000
     14 H           0.3068   -2.8696   -1.4196 H.spc      1 <1>        0.000
     15 H          -2.5551   -2.6487   -0.2489 H.spc      1 <1>        0.000
     16 H          -1.2022   -4.8906   -1.7899 H.spc      1 <1>        0.000
     17 H          -3.4188   -5.9926   -1.0050 H.spc      1 <1>        0.000
     18 H          -4.3429   -3.3188   -2.1357 H.spc      1 <1>        0.000
     19 H          -6.3202   -4.9067   -2.7569 H.spc      1 <1>        0.000
     20 H          -5.7891   -5.5314    0.1913 H.spc      1 <1>        0.000
     21 H          -7.3443   -6.8774    0.9349 H.spc      1 <1>        0.000
@<TRIPOS>BOND
     1    2    3 1  
     2    9   11 1  
     3    5    6 2  
     4    6    7 1  
     5    4    5 1  
     6    9   10 2  
     7    7    8 2  
     8    3    4 2  
     9    8    9 1  
    10    1    2 2  
    11    1   12 1  
    12    1   13 1  
    13    2   14 1  
    14    3   15 1  
    15    4   16 1  
    16    5   17 1  
    17    6   18 1  
    18    7   19 1  
    19    8   20 1  
    20   11   21 1  
# Name:          frag3-189-7/31924 -- energy: -1.919193
# Creation time: Sat Jun  5 12:52:11 2010


@<TRIPOS>MOLECULE
frag3-189-7/31924 -- energy: -1.919193
   21    20     1     1     1
SMALL
USER_CHARGES


@<TRIPOS>ATOM
      1 C15         0.6010   -2.7971   -0.5507 C.2        1 <1>        0.000
      2 C16        -0.5422   -2.1846   -0.8634 C.2        1 <1>        0.000
      3 C17        -1.7701   -2.8727   -1.1521 C.2        1 <1>        0.000
      4 C18        -2.2548   -3.9223   -0.4594 C.2        1 <1>        0.000
      5 C19        -3.4805   -4.6122   -0.7467 C.2        1 <1>        0.000
      6 C20        -4.6029   -4.0225   -1.2035 C.2        1 <1>        0.000
      7 C21        -5.8427   -4.6948   -1.5105 C.2        1 <1>        0.000
      8 C22        -6.3819   -5.6476   -0.7188 C.2        1 <1>        0.000
      9 C23        -7.6306   -6.3554   -1.0227 C.2        1 <1>        0.000
     10 O5         -7.8458   -6.8078   -2.1361 O.2        1 <1>        0.000
     11 O6         -8.5456   -6.5379   -0.0588 O.3        1 <1>        0.000
     12 H           0.6408   -3.8853   -0.5024 H.spc      1 <1>        0.000
     13 H           1.4952   -2.2093   -0.3435 H.spc      1 <1>        0.000
     14 H          -0.5449   -1.0953   -0.9023 H.spc      1 <1>        0.000
     15 H          -2.3566   -2.5173   -1.9993 H.spc      1 <1>        0.000
     16 H          -1.6682   -4.2763    0.3883 H.spc      1 <1>        0.000
     17 H          -3.5051   -5.6897   -0.5838 H.spc      1 <1>        0.000
     18 H          -4.5717   -2.9434   -1.3543 H.spc      1 <1>        0.000
     19 H          -6.3691   -4.4207   -2.4248 H.spc      1 <1>        0.000
     20 H          -5.8576   -5.9060    0.2012 H.spc      1 <1>        0.000
     21 H          -8.2385   -6.1295    0.7539 H.spc      1 <1>        0.000
@<TRIPOS>BOND
     1    2    3 1  
     2    9   11 1  
     3    5    6 2  
     4    6    7 1  
     5    4    5 1  
     6    9   10 2  
     7    7    8 2  
     8    3    4 2  
     9    8    9 1  
    10    1    2 2  
    11    1   12 1  
    12    1   13 1  
    13    2   14 1  
    14    3   15 1  
    15    4   16 1  
    16    5   17 1  
    17    6   18 1  
    18    7   19 1  
    19    8   20 1  
    20   11   21 1  
# Name:          frag3-189-7/31924 -- energy: -1.768959
# Creation time: Sat Jun  5 12:52:11 2010


@<TRIPOS>MOLECULE
frag3-189-7/31924 -- energy: -1.768959
   21    20     1     1     1
SMALL
USER_CHARGES


@<TRIPOS>ATOM
      1 C15         0.7581   -3.2333   -0.2946 C.2        1 <1>        0.000
      2 C16        -0.3713   -2.6723   -0.7259 C.2        1 <1>        0.000
      3 C17        -1.6494   -3.3420   -0.7782 C.2        1 <1>        0.000
      4 C18        -2.6933   -2.9802   -1.5387 C.2        1 <1>        0.000
      5 C19        -3.9661   -3.6595   -1.5780 C.2        1 <1>        0.000
      6 C20        -4.7144   -3.9393   -0.4944 C.2        1 <1>        0.000
      7 C21        -5.9878   -4.6301   -0.5117 C.2        1 <1>        0.000
      8 C22        -6.1710   -5.8240   -1.1102 C.2        1 <1>        0.000
      9 C23        -7.4580   -6.5328   -1.1564 C.2        1 <1>        0.000
     10 O5         -7.8036   -7.1322   -2.1638 O.2        1 <1>        0.000
     11 O6         -8.2393   -6.5093   -0.0710 O.3        1 <1>        0.000
     12 H           0.7559   -4.2673    0.0503 H.spc      1 <1>        0.000
     13 H           1.6840   -2.6581   -0.2868 H.spc      1 <1>        0.000
     14 H          -0.3271   -1.6365   -1.0624 H.spc      1 <1>        0.000
     15 H          -1.7772   -4.2190   -0.1436 H.spc      1 <1>        0.000
     16 H          -2.5708   -2.1050   -2.1767 H.spc      1 <1>        0.000
     17 H          -4.3476   -3.9670   -2.5516 H.spc      1 <1>        0.000
     18 H          -4.3310   -3.6202    0.4748 H.spc      1 <1>        0.000
     19 H          -6.8387   -4.1619   -0.0169 H.spc      1 <1>        0.000
     20 H          -5.3116   -6.2928   -1.5896 H.spc      1 <1>        0.000
     21 H          -7.8118   -5.9961    0.6185 H.spc      1 <1>        0.000
@<TRIPOS>BOND
     1    2    3 1  
     2    9   11 1  
     3    5    6 2  
     4    6    7 1  
     5    4    5 1  
     6    9   10 2  
     7    7    8 2  
     8    3    4 2  
     9    8    9 1  
    10    1    2 2  
    11    1   12 1  
    12    1   13 1  
    13    2   14 1  
    14    3   15 1  
    15    4   16 1  
    16    5   17 1  
    17    6   18 1  
    18    7   19 1  
    19    8   20 1  
    20   11   21 1  
# Name:          frag3-189-7/31924 -- energy: -1.816438
# Creation time: Sat Jun  5 12:52:11 2010


@<TRIPOS>MOLECULE
frag3-189-7/31924 -- energy: -1.816438
   21    20     1     1     1
SMALL
USER_CHARGES


@<TRIPOS>ATOM
      1 C15         0.3881   -1.9231   -0.0326 C.2        1 <1>        0.000
      2 C16        -0.3366   -2.5616   -0.9510 C.2        1 <1>        0.000
      3 C17        -1.6155   -3.1817   -0.6983 C.2        1 <1>        0.000
      4 C18        -2.1910   -4.1286   -1.4540 C.2        1 <1>        0.000
      5 C19        -3.4720   -4.7369   -1.1882 C.2        1 <1>        0.000
      6 C20        -4.6112   -4.0523   -0.9727 C.2        1 <1>        0.000
      7 C21        -5.9052   -4.6461   -0.7037 C.2        1 <1>        0.000
      8 C22        -6.3838   -5.7068   -1.3850 C.2        1 <1>        0.000
      9 C23        -7.6900   -6.3293   -1.1270 C.2        1 <1>        0.000
     10 O5         -8.4177   -6.6574   -2.0523 O.2        1 <1>        0.000
     11 O6         -8.0611   -6.5312    0.1420 O.3        1 <1>        0.000
     12 H           0.0225   -1.8430    0.9911 H.spc      1 <1>        0.000
     13 H           1.3464   -1.4810   -0.3052 H.spc      1 <1>        0.000
     14 H           0.0641   -2.6196   -1.9630 H.spc      1 <1>        0.000
     15 H          -2.1619   -2.8511    0.1850 H.spc      1 <1>        0.000
     16 H          -1.6487   -4.4647   -2.3378 H.spc      1 <1>        0.000
     17 H          -3.5209   -5.8254   -1.1599 H.spc      1 <1>        0.000
     18 H          -4.5555   -2.9641   -1.0030 H.spc      1 <1>        0.000
     19 H          -6.5205   -4.2153    0.0862 H.spc      1 <1>        0.000
     20 H          -5.7636   -6.1286   -2.1759 H.spc      1 <1>        0.000
     21 H          -7.3716   -6.2146    0.7301 H.spc      1 <1>        0.000
@<TRIPOS>BOND
     1    2    3 1  
     2    9   11 1  
     3    5    6 2  
     4    6    7 1  
     5    4    5 1  
     6    9   10 2  
     7    7    8 2  
     8    3    4 2  
     9    8    9 1  
    10    1    2 2  
    11    1   12 1  
    12    1   13 1  
    13    2   14 1  
    14    3   15 1  
    15    4   16 1  
    16    5   17 1  
    17    6   18 1  
    18    7   19 1  
    19    8   20 1  
    20   11   21 1  
# Name:          frag3-189-7/31924 -- energy: -1.641152
# Creation time: Sat Jun  5 12:52:11 2010


@<TRIPOS>MOLECULE
frag3-189-7/31924 -- energy: -1.641152
   21    20     1     1     1
SMALL
USER_CHARGES


@<TRIPOS>ATOM
      1 C15         0.4547   -2.2092   -0.8396 C.2        1 <1>        0.000
      2 C16        -0.4872   -2.5533    0.0422 C.2        1 <1>        0.000
      3 C17        -1.8169   -2.9757   -0.3267 C.2        1 <1>        0.000
      4 C18        -2.1310   -3.6213   -1.4677 C.2        1 <1>        0.000
      5 C19        -3.4537   -4.0518   -1.8416 C.2        1 <1>        0.000
      6 C20        -4.2257   -4.8703   -1.1080 C.2        1 <1>        0.000
      7 C21        -5.5655   -5.3004   -1.4431 C.2        1 <1>        0.000
      8 C22        -6.4479   -5.7963   -0.5562 C.2        1 <1>        0.000
      9 C23        -7.8096   -6.2255   -0.9062 C.2        1 <1>        0.000
     10 O5         -8.1926   -6.2353   -2.0643 O.2        1 <1>        0.000
     11 O6         -8.6207   -6.6158    0.0886 O.3        1 <1>        0.000
     12 H           0.2383   -2.2384   -1.9075 H.spc      1 <1>        0.000
     13 H           1.4400   -1.8991   -0.4915 H.spc      1 <1>        0.000
     14 H          -0.2372   -2.5128    1.1024 H.spc      1 <1>        0.000
     15 H          -2.6272   -2.7565    0.3686 H.spc      1 <1>        0.000
     16 H          -1.3191   -3.8346   -2.1629 H.spc      1 <1>        0.000
     17 H          -3.8566   -3.6876   -2.7867 H.spc      1 <1>        0.000
     18 H          -3.8041   -5.2446   -0.1751 H.spc      1 <1>        0.000
     19 H          -5.8814   -5.2173   -2.4830 H.spc      1 <1>        0.000
     20 H          -6.1341   -5.8850    0.4839 H.spc      1 <1>        0.000
     21 H          -8.1564   -6.5432    0.9257 H.spc      1 <1>        0.000
@<TRIPOS>BOND
     1    2    3 1  
     2    9   11 1  
     3    5    6 2  
     4    6    7 1  
     5    4    5 1  
     6    9   10 2  
     7    7    8 2  
     8    3    4 2  
     9    8    9 1  
    10    1    2 2  
    11    1   12 1  
    12    1   13 1  
    13    2   14 1  
    14    3   15 1  
    15    4   16 1  
    16    5   17 1  
    17    6   18 1  
    18    7   19 1  
    19    8   20 1  
    20   11   21 1  
# Name:          frag3-189-7/31924 -- energy: -1.683519
# Creation time: Sat Jun  5 12:52:11 2010


@<TRIPOS>MOLECULE
frag3-189-7/31924 -- energy: -1.683519
   21    20     1     1     1
SMALL
USER_CHARGES


@<TRIPOS>ATOM
      1 C15         0.0070   -1.5222   -0.8129 C.2        1 <1>        0.000
      2 C16         0.0875   -2.8530   -0.8951 C.2        1 <1>        0.000
      3 C17        -1.0080   -3.7448   -0.5846 C.2        1 <1>        0.000
      4 C18        -2.2952   -3.5184   -0.9041 C.2        1 <1>        0.000
      5 C19        -3.4029   -4.3917   -0.5981 C.2        1 <1>        0.000
      6 C20        -4.6778   -4.1856   -0.9526 C.2        1 <1>        0.000
      7 C21        -5.7902   -5.0669   -0.6580 C.2        1 <1>        0.000
      8 C22        -6.7144   -5.4374   -1.5618 C.2        1 <1>        0.000
      9 C23        -7.8360   -6.3423   -1.2693 C.2        1 <1>        0.000
     10 O5         -8.1564   -7.2159   -2.0607 O.2        1 <1>        0.000
     11 O6         -8.5096   -6.1767   -0.1253 O.3        1 <1>        0.000
     12 H          -0.9237   -1.0510   -0.4969 H.spc      1 <1>        0.000
     13 H           0.8720   -0.9075   -1.0619 H.spc      1 <1>        0.000
     14 H           1.0328   -3.2919   -1.2144 H.spc      1 <1>        0.000
     15 H          -0.7738   -4.6672   -0.0532 H.spc      1 <1>        0.000
     16 H          -2.5208   -2.5964   -1.4400 H.spc      1 <1>        0.000
     17 H          -3.1831   -5.2958   -0.0302 H.spc      1 <1>        0.000
     18 H          -4.8981   -3.2760   -1.5113 H.spc      1 <1>        0.000
     19 H          -5.8832   -5.4525    0.3573 H.spc      1 <1>        0.000
     20 H          -6.6267   -5.0425   -2.5740 H.spc      1 <1>        0.000
     21 H          -8.1233   -5.4507    0.3700 H.spc      1 <1>        0.000
@<TRIPOS>BOND
     1    2    3 1  
     2    9   11 1  
     3    5    6 2  
     4    6    7 1  
     5    4    5 1  
     6    9   10 2  
     7    7    8 2  
     8    3    4 2  
     9    8    9 1  
    10    1    2 2  
    11    1   12 1  
    12    1   13 1  
    13    2   14 1  
    14    3   15 1  
    15    4   16 1  
    16    5   17 1  
    17    6   18 1  
    18    7   19 1  
    19    8   20 1  
    20   11   21 1  
# Name:          frag3-189-7/31924 -- energy: -1.673406
# Creation time: Sat Jun  5 12:52:11 2010


@<TRIPOS>MOLECULE
frag3-189-7/31924 -- energy: -1.673406
   21    20     1     1     1
SMALL
USER_CHARGES


@<TRIPOS>ATOM
      1 C15         0.5071   -2.2472    0.0663 C.2        1 <1>        0.000
      2 C16        -0.3649   -2.5323   -0.9003 C.2        1 <1>        0.000
      3 C17        -1.6478   -3.1585   -0.6877 C.2        1 <1>        0.000
      4 C18        -2.6295   -3.2646   -1.5945 C.2        1 <1>        0.000
      5 C19        -3.9029   -3.9016   -1.3676 C.2        1 <1>        0.000
      6 C20        -4.0585   -5.1695   -0.9421 C.2        1 <1>        0.000
      7 C21        -5.3302   -5.8177   -0.6933 C.2        1 <1>        0.000
      8 C22        -6.4664   -5.4769   -1.3352 C.2        1 <1>        0.000
      9 C23        -7.7695   -6.1123   -1.0977 C.2        1 <1>        0.000
     10 O5         -8.5380   -6.3227   -2.0246 O.2        1 <1>        0.000
     11 O6         -8.0955   -6.4517    0.1541 O.3        1 <1>        0.000
     12 H           0.2704   -2.4888    1.1025 H.spc      1 <1>        0.000
     13 H           1.4570   -1.7724   -0.1793 H.spc      1 <1>        0.000
     14 H          -0.0900   -2.2745   -1.9231 H.spc      1 <1>        0.000
     15 H          -1.8353   -3.5832    0.2985 H.spc      1 <1>        0.000
     16 H          -2.4510   -2.8357   -2.5805 H.spc      1 <1>        0.000
     17 H          -4.8029   -3.3155   -1.5536 H.spc      1 <1>        0.000
     18 H          -3.1553   -5.7553   -0.7711 H.spc      1 <1>        0.000
     19 H          -5.3705   -6.6173    0.0464 H.spc      1 <1>        0.000
     20 H          -6.4145   -4.6798   -2.0769 H.spc      1 <1>        0.000
     21 H          -7.3782   -6.2138    0.7461 H.spc      1 <1>        0.000
@<TRIPOS>BOND
     1    2    3 1  
     2    9   11 1  
     3    5    6 2  
     4    6    7 1  
     5    4    5 1  
     6    9   10 2  
     7    7    8 2  
     8    3    4 2  
     9    8    9 1  
    10    1    2 2  
    11    1   12 1  
    12    1   13 1  
    13    2   14 1  
    14    3   15 1  
    15    4   16 1  
    16    5   17 1  
    17    6   18 1  
    18    7   19 1  
    19    8   20 1  
    20   11   21 1  
# Name:          frag3-189-7/31924 -- energy: -1.566267
# Creation time: Sat Jun  5 12:52:11 2010


@<TRIPOS>MOLECULE
frag3-189-7/31924 -- energy: -1.566267
   21    20     1     1     1
SMALL
USER_CHARGES


@<TRIPOS>ATOM
      1 C15         0.5365   -2.9221   -0.7433 C.2        1 <1>        0.000
      2 C16        -0.4630   -2.2355   -1.3025 C.2        1 <1>        0.000
      3 C17        -1.8104   -2.7403   -1.4365 C.2        1 <1>        0.000
      4 C18        -2.4743   -3.4199   -0.4850 C.2        1 <1>        0.000
      5 C19        -3.8121   -3.9430   -0.6033 C.2        1 <1>        0.000
      6 C20        -4.2735   -5.0508   -0.0025 C.2        1 <1>        0.000
      7 C21        -5.6175   -5.5757   -0.1319 C.2        1 <1>        0.000
      8 C22        -6.2698   -5.6526   -1.3098 C.2        1 <1>        0.000
      9 C23        -7.6366   -6.1702   -1.4630 C.2        1 <1>        0.000
     10 O5         -7.9807   -6.7237   -2.4969 O.2        1 <1>        0.000
     11 O6         -8.4948   -6.0209   -0.4480 O.3        1 <1>        0.000
     12 H           0.3586   -3.9250   -0.3553 H.spc      1 <1>        0.000
     13 H           1.5303   -2.4796   -0.6749 H.spc      1 <1>        0.000
     14 H          -0.2500   -1.2354   -1.6801 H.spc      1 <1>        0.000
     15 H          -2.3268   -2.5565   -2.3787 H.spc      1 <1>        0.000
     16 H          -1.9554   -3.5901    0.4583 H.spc      1 <1>        0.000
     17 H          -4.5087   -3.3916   -1.2348 H.spc      1 <1>        0.000
     18 H          -3.5806   -5.6003    0.6347 H.spc      1 <1>        0.000
     19 H          -6.1263   -5.9255    0.7664 H.spc      1 <1>        0.000
     20 H          -5.7505   -5.3092   -2.2045 H.spc      1 <1>        0.000
     21 H          -8.0565   -5.5682    0.2762 H.spc      1 <1>        0.000
@<TRIPOS>BOND
     1    2    3 1  
     2    9   11 1  
     3    5    6 2  
     4    6    7 1  
     5    4    5 1  
     6    9   10 2  
     7    7    8 2  
     8    3    4 2  
     9    8    9 1  
    10    1    2 2  
    11    1   12 1  
    12    1   13 1  
    13    2   14 1  
    14    3   15 1  
    15    4   16 1  
    16    5   17 1  
    17    6   18 1  
    18    7   19 1  
    19    8   20 1  
    20   11   21 1  
# Name:          frag3-189-7/31924 -- energy: -1.224140
# Creation time: Sat Jun  5 12:52:11 2010


@<TRIPOS>MOLECULE
frag3-189-7/31924 -- energy: -1.224140
   21    20     1     1     1
SMALL
USER_CHARGES


@<TRIPOS>ATOM
      1 C15         0.3269   -2.0222   -0.7417 C.2        1 <1>        0.000
      2 C16        -0.1825   -3.1017   -1.3403 C.2        1 <1>        0.000
      3 C17        -1.5836   -3.4488   -1.3126 C.2        1 <1>        0.000
      4 C18        -2.4192   -3.1943   -0.2863 C.2        1 <1>        0.000
      5 C19        -3.8188   -3.5393   -0.2506 C.2        1 <1>        0.000
      6 C20        -4.3092   -4.7592   -0.5267 C.2        1 <1>        0.000
      7 C21        -5.7068   -5.1330   -0.5115 C.2        1 <1>        0.000
      8 C22        -6.2760   -5.9662   -1.3992 C.2        1 <1>        0.000
      9 C23        -7.7005   -6.3318   -1.3934 C.2        1 <1>        0.000
     10 O5         -8.2509   -6.7057   -2.4189 O.2        1 <1>        0.000
     11 O6         -8.3755   -6.2529   -0.2415 O.3        1 <1>        0.000
     12 H          -0.3265   -1.3442   -0.1926 H.spc      1 <1>        0.000
     13 H           1.3961   -1.8190   -0.8022 H.spc      1 <1>        0.000
     14 H           0.4988   -3.7587   -1.8810 H.spc      1 <1>        0.000
     15 H          -1.9960   -3.9539   -2.1861 H.spc      1 <1>        0.000
     16 H          -2.0044   -2.6879    0.5853 H.spc      1 <1>        0.000
     17 H          -4.5277   -2.7564    0.0190 H.spc      1 <1>        0.000
     18 H          -3.5901   -5.5365   -0.7852 H.spc      1 <1>        0.000
     19 H          -6.3388   -4.7117    0.2703 H.spc      1 <1>        0.000
     20 H          -5.6414   -6.3986   -2.1728 H.spc      1 <1>        0.000
     21 H          -7.7880   -5.9433    0.4518 H.spc      1 <1>        0.000
@<TRIPOS>BOND
     1    2    3 1  
     2    9   11 1  
     3    5    6 2  
     4    6    7 1  
     5    4    5 1  
     6    9   10 2  
     7    7    8 2  
     8    3    4 2  
     9    8    9 1  
    10    1    2 2  
    11    1   12 1  
    12    1   13 1  
    13    2   14 1  
    14    3   15 1  
    15    4   16 1  
    16    5   17 1  
    17    6   18 1  
    18    7   19 1  
    19    8   20 1  
    20   11   21 1  
# Name:          frag3-189-7/31924 -- energy: -1.600253
# Creation time: Sat Jun  5 12:52:11 2010


@<TRIPOS>MOLECULE
frag3-189-7/31924 -- energy: -1.600253
   21    20     1     1     1
SMALL
USER_CHARGES


@<TRIPOS>ATOM
      1 C15         1.0289   -2.3733   -0.5631 C.2        1 <1>        0.000
      2 C16        -0.2959   -2.2392   -0.5002 C.2        1 <1>        0.000
      3 C17        -1.2337   -3.3317   -0.6416 C.2        1 <1>        0.000
      4 C18        -2.4579   -3.2430   -1.1798 C.2        1 <1>        0.000
      5 C19        -3.3926   -4.3355   -1.3213 C.2        1 <1>        0.000
      6 C20        -4.6958   -4.2821   -1.0144 C.2        1 <1>        0.000
      7 C21        -5.6416   -5.3731   -1.1480 C.2        1 <1>        0.000
      8 C22        -6.9604   -5.2625   -0.9042 C.2        1 <1>        0.000
      9 C23        -7.9147   -6.3718   -1.0432 C.2        1 <1>        0.000
     10 O5         -7.7892   -7.2080   -1.9216 O.2        1 <1>        0.000
     11 O6         -8.9433   -6.4347   -0.1852 O.3        1 <1>        0.000
     12 H           1.4699   -3.3559   -0.7309 H.spc      1 <1>        0.000
     13 H           1.6712   -1.5004   -0.4467 H.spc      1 <1>        0.000
     14 H          -0.6991   -1.2407   -0.3311 H.spc      1 <1>        0.000
     15 H          -0.9178   -4.3101   -0.2797 H.spc      1 <1>        0.000
     16 H          -2.7749   -2.2647   -1.5410 H.spc      1 <1>        0.000
     17 H          -3.0069   -5.2785   -1.7087 H.spc      1 <1>        0.000
     18 H          -5.0783   -3.3362   -0.6309 H.spc      1 <1>        0.000
     19 H          -5.2605   -6.3436   -1.4658 H.spc      1 <1>        0.000
     20 H          -7.3435   -4.2933   -0.5849 H.spc      1 <1>        0.000
     21 H          -8.8867   -5.7038    0.4346 H.spc      1 <1>        0.000
@<TRIPOS>BOND
     1    2    3 1  
     2    9   11 1  
     3    5    6 2  
     4    6    7 1  
     5    4    5 1  
     6    9   10 2  
     7    7    8 2  
     8    3    4 2  
     9    8    9 1  
    10    1    2 2  
    11    1   12 1  
    12    1   13 1  
    13    2   14 1  
    14    3   15 1  
    15    4   16 1  
    16    5   17 1  
    17    6   18 1  
    18    7   19 1  
    19    8   20 1  
    20   11   21 1  
# Name:          frag3-189-7/31924 -- energy: -1.776348
# Creation time: Sat Jun  5 12:52:11 2010


@<TRIPOS>MOLECULE
frag3-189-7/31924 -- energy: -1.776348
   21    20     1     1     1
SMALL
USER_CHARGES


@<TRIPOS>ATOM
      1 C15         0.5501   -2.6523   -1.8630 C.2        1 <1>        0.000
      2 C16        -0.4661   -2.4100   -1.0354 C.2        1 <1>        0.000
      3 C17        -1.6297   -3.2542   -0.9012 C.2        1 <1>        0.000
      4 C18        -2.3932   -3.3673    0.1971 C.2        1 <1>        0.000
      5 C19        -3.5560   -4.2153    0.3143 C.2        1 <1>        0.000
      6 C20        -4.5017   -4.3429   -0.6325 C.2        1 <1>        0.000
      7 C21        -5.6697   -5.1961   -0.5529 C.2        1 <1>        0.000
      8 C22        -6.5000   -5.4388   -1.5810 C.2        1 <1>        0.000
      9 C23        -7.6815   -6.3090   -1.4965 C.2        1 <1>        0.000
     10 O5         -7.6395   -7.4631   -1.8928 O.2        1 <1>        0.000
     11 O6         -8.8087   -5.8060   -0.9786 O.3        1 <1>        0.000
     12 H           0.5369   -3.5386   -2.4973 H.spc      1 <1>        0.000
     13 H           1.3943   -1.9642   -1.9055 H.spc      1 <1>        0.000
     14 H          -0.4153   -1.5133   -0.4177 H.spc      1 <1>        0.000
     15 H          -1.9130   -3.8520   -1.7675 H.spc      1 <1>        0.000
     16 H          -2.1139   -2.7733    1.0673 H.spc      1 <1>        0.000
     17 H          -3.6750   -4.7908    1.2323 H.spc      1 <1>        0.000
     18 H          -4.3788   -3.7522   -1.5403 H.spc      1 <1>        0.000
     19 H          -5.8892   -5.6720    0.4029 H.spc      1 <1>        0.000
     20 H          -6.2841   -4.9609   -2.5366 H.spc      1 <1>        0.000
     21 H          -8.6616   -4.8929   -0.7212 H.spc      1 <1>        0.000
@<TRIPOS>BOND
     1    2    3 1  
     2    9   11 1  
     3    5    6 2  
     4    6    7 1  
     5    4    5 1  
     6    9   10 2  
     7    7    8 2  
     8    3    4 2  
     9    8    9 1  
    10    1    2 2  
    11    1   12 1  
    12    1   13 1  
    13    2   14 1  
    14    3   15 1  
    15    4   16 1  
    16    5   17 1  
    17    6   18 1  
    18    7   19 1  
    19    8   20 1  
    20   11   21 1  
# Name:          frag3-189-7/31924 -- energy: -1.792970
# Creation time: Sat Jun  5 12:52:11 2010


@<TRIPOS>MOLECULE
frag3-189-7/31924 -- energy: -1.792970
   21    20     1     1     1
SMALL
USER_CHARGES


@<TRIPOS>ATOM
      1 C15         0.3757   -2.4172   -0.2635 C.2        1 <1>        0.000
      2 C16        -0.2325   -3.0155   -1.2775 C.2        1 <1>        0.000
      3 C17        -1.5234   -3.6160   -1.2347 C.2        1 <1>        0.000
      4 C18        -2.5115   -3.2952   -0.4021 C.2        1 <1>        0.000
      5 C19        -3.8075   -3.8915   -0.3409 C.2        1 <1>        0.000
      6 C20        -4.7200   -3.8947   -1.3029 C.2        1 <1>        0.000
      7 C21        -6.0243   -4.5000   -1.2935 C.2        1 <1>        0.000
      8 C22        -6.2249   -5.8181   -1.1313 C.2        1 <1>        0.000
      9 C23        -7.5363   -6.4668   -1.1142 C.2        1 <1>        0.000
     10 O5         -7.9850   -6.9654   -2.1332 O.2        1 <1>        0.000
     11 O6         -8.1064   -6.5744    0.0712 O.3        1 <1>        0.000
     12 H          -0.1163   -2.3550    0.7072 H.spc      1 <1>        0.000
     13 H           1.3680   -1.9872   -0.4001 H.spc      1 <1>        0.000
     14 H           0.3016   -3.0512   -2.2270 H.spc      1 <1>        0.000
     15 H          -1.7209   -4.4134   -1.9512 H.spc      1 <1>        0.000
     16 H          -2.3099   -2.4928    0.3076 H.spc      1 <1>        0.000
     17 H          -4.0731   -4.3940    0.5892 H.spc      1 <1>        0.000
     18 H          -4.4462   -3.3711   -2.2188 H.spc      1 <1>        0.000
     19 H          -6.8943   -3.8565   -1.4247 H.spc      1 <1>        0.000
     20 H          -5.3466   -6.4508   -1.0030 H.spc      1 <1>        0.000
     21 H          -7.5798   -6.1048    0.7221 H.spc      1 <1>        0.000
@<TRIPOS>BOND
     1    2    3 1  
     2    9   11 1  
     3    5    6 2  
     4    6    7 1  
     5    4    5 1  
     6    9   10 2  
     7    7    8 2  
     8    3    4 2  
     9    8    9 1  
    10    1    2 2  
    11    1   12 1  
    12    1   13 1  
    13    2   14 1  
    14    3   15 1  
    15    4   16 1  
    16    5   17 1  
    17    6   18 1  
    18    7   19 1  
    19    8   20 1  
    20   11   21 1  
# Name:          frag3-189-7/31924 -- energy: -1.611274
# Creation time: Sat Jun  5 12:52:11 2010


@<TRIPOS>MOLECULE
frag3-189-7/31924 -- energy: -1.611274
   21    20     1     1     1
SMALL
USER_CHARGES


@<TRIPOS>ATOM
      1 C15         0.1864   -1.9281   -1.3659 C.2        1 <1>        0.000
      2 C16        -0.2796   -2.6551   -0.3482 C.2        1 <1>        0.000
      3 C17        -1.6461   -3.1093   -0.2434 C.2        1 <1>        0.000
      4 C18        -2.3722   -3.6061   -1.2608 C.2        1 <1>        0.000
      5 C19        -3.7345   -4.0663   -1.1639 C.2        1 <1>        0.000
      6 C20        -4.1254   -5.1716   -0.5063 C.2        1 <1>        0.000
      7 C21        -5.4925   -5.6347   -0.3849 C.2        1 <1>        0.000
      8 C22        -6.3620   -5.6425   -1.4144 C.2        1 <1>        0.000
      9 C23        -7.7568   -6.0950   -1.3130 C.2        1 <1>        0.000
     10 O5         -8.3198   -6.5964   -2.2758 O.2        1 <1>        0.000
     11 O6         -8.3936   -5.9500   -0.1460 O.3        1 <1>        0.000
     12 H          -0.4781   -1.6439   -2.1819 H.spc      1 <1>        0.000
     13 H           1.2314   -1.6186   -1.3811 H.spc      1 <1>        0.000
     14 H           0.4122   -2.9216    0.4509 H.spc      1 <1>        0.000
     15 H          -2.1253   -3.0448    0.7335 H.spc      1 <1>        0.000
     16 H          -1.8915   -3.6654   -2.2373 H.spc      1 <1>        0.000
     17 H          -4.5040   -3.4749   -1.6601 H.spc      1 <1>        0.000
     18 H          -3.3503   -5.7681   -0.0251 H.spc      1 <1>        0.000
     19 H          -5.8343   -5.9941    0.5857 H.spc      1 <1>        0.000
     20 H          -6.0086   -5.2910   -2.3837 H.spc      1 <1>        0.000
     21 H          -7.8028   -5.5417    0.4911 H.spc      1 <1>        0.000
@<TRIPOS>BOND
     1    2    3 1  
     2    9   11 1  
     3    5    6 2  
     4    6    7 1  
     5    4    5 1  
     6    9   10 2  
     7    7    8 2  
     8    3    4 2  
     9    8    9 1  
    10    1    2 2  
    11    1   12 1  
    12    1   13 1  
    13    2   14 1  
    14    3   15 1  
    15    4   16 1  
    16    5   17 1  
    17    6   18 1  
    18    7   19 1  
    19    8   20 1  
    20   11   21 1  
# Name:          frag3-189-7/31924 -- energy: -1.838283
# Creation time: Sat Jun  5 12:52:11 2010


@<TRIPOS>MOLECULE
frag3-189-7/31924 -- energy: -1.838283
   21    20     1     1     1
SMALL
USER_CHARGES


@<TRIPOS>ATOM
      1 C15         0.5499   -2.5548   -0.5216 C.2        1 <1>        0.000
      2 C16        -0.6525   -1.9747   -0.5142 C.2        1 <1>        0.000
      3 C17        -1.8923   -2.6956   -0.3368 C.2        1 <1>        0.000
      4 C18        -2.2744   -3.7595   -1.0647 C.2        1 <1>        0.000
      5 C19        -3.5044   -4.4933   -0.8985 C.2        1 <1>        0.000
      6 C20        -4.1900   -5.0984   -1.8808 C.2        1 <1>        0.000
      7 C21        -5.4315   -5.8272   -1.7114 C.2        1 <1>        0.000
      8 C22        -6.5130   -5.3100   -1.0914 C.2        1 <1>        0.000
      9 C23        -7.7745   -6.0390   -0.9004 C.2        1 <1>        0.000
     10 O5         -8.4830   -6.3295   -1.8503 O.2        1 <1>        0.000
     11 O6         -8.1303   -6.3730    0.3475 O.3        1 <1>        0.000
     12 H           0.6355   -3.6333   -0.3886 H.spc      1 <1>        0.000
     13 H           1.4460   -1.9500   -0.6606 H.spc      1 <1>        0.000
     14 H          -0.7019   -0.8943   -0.6499 H.spc      1 <1>        0.000
     15 H          -2.5683   -2.3510    0.4457 H.spc      1 <1>        0.000
     16 H          -1.5956   -4.0964   -1.8482 H.spc      1 <1>        0.000
     17 H          -3.9118   -4.5624    0.1101 H.spc      1 <1>        0.000
     18 H          -3.7796   -5.0368   -2.8887 H.spc      1 <1>        0.000
     19 H          -5.4947   -6.8422   -2.1038 H.spc      1 <1>        0.000
     20 H          -6.4468   -4.2912   -0.7097 H.spc      1 <1>        0.000
     21 H          -7.4599   -6.0672    0.9629 H.spc      1 <1>        0.000
@<TRIPOS>BOND
     1    2    3 1  
     2    9   11 1  
     3    5    6 2  
     4    6    7 1  
     5    4    5 1  
     6    9   10 2  
     7    7    8 2  
     8    3    4 2  
     9    8    9 1  
    10    1    2 2  
    11    1   12 1  
    12    1   13 1  
    13    2   14 1  
    14    3   15 1  
    15    4   16 1  
    16    5   17 1  
    17    6   18 1  
    18    7   19 1  
    19    8   20 1  
    20   11   21 1  
