#      Rotatable Fragment
#      Build by yxyuan
#
# Name:          frag3-144-21/31924
# Creation time: Sat Jun  5 12:52:04 2010


@<TRIPOS>MOLECULE
frag3-144-21/31924
   13    12     1     1     1
SMALL
USER_CHARGES


@<TRIPOS>ATOM
      1 O4          2.6150    2.9642    0.2021 O.3        1 <1>        0.000
      2 P1          3.7021    1.8262    0.2654 P.3        1 <1>        0.000
      3 O5          4.2056    1.5118   -1.0485 O.2        1 <1>        0.000
      4 O6          4.8014    2.3188    1.2679 O.3        1 <1>        0.000
      5 P2          4.4452    2.5205    2.7856 P.3        1 <1>        0.000
      6 O7          3.2897    1.6712    3.0737 O.2        1 <1>        0.000
      7 O8          4.0368    4.0259    2.9995 O.3        1 <1>        0.000
      8 O15         5.6587    2.2249    3.7314 O.3        1 <1>        0.000
      9 O16         3.0278    0.5569    0.9711 O.3        1 <1>        0.000
     10 H           2.2984    3.1524    1.0886 H.spc      1 <1>        0.000
     11 H           4.7904    4.5904    2.8123 H.spc      1 <1>        0.000
     12 H           6.3890    2.8049    3.5039 H.spc      1 <1>        0.000
     13 H           2.7069    0.8083    1.8403 H.spc      1 <1>        0.000
@<TRIPOS>BOND
     1    1    2 1  
     2    2    3 2  
     3    2    4 1  
     4    2    9 1  
     5    4    5 1  
     6    5    6 2  
     7    5    7 1  
     8    5    8 1  
     9    1   10 1  
    10    7   11 1  
    11    8   12 1  
    12    9   13 1  
# Name:          frag3-144-21/31924
# Creation time: Sat Jun  5 12:52:04 2010


@<TRIPOS>MOLECULE
frag3-144-21/31924
   13    12     1     1     1
SMALL
USER_CHARGES


@<TRIPOS>ATOM
      1 O4          3.1979    2.6725   -1.0513 O.3        1 <1>        0.000
      2 P1          3.5182    1.9908    0.3062 P.3        1 <1>        0.000
      3 O5          4.5520    0.9769    0.1580 O.2        1 <1>        0.000
      4 O6          3.9957    3.0237    1.3751 O.3        1 <1>        0.000
      5 P2          4.4693    2.5322    2.7782 P.3        1 <1>        0.000
      6 O7          3.9047    1.1824    2.9593 O.2        1 <1>        0.000
      7 O8          3.8905    3.4315    3.9200 O.3        1 <1>        0.000
      8 O15         6.0353    2.5266    2.8868 O.3        1 <1>        0.000
      9 O16         2.2186    1.2836    0.9157 O.3        1 <1>        0.000
     10 H           2.5147    3.3345   -0.9224 H.spc      1 <1>        0.000
     11 H           4.2389    4.3218    3.8323 H.spc      1 <1>        0.000
     12 H           6.3666    3.4192    2.7641 H.spc      1 <1>        0.000
     13 H           1.5216    1.9350    1.0225 H.spc      1 <1>        0.000
@<TRIPOS>BOND
     1    1    2 1  
     2    2    3 2  
     3    2    4 1  
     4    2    9 1  
     5    4    5 1  
     6    5    6 2  
     7    5    7 1  
     8    5    8 1  
     9    1   10 1  
    10    7   11 1  
    11    8   12 1  
    12    9   13 1  
# Name:          frag3-144-21/31924
# Creation time: Sat Jun  5 12:52:04 2010


@<TRIPOS>MOLECULE
frag3-144-21/31924
   13    12     1     1     1
SMALL
USER_CHARGES


@<TRIPOS>ATOM
      1 O4          4.4565    3.8165    3.7754 O.3        1 <1>        0.000
      2 P1          4.3479    2.6128    2.8050 P.3        1 <1>        0.000
      3 O5          3.4270    1.6276    3.3840 O.2        1 <1>        0.000
      4 O6          3.7951    3.0033    1.4012 O.3        1 <1>        0.000
      5 P2          3.5824    1.9146    0.2920 P.3        1 <1>        0.000
      6 O7          4.8789    1.4299   -0.1422 O.2        1 <1>        0.000
      7 O8          2.7461    2.4697   -0.8834 O.3        1 <1>        0.000
      8 O15         2.7635    0.7595    1.0342 O.3        1 <1>        0.000
      9 O16         5.7850    1.9864    2.5818 O.3        1 <1>        0.000
     10 H           5.0569    4.4692    3.4079 H.spc      1 <1>        0.000
     11 H           1.8990    2.7788   -0.5540 H.spc      1 <1>        0.000
     12 H           1.9107    1.1015    1.3124 H.spc      1 <1>        0.000
     13 H           6.3667    2.6497    2.2032 H.spc      1 <1>        0.000
@<TRIPOS>BOND
     1    1    2 1  
     2    2    3 2  
     3    2    4 1  
     4    2    9 1  
     5    4    5 1  
     6    5    6 2  
     7    5    7 1  
     8    5    8 1  
     9    1   10 1  
    10    7   11 1  
    11    8   12 1  
    12    9   13 1  
# Name:          frag3-144-21/31924
# Creation time: Sat Jun  5 12:52:04 2010


@<TRIPOS>MOLECULE
frag3-144-21/31924
   13    12     1     1     1
SMALL
USER_CHARGES


@<TRIPOS>ATOM
      1 O4          4.5978    3.9494    2.0866 O.3        1 <1>        0.000
      2 P1          4.4464    2.5544    2.8236 P.3        1 <1>        0.000
      3 O5          3.1121    2.4913    3.4003 O.2        1 <1>        0.000
      4 O6          4.5241    1.4894    1.6617 O.3        1 <1>        0.000
      5 P2          3.6593    1.6385    0.3621 P.3        1 <1>        0.000
      6 O7          4.2986    2.5330   -0.5702 O.2        1 <1>        0.000
      7 O8          2.3093    2.3273    0.8741 O.3        1 <1>        0.000
      8 O15         3.2409    0.2606   -0.2411 O.3        1 <1>        0.000
      9 O16         5.5938    2.3764    3.8511 O.3        1 <1>        0.000
     10 H           5.4735    4.0114    1.6981 H.spc      1 <1>        0.000
     11 H           1.8700    1.7438    1.4971 H.spc      1 <1>        0.000
     12 H           2.8249   -0.2727    0.4402 H.spc      1 <1>        0.000
     13 H           6.4386    2.4297    3.3982 H.spc      1 <1>        0.000
@<TRIPOS>BOND
     1    1    2 1  
     2    2    3 2  
     3    2    4 1  
     4    2    9 1  
     5    4    5 1  
     6    5    6 2  
     7    5    7 1  
     8    5    8 1  
     9    1   10 1  
    10    7   11 1  
    11    8   12 1  
    12    9   13 1  
# Name:          frag3-144-21/31924
# Creation time: Sat Jun  5 12:52:04 2010


@<TRIPOS>MOLECULE
frag3-144-21/31924
   13    12     1     1     1
SMALL
USER_CHARGES


@<TRIPOS>ATOM
      1 O4          3.3406    0.4106    0.8193 O.3        1 <1>        0.000
      2 P1          3.6796    1.8753    0.3013 P.3        1 <1>        0.000
      3 O5          2.4843    2.6887    0.3972 O.2        1 <1>        0.000
      4 O6          4.7615    2.4378    1.2725 O.3        1 <1>        0.000
      5 P2          4.4069    2.5425    2.7960 P.3        1 <1>        0.000
      6 O7          3.2614    1.7241    3.0504 O.2        1 <1>        0.000
      7 O8          4.0932    4.0389    3.1385 O.3        1 <1>        0.000
      8 O15         5.6645    2.1223    3.6854 O.3        1 <1>        0.000
      9 O16         4.0903    1.7800   -1.2126 O.3        1 <1>        0.000
     10 H           4.1261   -0.1382    0.7604 H.spc      1 <1>        0.000
     11 H           4.8696    4.5757    2.9632 H.spc      1 <1>        0.000
     12 H           6.4059    2.6969    3.4810 H.spc      1 <1>        0.000
     13 H           4.8821    1.2435   -1.2950 H.spc      1 <1>        0.000
@<TRIPOS>BOND
     1    1    2 1  
     2    2    3 2  
     3    2    4 1  
     4    2    9 1  
     5    4    5 1  
     6    5    6 2  
     7    5    7 1  
     8    5    8 1  
     9    1   10 1  
    10    7   11 1  
    11    8   12 1  
    12    9   13 1  
# Name:          frag3-144-21/31924
# Creation time: Sat Jun  5 12:52:04 2010


@<TRIPOS>MOLECULE
frag3-144-21/31924
   13    12     1     1     1
SMALL
USER_CHARGES


@<TRIPOS>ATOM
      1 O4          2.6951    2.9220    0.6644 O.3        1 <1>        0.000
      2 P1          3.6860    1.7256    0.3471 P.3        1 <1>        0.000
      3 O5          4.2720    2.0009   -0.9445 O.2        1 <1>        0.000
      4 O6          4.7173    1.6957    1.4891 O.3        1 <1>        0.000
      5 P2          4.4599    2.4889    2.7971 P.3        1 <1>        0.000
      6 O7          3.3537    1.8885    3.5188 O.2        1 <1>        0.000
      7 O8          4.0478    3.9547    2.3670 O.3        1 <1>        0.000
      8 O15         5.6751    2.5641    3.7867 O.3        1 <1>        0.000
      9 O16         2.8754    0.3799    0.2225 O.3        1 <1>        0.000
     10 H           2.2828    2.7765    1.5191 H.spc      1 <1>        0.000
     11 H           4.7731    4.3623    1.8880 H.spc      1 <1>        0.000
     12 H           6.4272    2.9583    3.3388 H.spc      1 <1>        0.000
     13 H           2.4731    0.1704    1.0686 H.spc      1 <1>        0.000
@<TRIPOS>BOND
     1    1    2 1  
     2    2    3 2  
     3    2    4 1  
     4    2    9 1  
     5    4    5 1  
     6    5    6 2  
     7    5    7 1  
     8    5    8 1  
     9    1   10 1  
    10    7   11 1  
    11    8   12 1  
    12    9   13 1  
# Name:          frag3-144-21/31924 -- energy: -1.054139
# Creation time: Sat Jun  5 12:52:04 2010


@<TRIPOS>MOLECULE
frag3-144-21/31924 -- energy: -1.054139
   13    12     1     1     1
SMALL
USER_CHARGES


@<TRIPOS>ATOM
      1 O4          3.1979    2.6725   -1.0513 O.3        1 <1>        0.000
      2 P1          3.5182    1.9908    0.3062 P.3        1 <1>        0.000
      3 O5          4.5520    0.9769    0.1580 O.2        1 <1>        0.000
      4 O6          3.9957    3.0237    1.3751 O.3        1 <1>        0.000
      5 P2          4.4693    2.5322    2.7782 P.3        1 <1>        0.000
      6 O7          3.9047    1.1824    2.9593 O.2        1 <1>        0.000
      7 O8          3.8905    3.4315    3.9200 O.3        1 <1>        0.000
      8 O15         6.0353    2.5266    2.8868 O.3        1 <1>        0.000
      9 O16         2.2186    1.2836    0.9157 O.3        1 <1>        0.000
     10 H           2.5147    3.3345   -0.9224 H.spc      1 <1>        0.000
     11 H           4.2389    4.3218    3.8323 H.spc      1 <1>        0.000
     12 H           6.3666    3.4192    2.7641 H.spc      1 <1>        0.000
     13 H           1.5216    1.9350    1.0225 H.spc      1 <1>        0.000
@<TRIPOS>BOND
     1    1    2 1  
     2    2    3 2  
     3    2    4 1  
     4    2    9 1  
     5    4    5 1  
     6    5    6 2  
     7    5    7 1  
     8    5    8 1  
     9    1   10 1  
    10    7   11 1  
    11    8   12 1  
    12    9   13 1  
# Name:          frag3-144-21/31924 -- energy: -1.365102
# Creation time: Sat Jun  5 12:52:04 2010


@<TRIPOS>MOLECULE
frag3-144-21/31924 -- energy: -1.365102
   13    12     1     1     1
SMALL
USER_CHARGES


@<TRIPOS>ATOM
      1 O4          4.4565    3.8165    3.7754 O.3        1 <1>        0.000
      2 P1          4.3479    2.6128    2.8050 P.3        1 <1>        0.000
      3 O5          3.4270    1.6276    3.3840 O.2        1 <1>        0.000
      4 O6          3.7951    3.0033    1.4012 O.3        1 <1>        0.000
      5 P2          3.5824    1.9146    0.2920 P.3        1 <1>        0.000
      6 O7          4.8789    1.4299   -0.1422 O.2        1 <1>        0.000
      7 O8          2.7461    2.4697   -0.8834 O.3        1 <1>        0.000
      8 O15         2.7635    0.7595    1.0342 O.3        1 <1>        0.000
      9 O16         5.7850    1.9864    2.5818 O.3        1 <1>        0.000
     10 H           5.0569    4.4692    3.4079 H.spc      1 <1>        0.000
     11 H           1.8990    2.7788   -0.5540 H.spc      1 <1>        0.000
     12 H           1.9107    1.1015    1.3124 H.spc      1 <1>        0.000
     13 H           6.3667    2.6497    2.2032 H.spc      1 <1>        0.000
@<TRIPOS>BOND
     1    1    2 1  
     2    2    3 2  
     3    2    4 1  
     4    2    9 1  
     5    4    5 1  
     6    5    6 2  
     7    5    7 1  
     8    5    8 1  
     9    1   10 1  
    10    7   11 1  
    11    8   12 1  
    12    9   13 1  
# Name:          frag3-144-21/31924 -- energy: -1.412273
# Creation time: Sat Jun  5 12:52:04 2010


@<TRIPOS>MOLECULE
frag3-144-21/31924 -- energy: -1.412273
   13    12     1     1     1
SMALL
USER_CHARGES


@<TRIPOS>ATOM
      1 O4          4.5978    3.9494    2.0866 O.3        1 <1>        0.000
      2 P1          4.4464    2.5544    2.8236 P.3        1 <1>        0.000
      3 O5          3.1121    2.4913    3.4003 O.2        1 <1>        0.000
      4 O6          4.5241    1.4894    1.6617 O.3        1 <1>        0.000
      5 P2          3.6593    1.6385    0.3621 P.3        1 <1>        0.000
      6 O7          4.2986    2.5330   -0.5702 O.2        1 <1>        0.000
      7 O8          2.3093    2.3273    0.8741 O.3        1 <1>        0.000
      8 O15         3.2409    0.2606   -0.2411 O.3        1 <1>        0.000
      9 O16         5.5938    2.3764    3.8511 O.3        1 <1>        0.000
     10 H           5.4735    4.0114    1.6981 H.spc      1 <1>        0.000
     11 H           1.8700    1.7438    1.4971 H.spc      1 <1>        0.000
     12 H           2.8249   -0.2727    0.4402 H.spc      1 <1>        0.000
     13 H           6.4386    2.4297    3.3982 H.spc      1 <1>        0.000
@<TRIPOS>BOND
     1    1    2 1  
     2    2    3 2  
     3    2    4 1  
     4    2    9 1  
     5    4    5 1  
     6    5    6 2  
     7    5    7 1  
     8    5    8 1  
     9    1   10 1  
    10    7   11 1  
    11    8   12 1  
    12    9   13 1  
# Name:          frag3-144-21/31924 -- energy: -0.931745
# Creation time: Sat Jun  5 12:52:04 2010


@<TRIPOS>MOLECULE
frag3-144-21/31924 -- energy: -0.931745
   13    12     1     1     1
SMALL
USER_CHARGES


@<TRIPOS>ATOM
      1 O4          3.3406    0.4106    0.8193 O.3        1 <1>        0.000
      2 P1          3.6796    1.8753    0.3013 P.3        1 <1>        0.000
      3 O5          2.4843    2.6887    0.3972 O.2        1 <1>        0.000
      4 O6          4.7615    2.4378    1.2725 O.3        1 <1>        0.000
      5 P2          4.4069    2.5425    2.7960 P.3        1 <1>        0.000
      6 O7          3.2614    1.7241    3.0504 O.2        1 <1>        0.000
      7 O8          4.0932    4.0389    3.1385 O.3        1 <1>        0.000
      8 O15         5.6645    2.1223    3.6854 O.3        1 <1>        0.000
      9 O16         4.0903    1.7800   -1.2126 O.3        1 <1>        0.000
     10 H           4.1261   -0.1382    0.7604 H.spc      1 <1>        0.000
     11 H           4.8696    4.5757    2.9632 H.spc      1 <1>        0.000
     12 H           6.4059    2.6969    3.4810 H.spc      1 <1>        0.000
     13 H           4.8821    1.2435   -1.2950 H.spc      1 <1>        0.000
@<TRIPOS>BOND
     1    1    2 1  
     2    2    3 2  
     3    2    4 1  
     4    2    9 1  
     5    4    5 1  
     6    5    6 2  
     7    5    7 1  
     8    5    8 1  
     9    1   10 1  
    10    7   11 1  
    11    8   12 1  
    12    9   13 1  
# Name:          frag3-144-21/31924 -- energy: 0.082644
# Creation time: Sat Jun  5 12:52:04 2010


@<TRIPOS>MOLECULE
frag3-144-21/31924 -- energy: 0.082644
   13    12     1     1     1
SMALL
USER_CHARGES


@<TRIPOS>ATOM
      1 O4          2.6951    2.9220    0.6644 O.3        1 <1>        0.000
      2 P1          3.6860    1.7256    0.3471 P.3        1 <1>        0.000
      3 O5          4.2720    2.0009   -0.9445 O.2        1 <1>        0.000
      4 O6          4.7173    1.6957    1.4891 O.3        1 <1>        0.000
      5 P2          4.4599    2.4889    2.7971 P.3        1 <1>        0.000
      6 O7          3.3537    1.8885    3.5188 O.2        1 <1>        0.000
      7 O8          4.0478    3.9547    2.3670 O.3        1 <1>        0.000
      8 O15         5.6751    2.5641    3.7867 O.3        1 <1>        0.000
      9 O16         2.8754    0.3799    0.2225 O.3        1 <1>        0.000
     10 H           2.2828    2.7765    1.5191 H.spc      1 <1>        0.000
     11 H           4.7731    4.3623    1.8880 H.spc      1 <1>        0.000
     12 H           6.4272    2.9583    3.3388 H.spc      1 <1>        0.000
     13 H           2.4731    0.1704    1.0686 H.spc      1 <1>        0.000
@<TRIPOS>BOND
     1    1    2 1  
     2    2    3 2  
     3    2    4 1  
     4    2    9 1  
     5    4    5 1  
     6    5    6 2  
     7    5    7 1  
     8    5    8 1  
     9    1   10 1  
    10    7   11 1  
    11    8   12 1  
    12    9   13 1  
