#      Rotatable Fragment
#      Build by yxyuan
#
# Name:          frag3-091-11875/96164
# Creation time: Sat Jun  5 12:52:24 2010


@<TRIPOS>MOLECULE
frag3-091-11875/96164
    5     4     1     1     1
SMALL
USER_CHARGES


@<TRIPOS>ATOM
      1 C7          0.3962    0.0984    0.0274 C.2        1 <1>        0.000
      2 O3         -0.6189   -0.7528   -0.0289 O.3        1 <1>        0.000
      3 O4          0.3063    1.3052    0.1253 O.2        1 <1>        0.000
      4 H           1.4005   -0.3227   -0.0183 H.spc      1 <1>        0.000
      5 H          -0.2806   -1.6480   -0.1047 H.spc      1 <1>        0.000
@<TRIPOS>BOND
     1    1    2 1  
     2    1    3 2  
     3    1    4 1  
     4    2    5 1  
# Name:          frag3-091-11875/96164 -- energy: -0.028311
# Creation time: Sat Jun  5 12:52:25 2010


@<TRIPOS>MOLECULE
frag3-091-11875/96164 -- energy: -0.028311
    5     4     1     1     1
SMALL
USER_CHARGES


@<TRIPOS>ATOM
      1 C7          0.3962    0.0984    0.0274 C.2        1 <1>        0.000
      2 O3         -0.6189   -0.7528   -0.0289 O.3        1 <1>        0.000
      3 O4          0.3063    1.3052    0.1253 O.2        1 <1>        0.000
      4 H           1.4005   -0.3227   -0.0183 H.spc      1 <1>        0.000
      5 H          -0.2806   -1.6480   -0.1047 H.spc      1 <1>        0.000
@<TRIPOS>BOND
     1    1    2 1  
     2    1    3 2  
     3    1    4 1  
     4    2    5 1  
