#      Rotatable Fragment
#      Build by yxyuan
#
# Name:          frag4-293-5341/150395
# Creation time: Sat Jun  5 12:53:29 2010


@<TRIPOS>MOLECULE
frag4-293-5341/150395
    9     9     1     1     1
SMALL
USER_CHARGES


@<TRIPOS>ATOM
      1 C20         1.2741   -1.8368   -0.0612 C.2        1 <1>        0.000
      2 C22         2.1503   -0.7501   -0.0604 C.2        1 <1>        0.000
      3 N4          1.5517   -2.5229   -0.0503 N.2        1 <1>        0.000
      4 N5          3.1219   -1.6179   -0.0602 N.2        1 <1>        0.000
      5 C25         2.2636   -2.6557   -0.0633 C.3        1 <1>        0.000
      6 H           0.1960   -1.6772   -0.0776 H.spc      1 <1>        0.000
      7 H           2.0615    0.3363   -0.0601 H.spc      1 <1>        0.000
      8 H           2.4375   -3.1609   -1.0134 H.spc      1 <1>        0.000
      9 H           2.4663   -3.1903    0.8647 H.spc      1 <1>        0.000
@<TRIPOS>BOND
     1    1    2 1  
     2    1    3 2  
     3    2    4 2  
     4    3    5 1  
     5    4    5 1  
     6    1    6 1  
     7    2    7 1  
     8    5    8 1  
     9    5    9 1  
