#      Rotatable Fragment
#      Build by yxyuan
#
# Name:          frag5-583-129/138278
# Creation time: Sat Jun  5 12:53:45 2010


@<TRIPOS>MOLECULE
frag5-583-129/138278
   30    32     1     1     1
SMALL
USER_CHARGES


@<TRIPOS>ATOM
      1 C1         -1.1774   -0.3184   -0.8018 C.2        1 <1>        0.000
      2 C2         -2.3447    0.5898   -0.4095 C.ar       1 <1>        0.000
      3 C3         -1.2009   -1.7995   -0.5283 C.ar       1 <1>        0.000
      4 N1         -0.0838    0.0768   -1.3242 N.2        1 <1>        0.000
      5 C4         -2.3528    1.9933   -0.1906 C.ar       1 <1>        0.000
      6 C5         -3.5787   -0.0691   -0.2798 C.ar       1 <1>        0.000
      7 C6         -0.8790   -2.7808   -1.4680 C.ar       1 <1>        0.000
      8 C7         -1.5778   -2.2054    0.7564 C.ar       1 <1>        0.000
      9 C8          0.5510    1.1020   -0.5771 C.3        1 <1>        0.000
     10 N2         -1.2444    2.8356   -0.4398 N.am       1 <1>        0.000
     11 C9         -3.5370    2.6204    0.2603 C.ar       1 <1>        0.000
     12 C10        -4.7564    0.5636    0.0998 C.ar       1 <1>        0.000
     13 C11        -1.2311   -4.1126   -1.2407 C.ar       1 <1>        0.000
     14 C12        -1.7739   -3.5567    1.0424 C.ar       1 <1>        0.000
     15 C13         0.0219    2.4774   -0.7732 C.2        1 <1>        0.000
     16 C15        -4.7383    1.9269    0.3702 C.ar       1 <1>        0.000
     17 C16        -1.6896   -4.5024    0.0197 C.ar       1 <1>        0.000
     18 O1          0.8289    3.2816   -1.2240 O.2        1 <1>        0.000
     19 H          -3.6145   -1.1382   -0.4890 H.spc      1 <1>        0.000
     20 H          -0.3514   -2.5064   -2.3815 H.spc      1 <1>        0.000
     21 H          -1.7192   -1.4605    1.5395 H.spc      1 <1>        0.000
     22 H           1.5889    1.1239   -0.9095 H.spc      1 <1>        0.000
     23 H           0.3889    0.8594    0.4731 H.spc      1 <1>        0.000
     24 H          -1.4181    3.8374   -0.3589 H.spc      1 <1>        0.000
     25 H          -3.5081    3.6763    0.5293 H.spc      1 <1>        0.000
     26 H          -5.6838   -0.0028    0.1845 H.spc      1 <1>        0.000
     27 H          -1.1485   -4.8451   -2.0436 H.spc      1 <1>        0.000
     28 H          -1.9925   -3.8731    2.0623 H.spc      1 <1>        0.000
     29 H          -5.6513    2.4449    0.6639 H.spc      1 <1>        0.000
     30 H          -1.9793   -5.5371    0.2031 H.spc      1 <1>        0.000
@<TRIPOS>BOND
     1   14   17 ar 
     2    5   11 ar 
     3    3    8 ar 
     4   15   18 2  
     5    2    6 ar 
     6    3    7 ar 
     7   13   17 ar 
     8   11   16 ar 
     9   12   16 ar 
    10    6   12 ar 
    11    8   14 ar 
    12    7   13 ar 
    13    5   10 1  
    14    4    9 1  
    15    1    2 1  
    16    2    5 ar 
    17    9   15 1  
    18   10   15 am 
    19    1    4 2  
    20    1    3 1  
    21    6   19 1  
    22    7   20 1  
    23    8   21 1  
    24    9   22 1  
    25    9   23 1  
    26   10   24 1  
    27   11   25 1  
    28   12   26 1  
    29   13   27 1  
    30   14   28 1  
    31   16   29 1  
    32   17   30 1  
# Name:          frag5-583-129/138278
# Creation time: Sat Jun  5 12:53:45 2010


@<TRIPOS>MOLECULE
frag5-583-129/138278
   30    32     1     1     1
SMALL
USER_CHARGES


@<TRIPOS>ATOM
      1 C1         -1.2342   -0.3312   -0.6814 C.2        1 <1>        0.000
      2 C2         -2.4035    0.6235   -0.4373 C.ar       1 <1>        0.000
      3 C3         -1.3267   -1.8003   -0.3594 C.ar       1 <1>        0.000
      4 N1         -0.0842    0.0106   -1.1145 N.2        1 <1>        0.000
      5 C4         -2.3876    2.0345   -0.2731 C.ar       1 <1>        0.000
      6 C5         -3.6642    0.0052   -0.3993 C.ar       1 <1>        0.000
      7 C6         -0.8130   -2.3919    0.7969 C.ar       1 <1>        0.000
      8 C7         -1.9709   -2.6152   -1.2952 C.ar       1 <1>        0.000
      9 C8          0.5100    1.0477   -0.3498 C.3        1 <1>        0.000
     10 N2         -1.2344    2.8352   -0.4484 N.am       1 <1>        0.000
     11 C9         -3.5880    2.7124    0.0399 C.ar       1 <1>        0.000
     12 C10        -4.8517    0.6856   -0.1570 C.ar       1 <1>        0.000
     13 C11        -0.6604   -3.7781    0.8674 C.ar       1 <1>        0.000
     14 C12        -1.9673   -4.0025   -1.1471 C.ar       1 <1>        0.000
     15 C13         0.0452    2.4279   -0.6472 C.2        1 <1>        0.000
     16 C15        -4.8158    2.0579    0.0623 C.ar       1 <1>        0.000
     17 C16        -1.2334   -4.5889   -0.1150 C.ar       1 <1>        0.000
     18 O1          0.9158    3.1902   -1.0499 O.2        1 <1>        0.000
     19 H          -3.7141   -1.0702   -0.5697 H.spc      1 <1>        0.000
     20 H          -0.5305   -1.7700    1.6463 H.spc      1 <1>        0.000
     21 H          -2.4797   -2.1633   -2.1467 H.spc      1 <1>        0.000
     22 H           1.5746    1.0272   -0.5829 H.spc      1 <1>        0.000
     23 H           0.2427    0.8527    0.6888 H.spc      1 <1>        0.000
     24 H          -1.3830    3.8440   -0.4221 H.spc      1 <1>        0.000
     25 H          -3.5508    3.7772    0.2700 H.spc      1 <1>        0.000
     26 H          -5.8004    0.1492   -0.1391 H.spc      1 <1>        0.000
     27 H          -0.0964   -4.2256    1.6858 H.spc      1 <1>        0.000
     28 H          -2.5364   -4.6269   -1.8359 H.spc      1 <1>        0.000
     29 H          -5.7353    2.6127    0.2489 H.spc      1 <1>        0.000
     30 H          -1.1084   -5.6710   -0.0759 H.spc      1 <1>        0.000
@<TRIPOS>BOND
     1   14   17 ar 
     2    5   11 ar 
     3    3    8 ar 
     4   15   18 2  
     5    2    6 ar 
     6    3    7 ar 
     7   13   17 ar 
     8   11   16 ar 
     9   12   16 ar 
    10    6   12 ar 
    11    8   14 ar 
    12    7   13 ar 
    13    5   10 1  
    14    4    9 1  
    15    1    2 1  
    16    2    5 ar 
    17    9   15 1  
    18   10   15 am 
    19    1    4 2  
    20    1    3 1  
    21    6   19 1  
    22    7   20 1  
    23    8   21 1  
    24    9   22 1  
    25    9   23 1  
    26   10   24 1  
    27   11   25 1  
    28   12   26 1  
    29   13   27 1  
    30   14   28 1  
    31   16   29 1  
    32   17   30 1  
# Name:          frag5-583-129/138278 -- energy: -2.651186
# Creation time: Sat Jun  5 12:53:45 2010


@<TRIPOS>MOLECULE
frag5-583-129/138278 -- energy: -2.651186
   30    32     1     1     1
SMALL
USER_CHARGES


@<TRIPOS>ATOM
      1 C1         -1.1774   -0.3184   -0.8018 C.2        1 <1>        0.000
      2 C2         -2.3447    0.5898   -0.4095 C.ar       1 <1>        0.000
      3 C3         -1.2009   -1.7995   -0.5283 C.ar       1 <1>        0.000
      4 N1         -0.0838    0.0768   -1.3242 N.2        1 <1>        0.000
      5 C4         -2.3528    1.9933   -0.1906 C.ar       1 <1>        0.000
      6 C5         -3.5787   -0.0691   -0.2798 C.ar       1 <1>        0.000
      7 C6         -0.8790   -2.7808   -1.4680 C.ar       1 <1>        0.000
      8 C7         -1.5778   -2.2054    0.7564 C.ar       1 <1>        0.000
      9 C8          0.5510    1.1020   -0.5771 C.3        1 <1>        0.000
     10 N2         -1.2444    2.8356   -0.4398 N.am       1 <1>        0.000
     11 C9         -3.5370    2.6204    0.2603 C.ar       1 <1>        0.000
     12 C10        -4.7564    0.5636    0.0998 C.ar       1 <1>        0.000
     13 C11        -1.2311   -4.1126   -1.2407 C.ar       1 <1>        0.000
     14 C12        -1.7739   -3.5567    1.0424 C.ar       1 <1>        0.000
     15 C13         0.0219    2.4774   -0.7732 C.2        1 <1>        0.000
     16 C15        -4.7383    1.9269    0.3702 C.ar       1 <1>        0.000
     17 C16        -1.6896   -4.5024    0.0197 C.ar       1 <1>        0.000
     18 O1          0.8289    3.2816   -1.2240 O.2        1 <1>        0.000
     19 H          -3.6145   -1.1382   -0.4890 H.spc      1 <1>        0.000
     20 H          -0.3514   -2.5064   -2.3815 H.spc      1 <1>        0.000
     21 H          -1.7192   -1.4605    1.5395 H.spc      1 <1>        0.000
     22 H           1.5889    1.1239   -0.9095 H.spc      1 <1>        0.000
     23 H           0.3889    0.8594    0.4731 H.spc      1 <1>        0.000
     24 H          -1.4181    3.8374   -0.3589 H.spc      1 <1>        0.000
     25 H          -3.5081    3.6763    0.5293 H.spc      1 <1>        0.000
     26 H          -5.6838   -0.0028    0.1845 H.spc      1 <1>        0.000
     27 H          -1.1485   -4.8451   -2.0436 H.spc      1 <1>        0.000
     28 H          -1.9925   -3.8731    2.0623 H.spc      1 <1>        0.000
     29 H          -5.6513    2.4449    0.6639 H.spc      1 <1>        0.000
     30 H          -1.9793   -5.5371    0.2031 H.spc      1 <1>        0.000
@<TRIPOS>BOND
     1   14   17 ar 
     2    5   11 ar 
     3    3    8 ar 
     4   15   18 2  
     5    2    6 ar 
     6    3    7 ar 
     7   13   17 ar 
     8   11   16 ar 
     9   12   16 ar 
    10    6   12 ar 
    11    8   14 ar 
    12    7   13 ar 
    13    5   10 1  
    14    4    9 1  
    15    1    2 1  
    16    2    5 ar 
    17    9   15 1  
    18   10   15 am 
    19    1    4 2  
    20    1    3 1  
    21    6   19 1  
    22    7   20 1  
    23    8   21 1  
    24    9   22 1  
    25    9   23 1  
    26   10   24 1  
    27   11   25 1  
    28   12   26 1  
    29   13   27 1  
    30   14   28 1  
    31   16   29 1  
    32   17   30 1  
# Name:          frag5-583-129/138278 -- energy: -2.488522
# Creation time: Sat Jun  5 12:53:45 2010


@<TRIPOS>MOLECULE
frag5-583-129/138278 -- energy: -2.488522
   30    32     1     1     1
SMALL
USER_CHARGES


@<TRIPOS>ATOM
      1 C1         -1.2342   -0.3312   -0.6814 C.2        1 <1>        0.000
      2 C2         -2.4035    0.6235   -0.4373 C.ar       1 <1>        0.000
      3 C3         -1.3267   -1.8003   -0.3594 C.ar       1 <1>        0.000
      4 N1         -0.0842    0.0106   -1.1145 N.2        1 <1>        0.000
      5 C4         -2.3876    2.0345   -0.2731 C.ar       1 <1>        0.000
      6 C5         -3.6642    0.0052   -0.3993 C.ar       1 <1>        0.000
      7 C6         -0.8130   -2.3919    0.7969 C.ar       1 <1>        0.000
      8 C7         -1.9709   -2.6152   -1.2952 C.ar       1 <1>        0.000
      9 C8          0.5100    1.0477   -0.3498 C.3        1 <1>        0.000
     10 N2         -1.2344    2.8352   -0.4484 N.am       1 <1>        0.000
     11 C9         -3.5880    2.7124    0.0399 C.ar       1 <1>        0.000
     12 C10        -4.8517    0.6856   -0.1570 C.ar       1 <1>        0.000
     13 C11        -0.6604   -3.7781    0.8674 C.ar       1 <1>        0.000
     14 C12        -1.9673   -4.0025   -1.1471 C.ar       1 <1>        0.000
     15 C13         0.0452    2.4279   -0.6472 C.2        1 <1>        0.000
     16 C15        -4.8158    2.0579    0.0623 C.ar       1 <1>        0.000
     17 C16        -1.2334   -4.5889   -0.1150 C.ar       1 <1>        0.000
     18 O1          0.9158    3.1902   -1.0499 O.2        1 <1>        0.000
     19 H          -3.7141   -1.0702   -0.5697 H.spc      1 <1>        0.000
     20 H          -0.5305   -1.7700    1.6463 H.spc      1 <1>        0.000
     21 H          -2.4797   -2.1633   -2.1467 H.spc      1 <1>        0.000
     22 H           1.5746    1.0272   -0.5829 H.spc      1 <1>        0.000
     23 H           0.2427    0.8527    0.6888 H.spc      1 <1>        0.000
     24 H          -1.3830    3.8440   -0.4221 H.spc      1 <1>        0.000
     25 H          -3.5508    3.7772    0.2700 H.spc      1 <1>        0.000
     26 H          -5.8004    0.1492   -0.1391 H.spc      1 <1>        0.000
     27 H          -0.0964   -4.2256    1.6858 H.spc      1 <1>        0.000
     28 H          -2.5364   -4.6269   -1.8359 H.spc      1 <1>        0.000
     29 H          -5.7353    2.6127    0.2489 H.spc      1 <1>        0.000
     30 H          -1.1084   -5.6710   -0.0759 H.spc      1 <1>        0.000
@<TRIPOS>BOND
     1   14   17 ar 
     2    5   11 ar 
     3    3    8 ar 
     4   15   18 2  
     5    2    6 ar 
     6    3    7 ar 
     7   13   17 ar 
     8   11   16 ar 
     9   12   16 ar 
    10    6   12 ar 
    11    8   14 ar 
    12    7   13 ar 
    13    5   10 1  
    14    4    9 1  
    15    1    2 1  
    16    2    5 ar 
    17    9   15 1  
    18   10   15 am 
    19    1    4 2  
    20    1    3 1  
    21    6   19 1  
    22    7   20 1  
    23    8   21 1  
    24    9   22 1  
    25    9   23 1  
    26   10   24 1  
    27   11   25 1  
    28   12   26 1  
    29   13   27 1  
    30   14   28 1  
    31   16   29 1  
    32   17   30 1  
