#      Rotatable Fragment
#      Build by yxyuan
#
# Name:          frag5-499-772/138278
# Creation time: Sat Jun  5 12:53:39 2010


@<TRIPOS>MOLECULE
frag5-499-772/138278
   15    15     1     1     1
SMALL
USER_CHARGES


@<TRIPOS>ATOM
      1 O1          2.7132   -0.7698   -0.7014 O.3        1 <1>        0.000
      2 C15         2.1119    0.2956   -0.1748 C.2        1 <1>        0.000
      3 C16         0.6341    0.1175   -0.1065 C.ar       1 <1>        0.000
      4 O3          2.6000    1.3309    0.2337 O.2        1 <1>        0.000
      5 C17         0.0264   -1.1216    0.1528 C.ar       1 <1>        0.000
      6 C18        -0.2112    1.2309   -0.2483 C.ar       1 <1>        0.000
      7 C19        -1.3690   -1.2448    0.2444 C.ar       1 <1>        0.000
      8 C20        -1.6050    1.1132   -0.1579 C.ar       1 <1>        0.000
      9 C21        -2.1827   -0.1269    0.0859 C.ar       1 <1>        0.000
     10 H           2.0531   -1.4290   -0.9279 H.spc      1 <1>        0.000
     11 H           0.6505   -2.0053    0.2856 H.spc      1 <1>        0.000
     12 H           0.2281    2.2111   -0.4333 H.spc      1 <1>        0.000
     13 H          -1.8166   -2.2191    0.4403 H.spc      1 <1>        0.000
     14 H          -2.2355    1.9941   -0.2788 H.spc      1 <1>        0.000
     15 H          -3.2664   -0.2235    0.1526 H.spc      1 <1>        0.000
@<TRIPOS>BOND
     1    1    2 1  
     2    2    3 1  
     3    2    4 2  
     4    3    5 ar 
     5    3    6 ar 
     6    5    7 ar 
     7    6    8 ar 
     8    7    9 ar 
     9    8    9 ar 
    10    1   10 1  
    11    5   11 1  
    12    6   12 1  
    13    7   13 1  
    14    8   14 1  
    15    9   15 1  
# Name:          frag5-499-772/138278
# Creation time: Sat Jun  5 12:53:39 2010


@<TRIPOS>MOLECULE
frag5-499-772/138278
   15    15     1     1     1
SMALL
USER_CHARGES


@<TRIPOS>ATOM
      1 O1          2.7501   -0.7684    0.2942 O.3        1 <1>        0.000
      2 C15         2.1121    0.2901   -0.2150 C.2        1 <1>        0.000
      3 C16         0.6316    0.1435   -0.1026 C.ar       1 <1>        0.000
      4 O3          2.5849    1.2954   -0.7089 O.2        1 <1>        0.000
      5 C17        -0.2066    1.2535    0.1681 C.ar       1 <1>        0.000
      6 C18         0.0113   -1.0913   -0.2799 C.ar       1 <1>        0.000
      7 C19        -1.6024    1.1000    0.2729 C.ar       1 <1>        0.000
      8 C20        -1.3787   -1.2468   -0.1917 C.ar       1 <1>        0.000
      9 C21        -2.1845   -0.1511    0.0906 C.ar       1 <1>        0.000
     10 H           2.1066   -1.4065    0.6110 H.spc      1 <1>        0.000
     11 H           0.2359    2.2413    0.2972 H.spc      1 <1>        0.000
     12 H           0.6271   -1.9648   -0.4942 H.spc      1 <1>        0.000
     13 H          -2.2288    1.9633    0.4974 H.spc      1 <1>        0.000
     14 H          -1.8278   -2.2281   -0.3447 H.spc      1 <1>        0.000
     15 H          -3.2651   -0.2702    0.1688 H.spc      1 <1>        0.000
@<TRIPOS>BOND
     1    1    2 1  
     2    2    3 1  
     3    2    4 2  
     4    3    5 ar 
     5    3    6 ar 
     6    5    7 ar 
     7    6    8 ar 
     8    7    9 ar 
     9    8    9 ar 
    10    1   10 1  
    11    5   11 1  
    12    6   12 1  
    13    7   13 1  
    14    8   14 1  
    15    9   15 1  
# Name:          frag5-499-772/138278 -- energy: 0.619943
# Creation time: Sat Jun  5 12:53:39 2010


@<TRIPOS>MOLECULE
frag5-499-772/138278 -- energy: 0.619943
   15    15     1     1     1
SMALL
USER_CHARGES


@<TRIPOS>ATOM
      1 O1          2.7132   -0.7698   -0.7014 O.3        1 <1>        0.000
      2 C15         2.1119    0.2956   -0.1748 C.2        1 <1>        0.000
      3 C16         0.6341    0.1175   -0.1065 C.ar       1 <1>        0.000
      4 O3          2.6000    1.3309    0.2337 O.2        1 <1>        0.000
      5 C17         0.0264   -1.1216    0.1528 C.ar       1 <1>        0.000
      6 C18        -0.2112    1.2309   -0.2483 C.ar       1 <1>        0.000
      7 C19        -1.3690   -1.2448    0.2444 C.ar       1 <1>        0.000
      8 C20        -1.6050    1.1132   -0.1579 C.ar       1 <1>        0.000
      9 C21        -2.1827   -0.1269    0.0859 C.ar       1 <1>        0.000
     10 H           2.0531   -1.4290   -0.9279 H.spc      1 <1>        0.000
     11 H           0.6505   -2.0053    0.2856 H.spc      1 <1>        0.000
     12 H           0.2281    2.2111   -0.4333 H.spc      1 <1>        0.000
     13 H          -1.8166   -2.2191    0.4403 H.spc      1 <1>        0.000
     14 H          -2.2355    1.9941   -0.2788 H.spc      1 <1>        0.000
     15 H          -3.2664   -0.2235    0.1526 H.spc      1 <1>        0.000
@<TRIPOS>BOND
     1    1    2 1  
     2    2    3 1  
     3    2    4 2  
     4    3    5 ar 
     5    3    6 ar 
     6    5    7 ar 
     7    6    8 ar 
     8    7    9 ar 
     9    8    9 ar 
    10    1   10 1  
    11    5   11 1  
    12    6   12 1  
    13    7   13 1  
    14    8   14 1  
    15    9   15 1  
# Name:          frag5-499-772/138278 -- energy: 0.702333
# Creation time: Sat Jun  5 12:53:39 2010


@<TRIPOS>MOLECULE
frag5-499-772/138278 -- energy: 0.702333
   15    15     1     1     1
SMALL
USER_CHARGES


@<TRIPOS>ATOM
      1 O1          2.7501   -0.7684    0.2942 O.3        1 <1>        0.000
      2 C15         2.1121    0.2901   -0.2150 C.2        1 <1>        0.000
      3 C16         0.6316    0.1435   -0.1026 C.ar       1 <1>        0.000
      4 O3          2.5849    1.2954   -0.7089 O.2        1 <1>        0.000
      5 C17        -0.2066    1.2535    0.1681 C.ar       1 <1>        0.000
      6 C18         0.0113   -1.0913   -0.2799 C.ar       1 <1>        0.000
      7 C19        -1.6024    1.1000    0.2729 C.ar       1 <1>        0.000
      8 C20        -1.3787   -1.2468   -0.1917 C.ar       1 <1>        0.000
      9 C21        -2.1845   -0.1511    0.0906 C.ar       1 <1>        0.000
     10 H           2.1066   -1.4065    0.6110 H.spc      1 <1>        0.000
     11 H           0.2359    2.2413    0.2972 H.spc      1 <1>        0.000
     12 H           0.6271   -1.9648   -0.4942 H.spc      1 <1>        0.000
     13 H          -2.2288    1.9633    0.4974 H.spc      1 <1>        0.000
     14 H          -1.8278   -2.2281   -0.3447 H.spc      1 <1>        0.000
     15 H          -3.2651   -0.2702    0.1688 H.spc      1 <1>        0.000
@<TRIPOS>BOND
     1    1    2 1  
     2    2    3 1  
     3    2    4 2  
     4    3    5 ar 
     5    3    6 ar 
     6    5    7 ar 
     7    6    8 ar 
     8    7    9 ar 
     9    8    9 ar 
    10    1   10 1  
    11    5   11 1  
    12    6   12 1  
    13    7   13 1  
    14    8   14 1  
    15    9   15 1  
