#      Rotatable Fragment
#      Build by yxyuan
#
# Name:          frag3-108-205/96164
# Creation time: Sat Jun  5 12:53:51 2010


@<TRIPOS>MOLECULE
frag3-108-205/96164
    6     5     1     1     1
SMALL
USER_CHARGES


@<TRIPOS>ATOM
      1 C2          1.2336    0.9335   -0.1467 C.2        1 <1>        0.000
      2 N1          1.0331    2.0645   -0.6908 N.2        1 <1>        0.000
      3 O1          2.2629    2.7327   -0.7814 O.3        1 <1>        0.000
      4 H           2.2403    0.6450    0.1557 H.spc      1 <1>        0.000
      5 H           0.3989    0.2521    0.0175 H.spc      1 <1>        0.000
      6 H           2.1302    3.5908   -1.1909 H.spc      1 <1>        0.000
@<TRIPOS>BOND
     1    1    2 2  
     2    2    3 1  
     3    1    4 1  
     4    1    5 1  
     5    3    6 1  
# Name:          frag3-108-205/96164 -- energy: 0.010006
# Creation time: Sat Jun  5 12:53:51 2010


@<TRIPOS>MOLECULE
frag3-108-205/96164 -- energy: 0.010006
    6     5     1     1     1
SMALL
USER_CHARGES


@<TRIPOS>ATOM
      1 C2          1.2336    0.9335   -0.1467 C.2        1 <1>        0.000
      2 N1          1.0331    2.0645   -0.6908 N.2        1 <1>        0.000
      3 O1          2.2629    2.7327   -0.7814 O.3        1 <1>        0.000
      4 H           2.2403    0.6450    0.1557 H.spc      1 <1>        0.000
      5 H           0.3989    0.2521    0.0175 H.spc      1 <1>        0.000
      6 H           2.1302    3.5908   -1.1909 H.spc      1 <1>        0.000
@<TRIPOS>BOND
     1    1    2 2  
     2    2    3 1  
     3    1    4 1  
     4    1    5 1  
     5    3    6 1  
