#      Rotatable Fragment
#      Build by yxyuan
#
# Name:          frag3-174-9/31924
# Creation time: Sat Jun  5 12:52:06 2010


@<TRIPOS>MOLECULE
frag3-174-9/31924
   17    16     1     1     1
SMALL
USER_CHARGES


@<TRIPOS>ATOM
      1 O11         4.3392   -0.7828   -0.5433 O.3        1 <1>        0.000
      2 C20         3.4011   -0.3561    0.3057 C.2        1 <1>        0.000
      3 O12         3.5558   -0.3231    1.4985 O.2        1 <1>        0.000
      4 C21         2.1757    0.0423   -0.3905 C.2        1 <1>        0.000
      5 C22         0.9625   -0.1373    0.1521 C.2        1 <1>        0.000
      6 C23        -0.3279    0.1696   -0.3905 C.2        1 <1>        0.000
      7 C24        -1.5307   -0.3912   -0.1997 C.2        1 <1>        0.000
      8 C25        -2.8233   -0.0969   -0.7400 C.2        1 <1>        0.000
      9 C26        -4.0339   -0.5532   -0.4024 C.2        1 <1>        0.000
     10 H           4.0064   -0.7245   -1.4419 H.spc      1 <1>        0.000
     11 H           2.2519    0.4978   -1.3778 H.spc      1 <1>        0.000
     12 H           0.9572   -0.5800    1.1482 H.spc      1 <1>        0.000
     13 H          -0.3323    1.0109   -1.0835 H.spc      1 <1>        0.000
     14 H          -1.5229   -1.2286    0.4980 H.spc      1 <1>        0.000
     15 H          -2.8201    0.6177   -1.5631 H.spc      1 <1>        0.000
     16 H          -4.1382   -1.2722    0.4101 H.spc      1 <1>        0.000
     17 H          -4.9165   -0.2062   -0.9397 H.spc      1 <1>        0.000
@<TRIPOS>BOND
     1    7    8 1  
     2    8    9 2  
     3    1    2 1  
     4    2    3 2  
     5    2    4 1  
     6    4    5 2  
     7    5    6 1  
     8    6    7 2  
     9    1   10 1  
    10    4   11 1  
    11    5   12 1  
    12    6   13 1  
    13    7   14 1  
    14    8   15 1  
    15    9   16 1  
    16    9   17 1  
# Name:          frag3-174-9/31924
# Creation time: Sat Jun  5 12:52:06 2010


@<TRIPOS>MOLECULE
frag3-174-9/31924
   17    16     1     1     1
SMALL
USER_CHARGES


@<TRIPOS>ATOM
      1 O11         3.5541   -1.1367   -0.6578 O.3        1 <1>        0.000
      2 C20         3.4317   -0.2659    0.3486 C.2        1 <1>        0.000
      3 O12         4.3845    0.1292    0.9812 O.2        1 <1>        0.000
      4 C21         2.0590    0.1609    0.6011 C.2        1 <1>        0.000
      5 C22         0.9852   -0.3464   -0.0256 C.2        1 <1>        0.000
      6 C23        -0.4049   -0.0452    0.1009 C.2        1 <1>        0.000
      7 C24        -1.4770   -0.3522   -0.6329 C.2        1 <1>        0.000
      8 C25        -2.8505    0.0060   -0.4943 C.2        1 <1>        0.000
      9 C26        -3.9636   -0.5784   -0.9313 C.2        1 <1>        0.000
     10 H           2.6873   -1.3213   -1.0269 H.spc      1 <1>        0.000
     11 H           1.8952    0.9404    1.3451 H.spc      1 <1>        0.000
     12 H           1.2141   -1.1216   -0.7568 H.spc      1 <1>        0.000
     13 H          -0.6387    0.5599    0.9769 H.spc      1 <1>        0.000
     14 H          -1.2649   -0.9903   -1.4908 H.spc      1 <1>        0.000
     15 H          -3.0188    0.9227    0.0708 H.spc      1 <1>        0.000
     16 H          -3.9043   -1.5018   -1.5075 H.spc      1 <1>        0.000
     17 H          -4.9345   -0.1336   -0.7130 H.spc      1 <1>        0.000
@<TRIPOS>BOND
     1    7    8 1  
     2    8    9 2  
     3    1    2 1  
     4    2    3 2  
     5    2    4 1  
     6    4    5 2  
     7    5    6 1  
     8    6    7 2  
     9    1   10 1  
    10    4   11 1  
    11    5   12 1  
    12    6   13 1  
    13    7   14 1  
    14    8   15 1  
    15    9   16 1  
    16    9   17 1  
# Name:          frag3-174-9/31924
# Creation time: Sat Jun  5 12:52:06 2010


@<TRIPOS>MOLECULE
frag3-174-9/31924
   17    16     1     1     1
SMALL
USER_CHARGES


@<TRIPOS>ATOM
      1 O11         3.6568   -0.5792   -0.7999 O.3        1 <1>        0.000
      2 C20         3.3335   -0.2761    0.4596 C.2        1 <1>        0.000
      3 O12         4.1579   -0.0407    1.3202 O.2        1 <1>        0.000
      4 C21         1.9067   -0.1481    0.7271 C.2        1 <1>        0.000
      5 C22         0.9696   -0.3980   -0.1949 C.2        1 <1>        0.000
      6 C23        -0.4495   -0.3035   -0.1466 C.2        1 <1>        0.000
      7 C24        -1.4048   -0.3678   -1.0754 C.2        1 <1>        0.000
      8 C25        -2.8257   -0.2685   -1.0224 C.2        1 <1>        0.000
      9 C26        -3.6261   -0.0469    0.0223 C.2        1 <1>        0.000
     10 H           2.8558   -0.7267   -1.3081 H.spc      1 <1>        0.000
     11 H           1.5889    0.1649    1.7217 H.spc      1 <1>        0.000
     12 H           1.3636   -0.7339   -1.1541 H.spc      1 <1>        0.000
     13 H          -0.8369   -0.1455    0.8599 H.spc      1 <1>        0.000
     14 H          -1.0195   -0.5296   -2.0821 H.spc      1 <1>        0.000
     15 H          -3.3348   -0.3921   -1.9782 H.spc      1 <1>        0.000
     16 H          -3.1999    0.0882    1.0164 H.spc      1 <1>        0.000
     17 H          -4.7060   -0.0010   -0.1186 H.spc      1 <1>        0.000
@<TRIPOS>BOND
     1    7    8 1  
     2    8    9 2  
     3    1    2 1  
     4    2    3 2  
     5    2    4 1  
     6    4    5 2  
     7    5    6 1  
     8    6    7 2  
     9    1   10 1  
    10    4   11 1  
    11    5   12 1  
    12    6   13 1  
    13    7   14 1  
    14    8   15 1  
    15    9   16 1  
    16    9   17 1  
# Name:          frag3-174-9/31924
# Creation time: Sat Jun  5 12:52:06 2010


@<TRIPOS>MOLECULE
frag3-174-9/31924
   17    16     1     1     1
SMALL
USER_CHARGES


@<TRIPOS>ATOM
      1 O11         3.8521   -0.4977   -0.6583 O.3        1 <1>        0.000
      2 C20         3.2502   -0.3100    0.5138 C.2        1 <1>        0.000
      3 O12         3.8636   -0.2259    1.5561 O.2        1 <1>        0.000
      4 C21         1.7967   -0.1671    0.4454 C.2        1 <1>        0.000
      5 C22         1.0679   -0.4800   -0.6291 C.2        1 <1>        0.000
      6 C23        -0.3351   -0.4305   -0.8872 C.2        1 <1>        0.000
      7 C24        -1.3435    0.1795   -0.2519 C.2        1 <1>        0.000
      8 C25        -2.7478    0.2093   -0.5129 C.2        1 <1>        0.000
      9 C26        -3.6857   -0.7064   -0.2861 C.2        1 <1>        0.000
     10 H           3.1913   -0.5357   -1.3536 H.spc      1 <1>        0.000
     11 H           1.2773    0.2175    1.3231 H.spc      1 <1>        0.000
     12 H           1.6578   -0.8429   -1.4707 H.spc      1 <1>        0.000
     13 H          -0.6435   -0.9955   -1.7668 H.spc      1 <1>        0.000
     14 H          -1.0384    0.7568    0.6208 H.spc      1 <1>        0.000
     15 H          -3.1086    1.1300   -0.9714 H.spc      1 <1>        0.000
     16 H          -3.4179   -1.6595    0.1699 H.spc      1 <1>        0.000
     17 H          -4.7220   -0.5036   -0.5562 H.spc      1 <1>        0.000
@<TRIPOS>BOND
     1    7    8 1  
     2    8    9 2  
     3    1    2 1  
     4    2    3 2  
     5    2    4 1  
     6    4    5 2  
     7    5    6 1  
     8    6    7 2  
     9    1   10 1  
    10    4   11 1  
    11    5   12 1  
    12    6   13 1  
    13    7   14 1  
    14    8   15 1  
    15    9   16 1  
    16    9   17 1  
# Name:          frag3-174-9/31924
# Creation time: Sat Jun  5 12:52:06 2010


@<TRIPOS>MOLECULE
frag3-174-9/31924
   17    16     1     1     1
SMALL
USER_CHARGES


@<TRIPOS>ATOM
      1 O11         4.3895   -0.5047   -0.6515 O.3        1 <1>        0.000
      2 C20         3.3687   -0.3308    0.1882 C.2        1 <1>        0.000
      3 O12         3.5305   -0.0902    1.3682 O.2        1 <1>        0.000
      4 C21         2.0536   -0.4474   -0.4349 C.2        1 <1>        0.000
      5 C22         0.8957   -0.2426    0.2127 C.2        1 <1>        0.000
      6 C23        -0.4568   -0.3153   -0.2378 C.2        1 <1>        0.000
      7 C24        -1.6293   -0.0450    0.3398 C.2        1 <1>        0.000
      8 C25        -2.9693   -0.1686   -0.1316 C.2        1 <1>        0.000
      9 C26        -3.4641   -0.2841   -1.3632 C.2        1 <1>        0.000
     10 H           4.0512   -0.6837   -1.5319 H.spc      1 <1>        0.000
     11 H           2.0092   -0.7171   -1.4901 H.spc      1 <1>        0.000
     12 H           1.0076    0.0253    1.2633 H.spc      1 <1>        0.000
     13 H          -0.5517   -0.6636   -1.2663 H.spc      1 <1>        0.000
     14 H          -1.5477    0.3401    1.3562 H.spc      1 <1>        0.000
     15 H          -3.7230   -0.1686    0.6558 H.spc      1 <1>        0.000
     16 H          -2.7925   -0.2945   -2.2216 H.spc      1 <1>        0.000
     17 H          -4.5406   -0.3682   -1.5124 H.spc      1 <1>        0.000
@<TRIPOS>BOND
     1    7    8 1  
     2    8    9 2  
     3    1    2 1  
     4    2    3 2  
     5    2    4 1  
     6    4    5 2  
     7    5    6 1  
     8    6    7 2  
     9    1   10 1  
    10    4   11 1  
    11    5   12 1  
    12    6   13 1  
    13    7   14 1  
    14    8   15 1  
    15    9   16 1  
    16    9   17 1  
# Name:          frag3-174-9/31924
# Creation time: Sat Jun  5 12:52:06 2010


@<TRIPOS>MOLECULE
frag3-174-9/31924
   17    16     1     1     1
SMALL
USER_CHARGES


@<TRIPOS>ATOM
      1 O11         3.8425   -0.7113   -0.7374 O.3        1 <1>        0.000
      2 C20         3.3239   -0.2056    0.3822 C.2        1 <1>        0.000
      3 O12         3.9814   -0.0751    1.3994 O.2        1 <1>        0.000
      4 C21         1.9434    0.2355    0.3066 C.2        1 <1>        0.000
      5 C22         0.9775   -0.4821   -0.2814 C.2        1 <1>        0.000
      6 C23        -0.4109   -0.2122   -0.4764 C.2        1 <1>        0.000
      7 C24        -1.5220   -0.8433   -0.0972 C.2        1 <1>        0.000
      8 C25        -2.9077   -0.5615   -0.2723 C.2        1 <1>        0.000
      9 C26        -3.5097    0.4268   -0.9337 C.2        1 <1>        0.000
     10 H           3.1683   -0.7311   -1.4205 H.spc      1 <1>        0.000
     11 H           1.6802    1.1962    0.7493 H.spc      1 <1>        0.000
     12 H           1.3096   -1.4402   -0.6812 H.spc      1 <1>        0.000
     13 H          -0.6007    0.6937   -1.0521 H.spc      1 <1>        0.000
     14 H          -1.3321   -1.7609    0.4597 H.spc      1 <1>        0.000
     15 H          -3.5833   -1.2667    0.2119 H.spc      1 <1>        0.000
     16 H          -2.9137    1.1798   -1.4493 H.spc      1 <1>        0.000
     17 H          -4.5980    0.4820   -0.9589 H.spc      1 <1>        0.000
@<TRIPOS>BOND
     1    7    8 1  
     2    8    9 2  
     3    1    2 1  
     4    2    3 2  
     5    2    4 1  
     6    4    5 2  
     7    5    6 1  
     8    6    7 2  
     9    1   10 1  
    10    4   11 1  
    11    5   12 1  
    12    6   13 1  
    13    7   14 1  
    14    8   15 1  
    15    9   16 1  
    16    9   17 1  
# Name:          frag3-174-9/31924
# Creation time: Sat Jun  5 12:52:06 2010


@<TRIPOS>MOLECULE
frag3-174-9/31924
   17    16     1     1     1
SMALL
USER_CHARGES


@<TRIPOS>ATOM
      1 O11         4.0121   -0.8292   -0.8530 O.3        1 <1>        0.000
      2 C20         3.3083   -0.2059    0.0874 C.2        1 <1>        0.000
      3 O12         3.8196    0.2814    1.0806 O.2        1 <1>        0.000
      4 C21         1.8713   -0.1530   -0.1754 C.2        1 <1>        0.000
      5 C22         0.9319   -0.4763    0.7188 C.2        1 <1>        0.000
      6 C23        -0.4941   -0.4826    0.6354 C.2        1 <1>        0.000
      7 C24        -1.3462   -0.3412   -0.3892 C.2        1 <1>        0.000
      8 C25        -2.7698   -0.3125   -0.4322 C.2        1 <1>        0.000
      9 C26        -3.6147    0.0904   -1.3824 C.2        1 <1>        0.000
     10 H           3.4201   -1.1359   -1.5437 H.spc      1 <1>        0.000
     11 H           1.5450    0.1708   -1.1637 H.spc      1 <1>        0.000
     12 H           1.3246   -0.7919    1.6854 H.spc      1 <1>        0.000
     13 H          -0.9871   -0.6321    1.5960 H.spc      1 <1>        0.000
     14 H          -0.8653   -0.2283   -1.3608 H.spc      1 <1>        0.000
     15 H          -3.2539   -0.6855    0.4704 H.spc      1 <1>        0.000
     16 H          -3.2295    0.4806   -2.3245 H.spc      1 <1>        0.000
     17 H          -4.6903    0.0294   -1.2168 H.spc      1 <1>        0.000
@<TRIPOS>BOND
     1    7    8 1  
     2    8    9 2  
     3    1    2 1  
     4    2    3 2  
     5    2    4 1  
     6    4    5 2  
     7    5    6 1  
     8    6    7 2  
     9    1   10 1  
    10    4   11 1  
    11    5   12 1  
    12    6   13 1  
    13    7   14 1  
    14    8   15 1  
    15    9   16 1  
    16    9   17 1  
# Name:          frag3-174-9/31924
# Creation time: Sat Jun  5 12:52:06 2010


@<TRIPOS>MOLECULE
frag3-174-9/31924
   17    16     1     1     1
SMALL
USER_CHARGES


@<TRIPOS>ATOM
      1 O11         4.0019   -0.1920   -0.6082 O.3        1 <1>        0.000
      2 C20         3.2528   -0.4501    0.4612 C.2        1 <1>        0.000
      3 O12         3.7075   -0.4772    1.5888 O.2        1 <1>        0.000
      4 C21         1.8450   -0.7064    0.1804 C.2        1 <1>        0.000
      5 C22         1.0835    0.2338   -0.3935 C.2        1 <1>        0.000
      6 C23        -0.2879    0.2530   -0.7871 C.2        1 <1>        0.000
      7 C24        -1.3461   -0.4303   -0.3436 C.2        1 <1>        0.000
      8 C25        -2.7075   -0.4653   -0.7351 C.2        1 <1>        0.000
      9 C26        -3.8307   -0.1942   -0.0729 C.2        1 <1>        0.000
     10 H           3.4534   -0.2185   -1.3957 H.spc      1 <1>        0.000
     11 H           1.4090   -1.6711    0.4398 H.spc      1 <1>        0.000
     12 H           1.6134    1.1637   -0.5997 H.spc      1 <1>        0.000
     13 H          -0.5119    0.9503   -1.5944 H.spc      1 <1>        0.000
     14 H          -1.1159   -1.0961    0.4882 H.spc      1 <1>        0.000
     15 H          -2.8645   -0.7706   -1.7696 H.spc      1 <1>        0.000
     16 H          -3.7862    0.1205    0.9697 H.spc      1 <1>        0.000
     17 H          -4.7945   -0.2870   -0.5735 H.spc      1 <1>        0.000
@<TRIPOS>BOND
     1    7    8 1  
     2    8    9 2  
     3    1    2 1  
     4    2    3 2  
     5    2    4 1  
     6    4    5 2  
     7    5    6 1  
     8    6    7 2  
     9    1   10 1  
    10    4   11 1  
    11    5   12 1  
    12    6   13 1  
    13    7   14 1  
    14    8   15 1  
    15    9   16 1  
    16    9   17 1  
# Name:          frag3-174-9/31924 -- energy: -0.825302
# Creation time: Sat Jun  5 12:52:06 2010


@<TRIPOS>MOLECULE
frag3-174-9/31924 -- energy: -0.825302
   17    16     1     1     1
SMALL
USER_CHARGES


@<TRIPOS>ATOM
      1 O11         4.3392   -0.7828   -0.5433 O.3        1 <1>        0.000
      2 C20         3.4011   -0.3561    0.3057 C.2        1 <1>        0.000
      3 O12         3.5558   -0.3231    1.4985 O.2        1 <1>        0.000
      4 C21         2.1757    0.0423   -0.3905 C.2        1 <1>        0.000
      5 C22         0.9625   -0.1373    0.1521 C.2        1 <1>        0.000
      6 C23        -0.3279    0.1696   -0.3905 C.2        1 <1>        0.000
      7 C24        -1.5307   -0.3912   -0.1997 C.2        1 <1>        0.000
      8 C25        -2.8233   -0.0969   -0.7400 C.2        1 <1>        0.000
      9 C26        -4.0339   -0.5532   -0.4024 C.2        1 <1>        0.000
     10 H           4.0064   -0.7245   -1.4419 H.spc      1 <1>        0.000
     11 H           2.2519    0.4978   -1.3778 H.spc      1 <1>        0.000
     12 H           0.9572   -0.5800    1.1482 H.spc      1 <1>        0.000
     13 H          -0.3323    1.0109   -1.0835 H.spc      1 <1>        0.000
     14 H          -1.5229   -1.2286    0.4980 H.spc      1 <1>        0.000
     15 H          -2.8201    0.6177   -1.5631 H.spc      1 <1>        0.000
     16 H          -4.1382   -1.2722    0.4101 H.spc      1 <1>        0.000
     17 H          -4.9165   -0.2062   -0.9397 H.spc      1 <1>        0.000
@<TRIPOS>BOND
     1    7    8 1  
     2    8    9 2  
     3    1    2 1  
     4    2    3 2  
     5    2    4 1  
     6    4    5 2  
     7    5    6 1  
     8    6    7 2  
     9    1   10 1  
    10    4   11 1  
    11    5   12 1  
    12    6   13 1  
    13    7   14 1  
    14    8   15 1  
    15    9   16 1  
    16    9   17 1  
# Name:          frag3-174-9/31924 -- energy: -0.914616
# Creation time: Sat Jun  5 12:52:06 2010


@<TRIPOS>MOLECULE
frag3-174-9/31924 -- energy: -0.914616
   17    16     1     1     1
SMALL
USER_CHARGES


@<TRIPOS>ATOM
      1 O11         4.3895   -0.5047   -0.6515 O.3        1 <1>        0.000
      2 C20         3.3687   -0.3308    0.1882 C.2        1 <1>        0.000
      3 O12         3.5305   -0.0902    1.3682 O.2        1 <1>        0.000
      4 C21         2.0536   -0.4474   -0.4349 C.2        1 <1>        0.000
      5 C22         0.8957   -0.2426    0.2127 C.2        1 <1>        0.000
      6 C23        -0.4568   -0.3153   -0.2378 C.2        1 <1>        0.000
      7 C24        -1.6293   -0.0450    0.3398 C.2        1 <1>        0.000
      8 C25        -2.9693   -0.1686   -0.1316 C.2        1 <1>        0.000
      9 C26        -3.4641   -0.2841   -1.3632 C.2        1 <1>        0.000
     10 H           4.0512   -0.6837   -1.5319 H.spc      1 <1>        0.000
     11 H           2.0092   -0.7171   -1.4901 H.spc      1 <1>        0.000
     12 H           1.0076    0.0253    1.2633 H.spc      1 <1>        0.000
     13 H          -0.5517   -0.6636   -1.2663 H.spc      1 <1>        0.000
     14 H          -1.5477    0.3401    1.3562 H.spc      1 <1>        0.000
     15 H          -3.7230   -0.1686    0.6558 H.spc      1 <1>        0.000
     16 H          -2.7925   -0.2945   -2.2216 H.spc      1 <1>        0.000
     17 H          -4.5406   -0.3682   -1.5124 H.spc      1 <1>        0.000
@<TRIPOS>BOND
     1    7    8 1  
     2    8    9 2  
     3    1    2 1  
     4    2    3 2  
     5    2    4 1  
     6    4    5 2  
     7    5    6 1  
     8    6    7 2  
     9    1   10 1  
    10    4   11 1  
    11    5   12 1  
    12    6   13 1  
    13    7   14 1  
    14    8   15 1  
    15    9   16 1  
    16    9   17 1  
# Name:          frag3-174-9/31924 -- energy: -1.017321
# Creation time: Sat Jun  5 12:52:06 2010


@<TRIPOS>MOLECULE
frag3-174-9/31924 -- energy: -1.017321
   17    16     1     1     1
SMALL
USER_CHARGES


@<TRIPOS>ATOM
      1 O11         3.8425   -0.7113   -0.7374 O.3        1 <1>        0.000
      2 C20         3.3239   -0.2056    0.3822 C.2        1 <1>        0.000
      3 O12         3.9814   -0.0751    1.3994 O.2        1 <1>        0.000
      4 C21         1.9434    0.2355    0.3066 C.2        1 <1>        0.000
      5 C22         0.9775   -0.4821   -0.2814 C.2        1 <1>        0.000
      6 C23        -0.4109   -0.2122   -0.4764 C.2        1 <1>        0.000
      7 C24        -1.5220   -0.8433   -0.0972 C.2        1 <1>        0.000
      8 C25        -2.9077   -0.5615   -0.2723 C.2        1 <1>        0.000
      9 C26        -3.5097    0.4268   -0.9337 C.2        1 <1>        0.000
     10 H           3.1683   -0.7311   -1.4205 H.spc      1 <1>        0.000
     11 H           1.6802    1.1962    0.7493 H.spc      1 <1>        0.000
     12 H           1.3096   -1.4402   -0.6812 H.spc      1 <1>        0.000
     13 H          -0.6007    0.6937   -1.0521 H.spc      1 <1>        0.000
     14 H          -1.3321   -1.7609    0.4597 H.spc      1 <1>        0.000
     15 H          -3.5833   -1.2667    0.2119 H.spc      1 <1>        0.000
     16 H          -2.9137    1.1798   -1.4493 H.spc      1 <1>        0.000
     17 H          -4.5980    0.4820   -0.9589 H.spc      1 <1>        0.000
@<TRIPOS>BOND
     1    7    8 1  
     2    8    9 2  
     3    1    2 1  
     4    2    3 2  
     5    2    4 1  
     6    4    5 2  
     7    5    6 1  
     8    6    7 2  
     9    1   10 1  
    10    4   11 1  
    11    5   12 1  
    12    6   13 1  
    13    7   14 1  
    14    8   15 1  
    15    9   16 1  
    16    9   17 1  
# Name:          frag3-174-9/31924 -- energy: -1.125837
# Creation time: Sat Jun  5 12:52:06 2010


@<TRIPOS>MOLECULE
frag3-174-9/31924 -- energy: -1.125837
   17    16     1     1     1
SMALL
USER_CHARGES


@<TRIPOS>ATOM
      1 O11         4.0121   -0.8292   -0.8530 O.3        1 <1>        0.000
      2 C20         3.3083   -0.2059    0.0874 C.2        1 <1>        0.000
      3 O12         3.8196    0.2814    1.0806 O.2        1 <1>        0.000
      4 C21         1.8713   -0.1530   -0.1754 C.2        1 <1>        0.000
      5 C22         0.9319   -0.4763    0.7188 C.2        1 <1>        0.000
      6 C23        -0.4941   -0.4826    0.6354 C.2        1 <1>        0.000
      7 C24        -1.3462   -0.3412   -0.3892 C.2        1 <1>        0.000
      8 C25        -2.7698   -0.3125   -0.4322 C.2        1 <1>        0.000
      9 C26        -3.6147    0.0904   -1.3824 C.2        1 <1>        0.000
     10 H           3.4201   -1.1359   -1.5437 H.spc      1 <1>        0.000
     11 H           1.5450    0.1708   -1.1637 H.spc      1 <1>        0.000
     12 H           1.3246   -0.7919    1.6854 H.spc      1 <1>        0.000
     13 H          -0.9871   -0.6321    1.5960 H.spc      1 <1>        0.000
     14 H          -0.8653   -0.2283   -1.3608 H.spc      1 <1>        0.000
     15 H          -3.2539   -0.6855    0.4704 H.spc      1 <1>        0.000
     16 H          -3.2295    0.4806   -2.3245 H.spc      1 <1>        0.000
     17 H          -4.6903    0.0294   -1.2168 H.spc      1 <1>        0.000
@<TRIPOS>BOND
     1    7    8 1  
     2    8    9 2  
     3    1    2 1  
     4    2    3 2  
     5    2    4 1  
     6    4    5 2  
     7    5    6 1  
     8    6    7 2  
     9    1   10 1  
    10    4   11 1  
    11    5   12 1  
    12    6   13 1  
    13    7   14 1  
    14    8   15 1  
    15    9   16 1  
    16    9   17 1  
# Name:          frag3-174-9/31924 -- energy: -1.141750
# Creation time: Sat Jun  5 12:52:06 2010


@<TRIPOS>MOLECULE
frag3-174-9/31924 -- energy: -1.141750
   17    16     1     1     1
SMALL
USER_CHARGES


@<TRIPOS>ATOM
      1 O11         4.0019   -0.1920   -0.6082 O.3        1 <1>        0.000
      2 C20         3.2528   -0.4501    0.4612 C.2        1 <1>        0.000
      3 O12         3.7075   -0.4772    1.5888 O.2        1 <1>        0.000
      4 C21         1.8450   -0.7064    0.1804 C.2        1 <1>        0.000
      5 C22         1.0835    0.2338   -0.3935 C.2        1 <1>        0.000
      6 C23        -0.2879    0.2530   -0.7871 C.2        1 <1>        0.000
      7 C24        -1.3461   -0.4303   -0.3436 C.2        1 <1>        0.000
      8 C25        -2.7075   -0.4653   -0.7351 C.2        1 <1>        0.000
      9 C26        -3.8307   -0.1942   -0.0729 C.2        1 <1>        0.000
     10 H           3.4534   -0.2185   -1.3957 H.spc      1 <1>        0.000
     11 H           1.4090   -1.6711    0.4398 H.spc      1 <1>        0.000
     12 H           1.6134    1.1637   -0.5997 H.spc      1 <1>        0.000
     13 H          -0.5119    0.9503   -1.5944 H.spc      1 <1>        0.000
     14 H          -1.1159   -1.0961    0.4882 H.spc      1 <1>        0.000
     15 H          -2.8645   -0.7706   -1.7696 H.spc      1 <1>        0.000
     16 H          -3.7862    0.1205    0.9697 H.spc      1 <1>        0.000
     17 H          -4.7945   -0.2870   -0.5735 H.spc      1 <1>        0.000
@<TRIPOS>BOND
     1    7    8 1  
     2    8    9 2  
     3    1    2 1  
     4    2    3 2  
     5    2    4 1  
     6    4    5 2  
     7    5    6 1  
     8    6    7 2  
     9    1   10 1  
    10    4   11 1  
    11    5   12 1  
    12    6   13 1  
    13    7   14 1  
    14    8   15 1  
    15    9   16 1  
    16    9   17 1  
