#      Rotatable Fragment
#      Build by yxyuan
#
# Name:          frag5-543-207/138278
# Creation time: Sat Jun  5 12:53:42 2010


@<TRIPOS>MOLECULE
frag5-543-207/138278
   12    12     1     1     1
SMALL
USER_CHARGES


@<TRIPOS>ATOM
      1 C14         0.8424    1.0706    0.0265 C.ar       1 <1>        0.000
      2 C15         1.3008   -0.2432   -0.0001 C.ar       1 <1>        0.000
      3 C16        -0.5273    1.3260    0.0265 C.ar       1 <1>        0.000
      4 C17         0.3969   -1.3047   -0.0250 C.ar       1 <1>        0.000
      5 Br1         3.1718   -0.5909   -0.0045 Br         1 <1>        0.000
      6 C18        -1.4347    0.2696   -0.0001 C.ar       1 <1>        0.000
      7 C19        -0.9733   -1.0466   -0.0259 C.ar       1 <1>        0.000
      8 H           1.5527    1.8972    0.0473 H.spc      1 <1>        0.000
      9 H          -0.8892    2.3539    0.0473 H.spc      1 <1>        0.000
     10 H           0.7601   -2.3322   -0.0437 H.spc      1 <1>        0.000
     11 H          -2.5058    0.4715   -0.0008 H.spc      1 <1>        0.000
     12 H          -1.6837   -1.8730   -0.0468 H.spc      1 <1>        0.000
@<TRIPOS>BOND
     1    1    2 ar 
     2    1    3 ar 
     3    2    4 ar 
     4    2    5 1  
     5    3    6 ar 
     6    4    7 ar 
     7    6    7 ar 
     8    1    8 1  
     9    3    9 1  
    10    4   10 1  
    11    6   11 1  
    12    7   12 1  
# Name:          frag5-543-207/138278 -- energy: -0.093145
# Creation time: Sat Jun  5 12:53:42 2010


@<TRIPOS>MOLECULE
frag5-543-207/138278 -- energy: -0.093145
   12    12     1     1     1
SMALL
USER_CHARGES


@<TRIPOS>ATOM
      1 C14         0.8424    1.0706    0.0265 C.ar       1 <1>        0.000
      2 C15         1.3008   -0.2432   -0.0001 C.ar       1 <1>        0.000
      3 C16        -0.5273    1.3260    0.0265 C.ar       1 <1>        0.000
      4 C17         0.3969   -1.3047   -0.0250 C.ar       1 <1>        0.000
      5 Br1         3.1718   -0.5909   -0.0045 Br         1 <1>        0.000
      6 C18        -1.4347    0.2696   -0.0001 C.ar       1 <1>        0.000
      7 C19        -0.9733   -1.0466   -0.0259 C.ar       1 <1>        0.000
      8 H           1.5527    1.8972    0.0473 H.spc      1 <1>        0.000
      9 H          -0.8892    2.3539    0.0473 H.spc      1 <1>        0.000
     10 H           0.7601   -2.3322   -0.0437 H.spc      1 <1>        0.000
     11 H          -2.5058    0.4715   -0.0008 H.spc      1 <1>        0.000
     12 H          -1.6837   -1.8730   -0.0468 H.spc      1 <1>        0.000
@<TRIPOS>BOND
     1    1    2 ar 
     2    1    3 ar 
     3    2    4 ar 
     4    2    5 1  
     5    3    6 ar 
     6    4    7 ar 
     7    6    7 ar 
     8    1    8 1  
     9    3    9 1  
    10    4   10 1  
    11    6   11 1  
    12    7   12 1  
