#      Rotatable Fragment
#      Build by yxyuan
#
# Name:          frag5-531-266/138278
# Creation time: Sat Jun  5 12:53:41 2010


@<TRIPOS>MOLECULE
frag5-531-266/138278
   13    13     1     1     1
SMALL
USER_CHARGES


@<TRIPOS>ATOM
      1 C1          0.5609   -1.1874    0.1562 C.ar       1 <1>        0.000
      2 C3          1.0804    0.0516   -0.2589 C.ar       1 <1>        0.000
      3 C4         -0.8258   -1.3455    0.4084 C.ar       1 <1>        0.000
      4 C6          0.1860    1.1306   -0.4121 C.ar       1 <1>        0.000
      5 S1          2.7672    0.2394   -0.5738 S.3        1 <1>        0.000
      6 C7         -1.7078   -0.2736    0.2468 C.ar       1 <1>        0.000
      7 C11        -1.2030    0.9625   -0.1625 C.ar       1 <1>        0.000
      8 H           1.2320   -2.0365    0.2857 H.spc      1 <1>        0.000
      9 H          -1.2078   -2.3138    0.7318 H.spc      1 <1>        0.000
     10 H           0.5637    2.1039   -0.7252 H.spc      1 <1>        0.000
     11 H           3.0097    1.4921   -0.9492 H.spc      1 <1>        0.000
     12 H          -2.7735   -0.4004    0.4373 H.spc      1 <1>        0.000
     13 H          -1.8807    1.8064   -0.2918 H.spc      1 <1>        0.000
@<TRIPOS>BOND
     1    1    2 ar 
     2    1    3 ar 
     3    2    4 ar 
     4    2    5 1  
     5    3    6 ar 
     6    4    7 ar 
     7    6    7 ar 
     8    1    8 1  
     9    3    9 1  
    10    4   10 1  
    11    5   11 1  
    12    6   12 1  
    13    7   13 1  
# Name:          frag5-531-266/138278 -- energy: -0.278393
# Creation time: Sat Jun  5 12:53:41 2010


@<TRIPOS>MOLECULE
frag5-531-266/138278 -- energy: -0.278393
   13    13     1     1     1
SMALL
USER_CHARGES


@<TRIPOS>ATOM
      1 C1          0.5609   -1.1874    0.1562 C.ar       1 <1>        0.000
      2 C3          1.0804    0.0516   -0.2589 C.ar       1 <1>        0.000
      3 C4         -0.8258   -1.3455    0.4084 C.ar       1 <1>        0.000
      4 C6          0.1860    1.1306   -0.4121 C.ar       1 <1>        0.000
      5 S1          2.7672    0.2394   -0.5738 S.3        1 <1>        0.000
      6 C7         -1.7078   -0.2736    0.2468 C.ar       1 <1>        0.000
      7 C11        -1.2030    0.9625   -0.1625 C.ar       1 <1>        0.000
      8 H           1.2320   -2.0365    0.2857 H.spc      1 <1>        0.000
      9 H          -1.2078   -2.3138    0.7318 H.spc      1 <1>        0.000
     10 H           0.5637    2.1039   -0.7252 H.spc      1 <1>        0.000
     11 H           3.0097    1.4921   -0.9492 H.spc      1 <1>        0.000
     12 H          -2.7735   -0.4004    0.4373 H.spc      1 <1>        0.000
     13 H          -1.8807    1.8064   -0.2918 H.spc      1 <1>        0.000
@<TRIPOS>BOND
     1    1    2 ar 
     2    1    3 ar 
     3    2    4 ar 
     4    2    5 1  
     5    3    6 ar 
     6    4    7 ar 
     7    6    7 ar 
     8    1    8 1  
     9    3    9 1  
    10    4   10 1  
    11    5   11 1  
    12    6   12 1  
    13    7   13 1  
