#      Rotatable Fragment
#      Build by yxyuan
#
# Name:          frag5-610-33/41815
# Creation time: Sat Jun  5 12:52:58 2010


@<TRIPOS>MOLECULE
frag5-610-33/41815
   30    33     1     1     1
SMALL
USER_CHARGES


@<TRIPOS>ATOM
      1 C11         3.4064    2.1769   -0.1977 C.ar       1 <1>        0.000
      2 C12         4.5542    1.3045   -0.0954 C.ar       1 <1>        0.000
      3 C13         4.4108    0.0028   -0.0551 C.ar       1 <1>        0.000
      4 C14         3.0325   -0.4867   -0.0419 C.ar       1 <1>        0.000
      5 C15         1.9264    0.4204   -0.0264 C.ar       1 <1>        0.000
      6 C16         0.5941   -0.0636    0.0252 C.ar       1 <1>        0.000
      7 C17         0.3199   -1.4204   -0.0250 C.ar       1 <1>        0.000
      8 C26        -4.5804   -0.5060    0.0743 C.ar       1 <1>        0.000
      9 C18         1.3822   -2.3105   -0.1030 C.ar       1 <1>        0.000
     10 C19         2.7023   -1.8483   -0.0956 C.ar       1 <1>        0.000
     11 C21        -1.0867   -1.8500   -0.0224 C.2        1 <1>        0.000
     12 C22        -2.2429   -0.9421    0.0212 C.ar       1 <1>        0.000
     13 C23        -2.0005    0.4551    0.0602 C.ar       1 <1>        0.000
     14 C24        -3.0039    1.4498    0.1404 C.ar       1 <1>        0.000
     15 C25        -4.2755    0.8585    0.1258 C.ar       1 <1>        0.000
     16 C27        -3.5483   -1.4124    0.0255 C.ar       1 <1>        0.000
     17 O6         -2.8375    2.7713    0.1871 O.3        1 <1>        0.000
     18 C28        -0.5585    0.8435    0.0630 C.2        1 <1>        0.000
     19 O7         -0.2692    2.0343    0.1190 O.2        1 <1>        0.000
     20 O8         -1.2902   -3.0596   -0.0579 O.2        1 <1>        0.000
     21 O9          2.2165    1.7234   -0.0928 O.3        1 <1>        0.000
     22 O10         5.3544   -0.7045   -0.0048 O.2        1 <1>        0.000
     23 H           3.5589    3.2427   -0.3677 H.spc      1 <1>        0.000
     24 H           5.5542    1.7360   -0.0511 H.spc      1 <1>        0.000
     25 H          -5.6167   -0.8438    0.0729 H.spc      1 <1>        0.000
     26 H           1.1856   -3.3805   -0.1707 H.spc      1 <1>        0.000
     27 H           3.5102   -2.5790   -0.1333 H.spc      1 <1>        0.000
     28 H          -5.1247    1.5411    0.1583 H.spc      1 <1>        0.000
     29 H          -3.7519   -2.4827   -0.0092 H.spc      1 <1>        0.000
     30 H          -1.8993    2.9747    0.1895 H.spc      1 <1>        0.000
@<TRIPOS>BOND
     1    4   10 ar 
     2    8   16 ar 
     3    2    3 ar 
     4   18   19 2  
     5    3    4 ar 
     6   14   17 1  
     7   15    8 ar 
     8   13   18 1  
     9   14   15 ar 
    10    6    7 ar 
    11    5   21 ar 
    12    7    9 ar 
    13    6   18 1  
    14    9   10 ar 
    15    3   22 2  
    16   11   12 1  
    17    5    6 ar 
    18    4    5 ar 
    19   13   14 ar 
    20    1   21 ar 
    21    7   11 1  
    22   12   16 ar 
    23   11   20 2  
    24   12   13 ar 
    25    1    2 ar 
    26    1   23 1  
    27    2   24 1  
    28    8   25 1  
    29    9   26 1  
    30   10   27 1  
    31   15   28 1  
    32   16   29 1  
    33   17   30 1  
