#      Rotatable Fragment
#      Build by yxyuan
#
# Name:          frag2-059-5/92655
# Creation time: Sat Jun  5 12:51:57 2010


@<TRIPOS>MOLECULE
frag2-059-5/92655
   22    24     1     1     1
SMALL
USER_CHARGES


@<TRIPOS>ATOM
      1 C1         -3.4812   -0.7354    0.0923 C.ar       1 <1>        0.000
      2 C2         -2.2596   -1.4025    0.0683 C.ar       1 <1>        0.000
      3 C3         -1.0653   -0.6844    0.0356 C.ar       1 <1>        0.000
      4 N1          0.1212   -1.3322    0.0043 N.ar       1 <1>        0.000
      5 C4          1.3055   -0.6789   -0.0310 C.ar       1 <1>        0.000
      6 C5          1.3245    0.7137   -0.0303 C.ar       1 <1>        0.000
      7 N2          2.5106    1.3692   -0.0630 N.ar       1 <1>        0.000
      8 C6          3.6913    0.7058   -0.1028 C.ar       1 <1>        0.000
      9 C7          3.7072   -0.6826   -0.1055 C.ar       1 <1>        0.000
     10 C8          2.5074   -1.3797   -0.0680 C.ar       1 <1>        0.000
     11 C10         0.1217    1.4160    0.0040 C.ar       1 <1>        0.000
     12 C11        -1.0909    0.7163    0.0337 C.ar       1 <1>        0.000
     13 C12        -2.3235    1.3827    0.0598 C.ar       1 <1>        0.000
     14 C13        -3.5125    0.6558    0.0851 C.ar       1 <1>        0.000
     15 H          -4.4120   -1.3021    0.1167 H.spc      1 <1>        0.000
     16 H          -2.2369   -2.4922    0.0751 H.spc      1 <1>        0.000
     17 H           4.6283    1.2618   -0.1327 H.spc      1 <1>        0.000
     18 H           4.6545   -1.2210   -0.1368 H.spc      1 <1>        0.000
     19 H           2.5066   -2.4697   -0.0675 H.spc      1 <1>        0.000
     20 H           0.1246    2.5060    0.0077 H.spc      1 <1>        0.000
     21 H          -2.3524    2.4723    0.0603 H.spc      1 <1>        0.000
     22 H          -4.4690    1.1783    0.0993 H.spc      1 <1>        0.000
@<TRIPOS>BOND
     1    1   14 ar 
     2    7    8 ar 
     3   11   12 ar 
     4    6    7 ar 
     5    5   10 ar 
     6   13   14 ar 
     7    6   11 ar 
     8    3   12 ar 
     9   12   13 ar 
    10    9   10 ar 
    11    2    3 ar 
    12    5    6 ar 
    13    3    4 ar 
    14    4    5 ar 
    15    1    2 ar 
    16    8    9 ar 
    17    1   15 1  
    18    2   16 1  
    19    8   17 1  
    20    9   18 1  
    21   10   19 1  
    22   11   20 1  
    23   13   21 1  
    24   14   22 1  
# Name:          frag2-059-5/92655 -- energy: -0.290932
# Creation time: Sat Jun  5 12:51:57 2010


@<TRIPOS>MOLECULE
frag2-059-5/92655 -- energy: -0.290932
   22    24     1     1     1
SMALL
USER_CHARGES


@<TRIPOS>ATOM
      1 C1         -3.4812   -0.7354    0.0923 C.ar       1 <1>        0.000
      2 C2         -2.2596   -1.4025    0.0683 C.ar       1 <1>        0.000
      3 C3         -1.0653   -0.6844    0.0356 C.ar       1 <1>        0.000
      4 N1          0.1212   -1.3322    0.0043 N.ar       1 <1>        0.000
      5 C4          1.3055   -0.6789   -0.0310 C.ar       1 <1>        0.000
      6 C5          1.3245    0.7137   -0.0303 C.ar       1 <1>        0.000
      7 N2          2.5106    1.3692   -0.0630 N.ar       1 <1>        0.000
      8 C6          3.6913    0.7058   -0.1028 C.ar       1 <1>        0.000
      9 C7          3.7072   -0.6826   -0.1055 C.ar       1 <1>        0.000
     10 C8          2.5074   -1.3797   -0.0680 C.ar       1 <1>        0.000
     11 C10         0.1217    1.4160    0.0040 C.ar       1 <1>        0.000
     12 C11        -1.0909    0.7163    0.0337 C.ar       1 <1>        0.000
     13 C12        -2.3235    1.3827    0.0598 C.ar       1 <1>        0.000
     14 C13        -3.5125    0.6558    0.0851 C.ar       1 <1>        0.000
     15 H          -4.4120   -1.3021    0.1167 H.spc      1 <1>        0.000
     16 H          -2.2369   -2.4922    0.0751 H.spc      1 <1>        0.000
     17 H           4.6283    1.2618   -0.1327 H.spc      1 <1>        0.000
     18 H           4.6545   -1.2210   -0.1368 H.spc      1 <1>        0.000
     19 H           2.5066   -2.4697   -0.0675 H.spc      1 <1>        0.000
     20 H           0.1246    2.5060    0.0077 H.spc      1 <1>        0.000
     21 H          -2.3524    2.4723    0.0603 H.spc      1 <1>        0.000
     22 H          -4.4690    1.1783    0.0993 H.spc      1 <1>        0.000
@<TRIPOS>BOND
     1    1   14 ar 
     2    7    8 ar 
     3   11   12 ar 
     4    6    7 ar 
     5    5   10 ar 
     6   13   14 ar 
     7    6   11 ar 
     8    3   12 ar 
     9   12   13 ar 
    10    9   10 ar 
    11    2    3 ar 
    12    5    6 ar 
    13    3    4 ar 
    14    4    5 ar 
    15    1    2 ar 
    16    8    9 ar 
    17    1   15 1  
    18    2   16 1  
    19    8   17 1  
    20    9   18 1  
    21   10   19 1  
    22   11   20 1  
    23   13   21 1  
    24   14   22 1  
