#      Rotatable Fragment
#      Build by yxyuan
#
# Name:          frag5-575-43/41815
# Creation time: Sat Jun  5 12:52:55 2010


@<TRIPOS>MOLECULE
frag5-575-43/41815
   40    43     1     1     1
SMALL
USER_CHARGES


@<TRIPOS>ATOM
      1 C9          1.0031    0.2641   -2.9690 C.3        1 <1>        0.000
      2 C10        -0.3576   -0.0050   -3.6368 C.3        1 <1>        0.000
      3 C11        -1.4584    0.6756   -2.8140 C.3        1 <1>        0.000
      4 C12        -1.1885    2.1838   -2.7558 C.3        1 <1>        0.000
      5 C13         0.1606    2.5153   -2.0597 C.3        1 <1>        0.000
      6 C14         0.3725    4.0416   -2.1103 C.3        1 <1>        0.000
      7 C15         1.7665    4.3963   -1.6077 C.3        1 <1>        0.000
      8 C23        -2.4804    2.7166   -2.1104 C.3        1 <1>        0.000
      9 C16         2.7789    3.6934   -2.4778 C.2        1 <1>        0.000
     10 C17         3.9305    4.3301   -2.7536 C.2        1 <1>        0.000
     11 C18         4.9627    3.7099   -3.5953 C.2        1 <1>        0.000
     12 C19         4.5672    2.5709   -4.4822 C.3        1 <1>        0.000
     13 C20         3.5921    1.6284   -3.7569 C.3        1 <1>        0.000
     14 C21         2.4992    2.3210   -2.9608 C.2        1 <1>        0.000
     15 C22         1.2904    1.7454   -2.7395 C.2        1 <1>        0.000
     16 O1          6.1050    4.1479   -3.5964 O.2        1 <1>        0.000
     17 C24        -3.5889    1.8724   -2.7842 C.3        1 <1>        0.000
     18 C25        -2.8903    0.6219   -3.3601 C.3        1 <1>        0.000
     19 H           1.7754   -0.1185   -3.6363 H.spc      1 <1>        0.000
     20 H           0.9890   -0.2206   -1.9928 H.spc      1 <1>        0.000
     21 H          -0.5407   -1.0786   -3.6802 H.spc      1 <1>        0.000
     22 H          -0.3556    0.3944   -4.6510 H.spc      1 <1>        0.000
     23 H          -1.4145    0.1217   -1.8763 H.spc      1 <1>        0.000
     24 H          -1.0185    2.6741   -3.7143 H.spc      1 <1>        0.000
     25 H           0.1502    2.2077   -1.0140 H.spc      1 <1>        0.000
     26 H          -0.3696    4.5261   -1.4757 H.spc      1 <1>        0.000
     27 H           0.2671    4.3825   -3.1403 H.spc      1 <1>        0.000
     28 H           1.8813    4.0795   -0.5711 H.spc      1 <1>        0.000
     29 H           1.9175    5.4747   -1.6561 H.spc      1 <1>        0.000
     30 H          -2.6160    3.7871   -2.2644 H.spc      1 <1>        0.000
     31 H          -2.4790    2.6179   -1.0249 H.spc      1 <1>        0.000
     32 H           4.1017    5.3259   -2.3447 H.spc      1 <1>        0.000
     33 H           4.0761    2.9701   -5.3697 H.spc      1 <1>        0.000
     34 H           5.4614    2.0102   -4.7547 H.spc      1 <1>        0.000
     35 H           3.0942    1.0388   -4.5267 H.spc      1 <1>        0.000
     36 H           4.1831    1.0531   -3.0443 H.spc      1 <1>        0.000
     37 H          -4.3614    1.5949   -2.0670 H.spc      1 <1>        0.000
     38 H          -4.0904    2.4382   -3.5694 H.spc      1 <1>        0.000
     39 H          -3.3996   -0.2955   -3.0650 H.spc      1 <1>        0.000
     40 H          -2.9056    0.6183   -4.4500 H.spc      1 <1>        0.000
@<TRIPOS>BOND
     1    4    8 1  
     2    4    5 1  
     3    3   18 1  
     4    3    4 1  
     5    5   15 1  
     6    1    2 1  
     7    2    3 1  
     8    5    6 1  
     9    1   15 1  
    10    6    7 1  
    11   17   18 1  
    12   14   15 2  
    13    8   17 1  
    14   13   14 1  
    15   12   13 1  
    16   11   16 2  
    17   11   12 1  
    18   10   11 1  
    19    9   14 1  
    20    9   10 2  
    21    7    9 1  
    22    1   19 1  
    23    1   20 1  
    24    2   21 1  
    25    2   22 1  
    26    3   23 1  
    27    4   24 1  
    28    5   25 1  
    29    6   26 1  
    30    6   27 1  
    31    7   28 1  
    32    7   29 1  
    33    8   30 1  
    34    8   31 1  
    35   10   32 1  
    36   12   33 1  
    37   12   34 1  
    38   13   35 1  
    39   13   36 1  
    40   17   37 1  
    41   17   38 1  
    42   18   39 1  
    43   18   40 1  
# Name:          frag5-575-43/41815 -- energy: -6.330346
# Creation time: Sat Jun  5 12:52:55 2010


@<TRIPOS>MOLECULE
frag5-575-43/41815 -- energy: -6.330346
   40    43     1     1     1
SMALL
USER_CHARGES


@<TRIPOS>ATOM
      1 C9          1.0031    0.2641   -2.9690 C.3        1 <1>        0.000
      2 C10        -0.3576   -0.0050   -3.6368 C.3        1 <1>        0.000
      3 C11        -1.4584    0.6756   -2.8140 C.3        1 <1>        0.000
      4 C12        -1.1885    2.1838   -2.7558 C.3        1 <1>        0.000
      5 C13         0.1606    2.5153   -2.0597 C.3        1 <1>        0.000
      6 C14         0.3725    4.0416   -2.1103 C.3        1 <1>        0.000
      7 C15         1.7665    4.3963   -1.6077 C.3        1 <1>        0.000
      8 C23        -2.4804    2.7166   -2.1104 C.3        1 <1>        0.000
      9 C16         2.7789    3.6934   -2.4778 C.2        1 <1>        0.000
     10 C17         3.9305    4.3301   -2.7536 C.2        1 <1>        0.000
     11 C18         4.9627    3.7099   -3.5953 C.2        1 <1>        0.000
     12 C19         4.5672    2.5709   -4.4822 C.3        1 <1>        0.000
     13 C20         3.5921    1.6284   -3.7569 C.3        1 <1>        0.000
     14 C21         2.4992    2.3210   -2.9608 C.2        1 <1>        0.000
     15 C22         1.2904    1.7454   -2.7395 C.2        1 <1>        0.000
     16 O1          6.1050    4.1479   -3.5964 O.2        1 <1>        0.000
     17 C24        -3.5889    1.8724   -2.7842 C.3        1 <1>        0.000
     18 C25        -2.8903    0.6219   -3.3601 C.3        1 <1>        0.000
     19 H           1.7754   -0.1185   -3.6363 H.spc      1 <1>        0.000
     20 H           0.9890   -0.2206   -1.9928 H.spc      1 <1>        0.000
     21 H          -0.5407   -1.0786   -3.6802 H.spc      1 <1>        0.000
     22 H          -0.3556    0.3944   -4.6510 H.spc      1 <1>        0.000
     23 H          -1.4145    0.1217   -1.8763 H.spc      1 <1>        0.000
     24 H          -1.0185    2.6741   -3.7143 H.spc      1 <1>        0.000
     25 H           0.1502    2.2077   -1.0140 H.spc      1 <1>        0.000
     26 H          -0.3696    4.5261   -1.4757 H.spc      1 <1>        0.000
     27 H           0.2671    4.3825   -3.1403 H.spc      1 <1>        0.000
     28 H           1.8813    4.0795   -0.5711 H.spc      1 <1>        0.000
     29 H           1.9175    5.4747   -1.6561 H.spc      1 <1>        0.000
     30 H          -2.6160    3.7871   -2.2644 H.spc      1 <1>        0.000
     31 H          -2.4790    2.6179   -1.0249 H.spc      1 <1>        0.000
     32 H           4.1017    5.3259   -2.3447 H.spc      1 <1>        0.000
     33 H           4.0761    2.9701   -5.3697 H.spc      1 <1>        0.000
     34 H           5.4614    2.0102   -4.7547 H.spc      1 <1>        0.000
     35 H           3.0942    1.0388   -4.5267 H.spc      1 <1>        0.000
     36 H           4.1831    1.0531   -3.0443 H.spc      1 <1>        0.000
     37 H          -4.3614    1.5949   -2.0670 H.spc      1 <1>        0.000
     38 H          -4.0904    2.4382   -3.5694 H.spc      1 <1>        0.000
     39 H          -3.3996   -0.2955   -3.0650 H.spc      1 <1>        0.000
     40 H          -2.9056    0.6183   -4.4500 H.spc      1 <1>        0.000
@<TRIPOS>BOND
     1    4    8 1  
     2    4    5 1  
     3    3   18 1  
     4    3    4 1  
     5    5   15 1  
     6    1    2 1  
     7    2    3 1  
     8    5    6 1  
     9    1   15 1  
    10    6    7 1  
    11   17   18 1  
    12   14   15 2  
    13    8   17 1  
    14   13   14 1  
    15   12   13 1  
    16   11   16 2  
    17   11   12 1  
    18   10   11 1  
    19    9   14 1  
    20    9   10 2  
    21    7    9 1  
    22    1   19 1  
    23    1   20 1  
    24    2   21 1  
    25    2   22 1  
    26    3   23 1  
    27    4   24 1  
    28    5   25 1  
    29    6   26 1  
    30    6   27 1  
    31    7   28 1  
    32    7   29 1  
    33    8   30 1  
    34    8   31 1  
    35   10   32 1  
    36   12   33 1  
    37   12   34 1  
    38   13   35 1  
    39   13   36 1  
    40   17   37 1  
    41   17   38 1  
    42   18   39 1  
    43   18   40 1  
