#      Rotatable Fragment
#      Build by yxyuan
#
# Name:          frag5-673-24/41815
# Creation time: Sat Jun  5 12:53:03 2010


@<TRIPOS>MOLECULE
frag5-673-24/41815
   11    11     1     1     1
SMALL
USER_CHARGES


@<TRIPOS>ATOM
      1 N1         -2.0769    0.2766    0.0355 N.2        1 <1>        0.000
      2 C3         -0.8512    0.1258    0.0874 C.ar       1 <1>        0.000
      3 N2         -0.0176    1.0558    0.1940 N.ar       1 <1>        0.000
      4 C4          1.3303    1.0225    0.1157 C.ar       1 <1>        0.000
      5 C5          1.7944   -0.1726   -0.1169 C.ar       1 <1>        0.000
      6 C6          0.8914   -1.3014   -0.1719 C.ar       1 <1>        0.000
      7 N3         -0.3690   -1.0973   -0.0776 N.ar       1 <1>        0.000
      8 O2          1.9702    2.0017    0.2137 O.2        1 <1>        0.000
      9 H          -2.4778    1.2135    0.0798 H.spc      1 <1>        0.000
     10 H           2.8632   -0.3218   -0.2701 H.spc      1 <1>        0.000
     11 H           1.2792   -2.3130   -0.2921 H.spc      1 <1>        0.000
@<TRIPOS>BOND
     1    1    2 2  
     2    2    3 ar 
     3    2    7 ar 
     4    4    5 ar 
     5    3    4 ar 
     6    4    8 2  
     7    5    6 ar 
     8    6    7 ar 
     9    1    9 1  
    10    5   10 1  
    11    6   11 1  
# Name:          frag5-673-24/41815 -- energy: 0.538261
# Creation time: Sat Jun  5 12:53:03 2010


@<TRIPOS>MOLECULE
frag5-673-24/41815 -- energy: 0.538261
   11    11     1     1     1
SMALL
USER_CHARGES


@<TRIPOS>ATOM
      1 N1         -2.0769    0.2766    0.0355 N.2        1 <1>        0.000
      2 C3         -0.8512    0.1258    0.0874 C.ar       1 <1>        0.000
      3 N2         -0.0176    1.0558    0.1940 N.ar       1 <1>        0.000
      4 C4          1.3303    1.0225    0.1157 C.ar       1 <1>        0.000
      5 C5          1.7944   -0.1726   -0.1169 C.ar       1 <1>        0.000
      6 C6          0.8914   -1.3014   -0.1719 C.ar       1 <1>        0.000
      7 N3         -0.3690   -1.0973   -0.0776 N.ar       1 <1>        0.000
      8 O2          1.9702    2.0017    0.2137 O.2        1 <1>        0.000
      9 H          -2.4778    1.2135    0.0798 H.spc      1 <1>        0.000
     10 H           2.8632   -0.3218   -0.2701 H.spc      1 <1>        0.000
     11 H           1.2792   -2.3130   -0.2921 H.spc      1 <1>        0.000
@<TRIPOS>BOND
     1    1    2 2  
     2    2    3 ar 
     3    2    7 ar 
     4    4    5 ar 
     5    3    4 ar 
     6    4    8 2  
     7    5    6 ar 
     8    6    7 ar 
     9    1    9 1  
    10    5   10 1  
    11    6   11 1  
