#      Rotatable Fragment
#      Build by yxyuan
#
# Name:          frag4-431-47/48856
# Creation time: Sat Jun  5 12:52:41 2010


@<TRIPOS>MOLECULE
frag4-431-47/48856
   16    17     1     1     1
SMALL
USER_CHARGES


@<TRIPOS>ATOM
      1 C2          3.7718   -0.3126    0.8422 C.3        1 <1>        0.000
      2 C3          2.6394   -0.0729   -0.2197 C.3        1 <1>        0.000
      3 N1          2.1389    0.5955    0.9498 N.pl3      1 <1>        0.000
      4 C4          0.8986    0.9481    1.0514 C.2        1 <1>        0.000
      5 C5          0.3007    0.2262    0.1032 C.2        1 <1>        0.000
      6 C6          1.2809   -0.7606   -0.4993 C.3        1 <1>        0.000
      7 C13         3.0956    0.6427    1.8050 C.3        1 <1>        0.000
      8 H           4.8134   -0.1504    0.5649 H.spc      1 <1>        0.000
      9 H           4.0023   -1.3282    1.1639 H.spc      1 <1>        0.000
     10 H           3.0299    0.0289   -1.2322 H.spc      1 <1>        0.000
     11 H           0.4512    1.6615    1.7435 H.spc      1 <1>        0.000
     12 H          -0.7423    0.3306   -0.1956 H.spc      1 <1>        0.000
     13 H           1.2061   -1.7604   -0.0715 H.spc      1 <1>        0.000
     14 H           1.1040   -0.9547   -1.5572 H.spc      1 <1>        0.000
     15 H           3.5480    1.5689    2.1593 H.spc      1 <1>        0.000
     16 H           2.9690    0.4436    2.8692 H.spc      1 <1>        0.000
@<TRIPOS>BOND
     1    1    2 1  
     2    1    7 1  
     3    2    3 1  
     4    2    6 1  
     5    3    4 1  
     6    3    7 1  
     7    4    5 2  
     8    5    6 1  
     9    1    8 1  
    10    1    9 1  
    11    2   10 1  
    12    4   11 1  
    13    5   12 1  
    14    6   13 1  
    15    6   14 1  
    16    7   15 1  
    17    7   16 1  
# Name:          frag4-431-47/48856 -- energy: -1.233634
# Creation time: Sat Jun  5 12:52:41 2010


@<TRIPOS>MOLECULE
frag4-431-47/48856 -- energy: -1.233634
   16    17     1     1     1
SMALL
USER_CHARGES


@<TRIPOS>ATOM
      1 C2          3.7718   -0.3126    0.8422 C.3        1 <1>        0.000
      2 C3          2.6394   -0.0729   -0.2197 C.3        1 <1>        0.000
      3 N1          2.1389    0.5955    0.9498 N.pl3      1 <1>        0.000
      4 C4          0.8986    0.9481    1.0514 C.2        1 <1>        0.000
      5 C5          0.3007    0.2262    0.1032 C.2        1 <1>        0.000
      6 C6          1.2809   -0.7606   -0.4993 C.3        1 <1>        0.000
      7 C13         3.0956    0.6427    1.8050 C.3        1 <1>        0.000
      8 H           4.8134   -0.1504    0.5649 H.spc      1 <1>        0.000
      9 H           4.0023   -1.3282    1.1639 H.spc      1 <1>        0.000
     10 H           3.0299    0.0289   -1.2322 H.spc      1 <1>        0.000
     11 H           0.4512    1.6615    1.7435 H.spc      1 <1>        0.000
     12 H          -0.7423    0.3306   -0.1956 H.spc      1 <1>        0.000
     13 H           1.2061   -1.7604   -0.0715 H.spc      1 <1>        0.000
     14 H           1.1040   -0.9547   -1.5572 H.spc      1 <1>        0.000
     15 H           3.5480    1.5689    2.1593 H.spc      1 <1>        0.000
     16 H           2.9690    0.4436    2.8692 H.spc      1 <1>        0.000
@<TRIPOS>BOND
     1    1    2 1  
     2    1    7 1  
     3    2    3 1  
     4    2    6 1  
     5    3    4 1  
     6    3    7 1  
     7    4    5 2  
     8    5    6 1  
     9    1    8 1  
    10    1    9 1  
    11    2   10 1  
    12    4   11 1  
    13    5   12 1  
    14    6   13 1  
    15    6   14 1  
    16    7   15 1  
    17    7   16 1  
