#      Rotatable Fragment
#      Build by yxyuan
#
# Name:          frag5-584-127/138278
# Creation time: Sat Jun  5 12:53:45 2010


@<TRIPOS>MOLECULE
frag5-584-127/138278
   12    12     1     1     1
SMALL
USER_CHARGES


@<TRIPOS>ATOM
      1 C13        -1.2947    1.1436   -0.0006 C.ar       1 <1>        0.000
      2 C14         0.0950    1.2797    0.0088 C.ar       1 <1>        0.000
      3 N1         -1.8618   -0.0838    0.0115 N.ar       1 <1>        0.000
      4 C15         0.8972    0.1399    0.0329 C.ar       1 <1>        0.000
      5 C16        -1.1069   -1.2039    0.0352 C.ar       1 <1>        0.000
      6 O1          2.2937    0.2605    0.0437 O.3        1 <1>        0.000
      7 C17         0.2906   -1.1165    0.0456 C.ar       1 <1>        0.000
      8 H          -1.9260    2.0320   -0.0178 H.spc      1 <1>        0.000
      9 H           0.5494    2.2704   -0.0026 H.spc      1 <1>        0.000
     10 H          -1.5886   -2.1816    0.0463 H.spc      1 <1>        0.000
     11 H           2.6892   -0.6141    0.0602 H.spc      1 <1>        0.000
     12 H           0.8985   -2.0210    0.0634 H.spc      1 <1>        0.000
@<TRIPOS>BOND
     1    1    2 ar 
     2    1    3 ar 
     3    2    4 ar 
     4    4    6 1  
     5    3    5 ar 
     6    4    7 ar 
     7    5    7 ar 
     8    1    8 1  
     9    2    9 1  
    10    5   10 1  
    11    6   11 1  
    12    7   12 1  
# Name:          frag5-584-127/138278 -- energy: 0.112347
# Creation time: Sat Jun  5 12:53:45 2010


@<TRIPOS>MOLECULE
frag5-584-127/138278 -- energy: 0.112347
   12    12     1     1     1
SMALL
USER_CHARGES


@<TRIPOS>ATOM
      1 C13        -1.2947    1.1436   -0.0006 C.ar       1 <1>        0.000
      2 C14         0.0950    1.2797    0.0088 C.ar       1 <1>        0.000
      3 N1         -1.8618   -0.0838    0.0115 N.ar       1 <1>        0.000
      4 C15         0.8972    0.1399    0.0329 C.ar       1 <1>        0.000
      5 C16        -1.1069   -1.2039    0.0352 C.ar       1 <1>        0.000
      6 O1          2.2937    0.2605    0.0437 O.3        1 <1>        0.000
      7 C17         0.2906   -1.1165    0.0456 C.ar       1 <1>        0.000
      8 H          -1.9260    2.0320   -0.0178 H.spc      1 <1>        0.000
      9 H           0.5494    2.2704   -0.0026 H.spc      1 <1>        0.000
     10 H          -1.5886   -2.1816    0.0463 H.spc      1 <1>        0.000
     11 H           2.6892   -0.6141    0.0602 H.spc      1 <1>        0.000
     12 H           0.8985   -2.0210    0.0634 H.spc      1 <1>        0.000
@<TRIPOS>BOND
     1    1    2 ar 
     2    1    3 ar 
     3    2    4 ar 
     4    4    6 1  
     5    3    5 ar 
     6    4    7 ar 
     7    5    7 ar 
     8    1    8 1  
     9    2    9 1  
    10    5   10 1  
    11    6   11 1  
    12    7   12 1  
