#      Rotatable Fragment
#      Build by yxyuan
#
# Name:          frag4-412-54/48856
# Creation time: Sat Jun  5 12:51:58 2010


@<TRIPOS>MOLECULE
frag4-412-54/48856
   22    24     1     1     1
SMALL
USER_CHARGES


@<TRIPOS>ATOM
      1 N1          0.3115   -1.7236    0.1570 N.2        1 <1>        0.000
      2 C1          1.2973   -0.7786    0.0953 C.2        1 <1>        0.000
      3 C2          0.6175    0.5151   -0.0937 C.2        1 <1>        0.000
      4 C3         -0.7243    0.3238   -0.0917 C.2        1 <1>        0.000
      5 C4         -0.8480   -1.1650    0.0847 C.2        1 <1>        0.000
      6 C5         -2.2234   -1.7293    0.2087 C.2        1 <1>        0.000
      7 C6         -3.2583   -0.8505    0.1404 C.2        1 <1>        0.000
      8 C7         -3.1225    0.5679   -0.0894 C.2        1 <1>        0.000
      9 C8         -1.8967    1.1233   -0.2022 C.2        1 <1>        0.000
     10 C9          1.3588    1.7509   -0.2550 C.2        1 <1>        0.000
     11 C10         2.7097    1.7363   -0.1534 C.2        1 <1>        0.000
     12 C11         3.4135    0.4487    0.0892 C.3        1 <1>        0.000
     13 C12         2.6433   -0.8239    0.1215 C.2        1 <1>        0.000
     14 H          -2.3909   -2.7974    0.3477 H.spc      1 <1>        0.000
     15 H          -4.2657   -1.2465    0.2687 H.spc      1 <1>        0.000
     16 H          -4.0119    1.1926   -0.1721 H.spc      1 <1>        0.000
     17 H          -1.8042    2.1948   -0.3797 H.spc      1 <1>        0.000
     18 H           0.8332    2.6843   -0.4564 H.spc      1 <1>        0.000
     19 H           3.2770    2.6621   -0.2488 H.spc      1 <1>        0.000
     20 H           3.8221    0.5462    1.0950 H.spc      1 <1>        0.000
     21 H           4.0850    0.3399   -0.7625 H.spc      1 <1>        0.000
     22 H           3.1621   -1.7815    0.1658 H.spc      1 <1>        0.000
@<TRIPOS>BOND
     1    7    8 1  
     2    2    3 1  
     3   11   12 1  
     4    8    9 2  
     5    5    6 1  
     6    3   10 1  
     7   10   11 2  
     8   12   13 1  
     9    6    7 2  
    10    4    9 1  
    11    3    4 2  
    12    4    5 1  
    13    2   13 2  
    14    1    2 1  
    15    1    5 2  
    16    6   14 1  
    17    7   15 1  
    18    8   16 1  
    19    9   17 1  
    20   10   18 1  
    21   11   19 1  
    22   12   20 1  
    23   12   21 1  
    24   13   22 1  
# Name:          frag4-412-54/48856 -- energy: -1.587436
# Creation time: Sat Jun  5 12:51:58 2010


@<TRIPOS>MOLECULE
frag4-412-54/48856 -- energy: -1.587436
   22    24     1     1     1
SMALL
USER_CHARGES


@<TRIPOS>ATOM
      1 N1          0.3115   -1.7236    0.1570 N.2        1 <1>        0.000
      2 C1          1.2973   -0.7786    0.0953 C.2        1 <1>        0.000
      3 C2          0.6175    0.5151   -0.0937 C.2        1 <1>        0.000
      4 C3         -0.7243    0.3238   -0.0917 C.2        1 <1>        0.000
      5 C4         -0.8480   -1.1650    0.0847 C.2        1 <1>        0.000
      6 C5         -2.2234   -1.7293    0.2087 C.2        1 <1>        0.000
      7 C6         -3.2583   -0.8505    0.1404 C.2        1 <1>        0.000
      8 C7         -3.1225    0.5679   -0.0894 C.2        1 <1>        0.000
      9 C8         -1.8967    1.1233   -0.2022 C.2        1 <1>        0.000
     10 C9          1.3588    1.7509   -0.2550 C.2        1 <1>        0.000
     11 C10         2.7097    1.7363   -0.1534 C.2        1 <1>        0.000
     12 C11         3.4135    0.4487    0.0892 C.3        1 <1>        0.000
     13 C12         2.6433   -0.8239    0.1215 C.2        1 <1>        0.000
     14 H          -2.3909   -2.7974    0.3477 H.spc      1 <1>        0.000
     15 H          -4.2657   -1.2465    0.2687 H.spc      1 <1>        0.000
     16 H          -4.0119    1.1926   -0.1721 H.spc      1 <1>        0.000
     17 H          -1.8042    2.1948   -0.3797 H.spc      1 <1>        0.000
     18 H           0.8332    2.6843   -0.4564 H.spc      1 <1>        0.000
     19 H           3.2770    2.6621   -0.2488 H.spc      1 <1>        0.000
     20 H           3.8221    0.5462    1.0950 H.spc      1 <1>        0.000
     21 H           4.0850    0.3399   -0.7625 H.spc      1 <1>        0.000
     22 H           3.1621   -1.7815    0.1658 H.spc      1 <1>        0.000
@<TRIPOS>BOND
     1    7    8 1  
     2    2    3 1  
     3   11   12 1  
     4    8    9 2  
     5    5    6 1  
     6    3   10 1  
     7   10   11 2  
     8   12   13 1  
     9    6    7 2  
    10    4    9 1  
    11    3    4 2  
    12    4    5 1  
    13    2   13 2  
    14    1    2 1  
    15    1    5 2  
    16    6   14 1  
    17    7   15 1  
    18    8   16 1  
    19    9   17 1  
    20   10   18 1  
    21   11   19 1  
    22   12   20 1  
    23   12   21 1  
    24   13   22 1  
