#      Rotatable Fragment
#      Build by yxyuan
#
# Name:          frag4-303-610/48856
# Creation time: Sat Jun  5 12:52:47 2010


@<TRIPOS>MOLECULE
frag4-303-610/48856
   17    17     1     1     1
SMALL
USER_CHARGES


@<TRIPOS>ATOM
      1 N3         -1.9110    0.1264   -1.1254 N.3        1 <1>        0.000
      2 C14        -2.8915   -0.9235   -1.1261 C.3        1 <1>        0.000
      3 C15        -4.0460   -0.6094   -2.0424 C.3        1 <1>        0.000
      4 N4         -4.6974    0.6235   -1.6702 N.4        1 <1>        0.000
      5 C16        -3.7090    1.6909   -1.8287 C.3        1 <1>        0.000
      6 C17        -2.2446    1.4949   -1.4417 C.3        1 <1>        0.000
      7 H          -1.6149    0.1737   -0.1505 H.spc      1 <1>        0.000
      8 H          -3.2779   -1.0325   -0.1127 H.spc      1 <1>        0.000
      9 H          -2.4141   -1.8383   -1.4773 H.spc      1 <1>        0.000
     10 H          -4.7728   -1.4186   -1.9715 H.spc      1 <1>        0.000
     11 H          -3.6623   -0.5041   -3.0572 H.spc      1 <1>        0.000
     12 H          -5.0318    0.5799   -0.7076 H.spc      1 <1>        0.000
     13 H          -5.5123    0.7945   -2.2593 H.spc      1 <1>        0.000
     14 H          -3.6720    1.8503   -2.9063 H.spc      1 <1>        0.000
     15 H          -4.0549    2.4664   -1.1453 H.spc      1 <1>        0.000
     16 H          -2.0588    2.0922   -0.5491 H.spc      1 <1>        0.000
     17 H          -1.6372    1.7910   -2.2970 H.spc      1 <1>        0.000
@<TRIPOS>BOND
     1    5    6 1  
     2    1    6 1  
     3    1    2 1  
     4    2    3 1  
     5    3    4 1  
     6    4    5 1  
     7    1    7 1  
     8    2    8 1  
     9    2    9 1  
    10    3   10 1  
    11    3   11 1  
    12    4   12 1  
    13    4   13 1  
    14    5   14 1  
    15    5   15 1  
    16    6   16 1  
    17    6   17 1  
# Name:          frag4-303-610/48856 -- energy: -0.974416
# Creation time: Sat Jun  5 12:52:47 2010


@<TRIPOS>MOLECULE
frag4-303-610/48856 -- energy: -0.974416
   17    17     1     1     1
SMALL
USER_CHARGES


@<TRIPOS>ATOM
      1 N3         -1.9110    0.1264   -1.1254 N.3        1 <1>        0.000
      2 C14        -2.8915   -0.9235   -1.1261 C.3        1 <1>        0.000
      3 C15        -4.0460   -0.6094   -2.0424 C.3        1 <1>        0.000
      4 N4         -4.6974    0.6235   -1.6702 N.4        1 <1>        0.000
      5 C16        -3.7090    1.6909   -1.8287 C.3        1 <1>        0.000
      6 C17        -2.2446    1.4949   -1.4417 C.3        1 <1>        0.000
      7 H          -1.6149    0.1737   -0.1505 H.spc      1 <1>        0.000
      8 H          -3.2779   -1.0325   -0.1127 H.spc      1 <1>        0.000
      9 H          -2.4141   -1.8383   -1.4773 H.spc      1 <1>        0.000
     10 H          -4.7728   -1.4186   -1.9715 H.spc      1 <1>        0.000
     11 H          -3.6623   -0.5041   -3.0572 H.spc      1 <1>        0.000
     12 H          -5.0318    0.5799   -0.7076 H.spc      1 <1>        0.000
     13 H          -5.5123    0.7945   -2.2593 H.spc      1 <1>        0.000
     14 H          -3.6720    1.8503   -2.9063 H.spc      1 <1>        0.000
     15 H          -4.0549    2.4664   -1.1453 H.spc      1 <1>        0.000
     16 H          -2.0588    2.0922   -0.5491 H.spc      1 <1>        0.000
     17 H          -1.6372    1.7910   -2.2970 H.spc      1 <1>        0.000
@<TRIPOS>BOND
     1    5    6 1  
     2    1    6 1  
     3    1    2 1  
     4    2    3 1  
     5    3    4 1  
     6    4    5 1  
     7    1    7 1  
     8    2    8 1  
     9    2    9 1  
    10    3   10 1  
    11    3   11 1  
    12    4   12 1  
    13    4   13 1  
    14    5   14 1  
    15    5   15 1  
    16    6   16 1  
    17    6   17 1  
