#      Rotatable Fragment
#      Build by yxyuan
#
# Name:          frag4-373-277/150395
# Creation time: Sat Jun  5 12:53:32 2010


@<TRIPOS>MOLECULE
frag4-373-277/150395
   13    14     1     1     1
SMALL
USER_CHARGES


@<TRIPOS>ATOM
      1 C1          0.3485    0.3764    0.0485 C.ar       1 <1>        0.000
      2 N1          1.6379    0.3669    0.1409 N.ar       1 <1>        0.000
      3 C2         -0.0126   -1.0866   -0.1747 C.ar       1 <1>        0.000
      4 C3         -0.5691    1.5014    0.1542 C.ar       1 <1>        0.000
      5 C5          2.1373   -1.0808    0.0173 C.ar       1 <1>        0.000
      6 N2          1.1346   -1.8478   -0.2589 N.ar       1 <1>        0.000
      7 C6         -1.3202   -1.2343   -0.2401 C.ar       1 <1>        0.000
      8 C7         -1.8487    1.0844    0.0862 C.ar       1 <1>        0.000
      9 N3         -2.2242   -0.2154   -0.0601 N.ar       1 <1>        0.000
     10 H          -0.2626    2.5407    0.2724 H.spc      1 <1>        0.000
     11 H           3.1696   -1.4078    0.1423 H.spc      1 <1>        0.000
     12 H          -1.7104   -2.2300   -0.4508 H.spc      1 <1>        0.000
     13 H          -2.6341    1.8372    0.1527 H.spc      1 <1>        0.000
@<TRIPOS>BOND
     1    1    2 ar 
     2    1    3 ar 
     3    1    4 ar 
     4    2    5 ar 
     5    3    7 ar 
     6    3    6 ar 
     7    4    8 ar 
     8    5    6 ar 
     9    7    9 ar 
    10    8    9 ar 
    11    4   10 1  
    12    5   11 1  
    13    7   12 1  
    14    8   13 1  
# Name:          frag4-373-277/150395 -- energy: -0.267279
# Creation time: Sat Jun  5 12:53:32 2010


@<TRIPOS>MOLECULE
frag4-373-277/150395 -- energy: -0.267279
   13    14     1     1     1
SMALL
USER_CHARGES


@<TRIPOS>ATOM
      1 C1          0.3485    0.3764    0.0485 C.ar       1 <1>        0.000
      2 N1          1.6379    0.3669    0.1409 N.ar       1 <1>        0.000
      3 C2         -0.0126   -1.0866   -0.1747 C.ar       1 <1>        0.000
      4 C3         -0.5691    1.5014    0.1542 C.ar       1 <1>        0.000
      5 C5          2.1373   -1.0808    0.0173 C.ar       1 <1>        0.000
      6 N2          1.1346   -1.8478   -0.2589 N.ar       1 <1>        0.000
      7 C6         -1.3202   -1.2343   -0.2401 C.ar       1 <1>        0.000
      8 C7         -1.8487    1.0844    0.0862 C.ar       1 <1>        0.000
      9 N3         -2.2242   -0.2154   -0.0601 N.ar       1 <1>        0.000
     10 H          -0.2626    2.5407    0.2724 H.spc      1 <1>        0.000
     11 H           3.1696   -1.4078    0.1423 H.spc      1 <1>        0.000
     12 H          -1.7104   -2.2300   -0.4508 H.spc      1 <1>        0.000
     13 H          -2.6341    1.8372    0.1527 H.spc      1 <1>        0.000
@<TRIPOS>BOND
     1    1    2 ar 
     2    1    3 ar 
     3    1    4 ar 
     4    2    5 ar 
     5    3    7 ar 
     6    3    6 ar 
     7    4    8 ar 
     8    5    6 ar 
     9    7    9 ar 
    10    8    9 ar 
    11    4   10 1  
    12    5   11 1  
    13    7   12 1  
    14    8   13 1  
