#      Rotatable Fragment
#      Build by yxyuan
#
# Name:          frag3-285-3/96164
# Creation time: Sat Jun  5 12:53:28 2010


@<TRIPOS>MOLECULE
frag3-285-3/96164
   11    10     1     1     1
SMALL
USER_CHARGES


@<TRIPOS>ATOM
      1 C3         -0.0567   -0.2862    0.0569 C.2        1 <1>        0.000
      2 N1          1.1839   -0.8274   -0.1123 N.am       1 <1>        0.000
      3 O1         -0.4632    0.6644    0.6922 O.2        1 <1>        0.000
      4 N3          1.3620   -2.0664   -0.7430 N.am       1 <1>        0.000
      5 S1          0.4469   -3.4385   -0.6356 S.o2       1 <1>        0.000
      6 O4         -0.4847   -3.3549    0.4584 O.2        1 <1>        0.000
      7 O5          0.2341   -4.0733   -1.9051 O.2        1 <1>        0.000
      8 H          -0.8400   -0.8133   -0.4878 H.spc      1 <1>        0.000
      9 H           2.0002   -0.3191    0.2277 H.spc      1 <1>        0.000
     10 H           2.1739   -2.1305   -1.3571 H.spc      1 <1>        0.000
     11 H           1.0408   -4.5338   -0.1703 H.spc      1 <1>        0.000
@<TRIPOS>BOND
     1    1    2 am 
     2    1    3 2  
     3    2    4 1  
     4    4    5 1  
     5    5    6 2  
     6    5    7 2  
     7    1    8 1  
     8    2    9 1  
     9    4   10 1  
    10    5   11 1  
# Name:          frag3-285-3/96164
# Creation time: Sat Jun  5 12:53:28 2010


@<TRIPOS>MOLECULE
frag3-285-3/96164
   11    10     1     1     1
SMALL
USER_CHARGES


@<TRIPOS>ATOM
      1 C3          0.0018   -0.1094    0.3696 C.2        1 <1>        0.000
      2 N1          0.8397   -0.6963   -0.5326 N.am       1 <1>        0.000
      3 O1          0.2179    0.8200    1.1307 O.2        1 <1>        0.000
      4 N3          0.5685   -1.9054   -1.2054 N.am       1 <1>        0.000
      5 S1          0.3580   -3.4331   -0.6340 S.o2       1 <1>        0.000
      6 O4         -0.9716   -3.6118   -0.0948 O.2        1 <1>        0.000
      7 O5          1.2082   -4.4466   -1.2222 O.2        1 <1>        0.000
      8 H          -1.0027   -0.5298    0.4177 H.spc      1 <1>        0.000
      9 H           1.7233   -0.2283   -0.7344 H.spc      1 <1>        0.000
     10 H           0.4894   -1.8177   -2.2185 H.spc      1 <1>        0.000
     11 H           0.9690   -3.7479    0.5046 H.spc      1 <1>        0.000
@<TRIPOS>BOND
     1    1    2 am 
     2    1    3 2  
     3    2    4 1  
     4    4    5 1  
     5    5    6 2  
     6    5    7 2  
     7    1    8 1  
     8    2    9 1  
     9    4   10 1  
    10    5   11 1  
# Name:          frag3-285-3/96164
# Creation time: Sat Jun  5 12:53:28 2010


@<TRIPOS>MOLECULE
frag3-285-3/96164
   11    10     1     1     1
SMALL
USER_CHARGES


@<TRIPOS>ATOM
      1 C3          0.0220   -0.0425    0.2878 C.2        1 <1>        0.000
      2 N1          0.9622   -0.7988   -0.3339 N.am       1 <1>        0.000
      3 O1         -0.2428    1.1467    0.2461 O.2        1 <1>        0.000
      4 N3          1.0995   -2.1723   -0.1527 N.am       1 <1>        0.000
      5 S1          0.1828   -3.4436   -0.6270 S.o2       1 <1>        0.000
      6 O4          0.2479   -3.6856   -2.0434 O.2        1 <1>        0.000
      7 O5         -0.0491   -4.3864    0.4344 O.2        1 <1>        0.000
      8 H          -0.6241   -0.6110    0.9567 H.spc      1 <1>        0.000
      9 H           1.6069   -0.3328   -0.9723 H.spc      1 <1>        0.000
     10 H           1.9300   -2.4375    0.3768 H.spc      1 <1>        0.000
     11 H          -1.1337   -3.3033   -0.7539 H.spc      1 <1>        0.000
@<TRIPOS>BOND
     1    1    2 am 
     2    1    3 2  
     3    2    4 1  
     4    4    5 1  
     5    5    6 2  
     6    5    7 2  
     7    1    8 1  
     8    2    9 1  
     9    4   10 1  
    10    5   11 1  
# Name:          frag3-285-3/96164
# Creation time: Sat Jun  5 12:53:28 2010


@<TRIPOS>MOLECULE
frag3-285-3/96164
   11    10     1     1     1
SMALL
USER_CHARGES


@<TRIPOS>ATOM
      1 C3          0.0313   -0.0025    0.4159 C.2        1 <1>        0.000
      2 N1          0.8540   -1.0783    0.5196 N.am       1 <1>        0.000
      3 O1         -0.3322    0.7189   -0.4942 O.2        1 <1>        0.000
      4 N3          1.2640   -2.0306   -0.4186 N.am       1 <1>        0.000
      5 S1          0.5012   -3.4469   -0.7621 S.o2       1 <1>        0.000
      6 O4          0.2690   -4.1651    0.4642 O.2        1 <1>        0.000
      7 O5         -0.3650   -3.3779   -1.9134 O.2        1 <1>        0.000
      8 H          -0.4062    0.2814    1.3730 H.spc      1 <1>        0.000
      9 H           1.2438   -1.2168    1.4519 H.spc      1 <1>        0.000
     10 H           2.1172   -1.8278   -0.9395 H.spc      1 <1>        0.000
     11 H           1.1957   -4.4025   -1.3732 H.spc      1 <1>        0.000
@<TRIPOS>BOND
     1    1    2 am 
     2    1    3 2  
     3    2    4 1  
     4    4    5 1  
     5    5    6 2  
     6    5    7 2  
     7    1    8 1  
     8    2    9 1  
     9    4   10 1  
    10    5   11 1  
# Name:          frag3-285-3/96164
# Creation time: Sat Jun  5 12:53:28 2010


@<TRIPOS>MOLECULE
frag3-285-3/96164
   11    10     1     1     1
SMALL
USER_CHARGES


@<TRIPOS>ATOM
      1 C3          0.3074    0.0072   -0.1948 C.2        1 <1>        0.000
      2 N1          1.4010   -0.7983   -0.3514 N.am       1 <1>        0.000
      3 O1         -0.8181   -0.1237    0.2542 O.2        1 <1>        0.000
      4 N3          1.4825   -2.1811   -0.2036 N.am       1 <1>        0.000
      5 S1          0.3513   -3.3321   -0.5236 S.o2       1 <1>        0.000
      6 O4         -0.3017   -3.8131    0.6684 O.2        1 <1>        0.000
      7 O5         -0.1999   -3.1415   -1.8378 O.2        1 <1>        0.000
      8 H           0.4866    1.0174   -0.5630 H.spc      1 <1>        0.000
      9 H           2.2678   -0.3266   -0.6094 H.spc      1 <1>        0.000
     10 H           2.3714   -2.5303    0.1546 H.spc      1 <1>        0.000
     11 H           0.7237   -4.5804   -0.7921 H.spc      1 <1>        0.000
@<TRIPOS>BOND
     1    1    2 am 
     2    1    3 2  
     3    2    4 1  
     4    4    5 1  
     5    5    6 2  
     6    5    7 2  
     7    1    8 1  
     8    2    9 1  
     9    4   10 1  
    10    5   11 1  
# Name:          frag3-285-3/96164
# Creation time: Sat Jun  5 12:53:28 2010


@<TRIPOS>MOLECULE
frag3-285-3/96164
   11    10     1     1     1
SMALL
USER_CHARGES


@<TRIPOS>ATOM
      1 C3          0.4830    0.2612    0.1202 C.2        1 <1>        0.000
      2 N1          0.1496   -1.0446    0.2016 N.am       1 <1>        0.000
      3 O1         -0.0802    1.3223    0.3262 O.2        1 <1>        0.000
      4 N3          0.7976   -2.0639   -0.4797 N.am       1 <1>        0.000
      5 S1          0.5564   -3.6464   -0.7155 S.o2       1 <1>        0.000
      6 O4         -0.0062   -4.2555    0.4607 O.2        1 <1>        0.000
      7 O5          0.3222   -3.9555   -2.1021 O.2        1 <1>        0.000
      8 H           1.5115    0.4013   -0.2124 H.spc      1 <1>        0.000
      9 H          -0.6322   -1.2987    0.8054 H.spc      1 <1>        0.000
     10 H           1.6389   -1.7322   -0.9514 H.spc      1 <1>        0.000
     11 H           1.5744   -4.5023   -0.7155 H.spc      1 <1>        0.000
@<TRIPOS>BOND
     1    1    2 am 
     2    1    3 2  
     3    2    4 1  
     4    4    5 1  
     5    5    6 2  
     6    5    7 2  
     7    1    8 1  
     8    2    9 1  
     9    4   10 1  
    10    5   11 1  
# Name:          frag3-285-3/96164 -- energy: -0.907969
# Creation time: Sat Jun  5 12:53:28 2010


@<TRIPOS>MOLECULE
frag3-285-3/96164 -- energy: -0.907969
   11    10     1     1     1
SMALL
USER_CHARGES


@<TRIPOS>ATOM
      1 C3         -0.0567   -0.2862    0.0569 C.2        1 <1>        0.000
      2 N1          1.1839   -0.8274   -0.1123 N.am       1 <1>        0.000
      3 O1         -0.4632    0.6644    0.6922 O.2        1 <1>        0.000
      4 N3          1.3620   -2.0664   -0.7430 N.am       1 <1>        0.000
      5 S1          0.4469   -3.4385   -0.6356 S.o2       1 <1>        0.000
      6 O4         -0.4847   -3.3549    0.4584 O.2        1 <1>        0.000
      7 O5          0.2341   -4.0733   -1.9051 O.2        1 <1>        0.000
      8 H          -0.8400   -0.8133   -0.4878 H.spc      1 <1>        0.000
      9 H           2.0002   -0.3191    0.2277 H.spc      1 <1>        0.000
     10 H           2.1739   -2.1305   -1.3571 H.spc      1 <1>        0.000
     11 H           1.0408   -4.5338   -0.1703 H.spc      1 <1>        0.000
@<TRIPOS>BOND
     1    1    2 am 
     2    1    3 2  
     3    2    4 1  
     4    4    5 1  
     5    5    6 2  
     6    5    7 2  
     7    1    8 1  
     8    2    9 1  
     9    4   10 1  
    10    5   11 1  
# Name:          frag3-285-3/96164 -- energy: -0.781538
# Creation time: Sat Jun  5 12:53:28 2010


@<TRIPOS>MOLECULE
frag3-285-3/96164 -- energy: -0.781538
   11    10     1     1     1
SMALL
USER_CHARGES


@<TRIPOS>ATOM
      1 C3          0.0018   -0.1094    0.3696 C.2        1 <1>        0.000
      2 N1          0.8397   -0.6963   -0.5326 N.am       1 <1>        0.000
      3 O1          0.2179    0.8200    1.1307 O.2        1 <1>        0.000
      4 N3          0.5685   -1.9054   -1.2054 N.am       1 <1>        0.000
      5 S1          0.3580   -3.4331   -0.6340 S.o2       1 <1>        0.000
      6 O4         -0.9716   -3.6118   -0.0948 O.2        1 <1>        0.000
      7 O5          1.2082   -4.4466   -1.2222 O.2        1 <1>        0.000
      8 H          -1.0027   -0.5298    0.4177 H.spc      1 <1>        0.000
      9 H           1.7233   -0.2283   -0.7344 H.spc      1 <1>        0.000
     10 H           0.4894   -1.8177   -2.2185 H.spc      1 <1>        0.000
     11 H           0.9690   -3.7479    0.5046 H.spc      1 <1>        0.000
@<TRIPOS>BOND
     1    1    2 am 
     2    1    3 2  
     3    2    4 1  
     4    4    5 1  
     5    5    6 2  
     6    5    7 2  
     7    1    8 1  
     8    2    9 1  
     9    4   10 1  
    10    5   11 1  
# Name:          frag3-285-3/96164 -- energy: -0.739063
# Creation time: Sat Jun  5 12:53:28 2010


@<TRIPOS>MOLECULE
frag3-285-3/96164 -- energy: -0.739063
   11    10     1     1     1
SMALL
USER_CHARGES


@<TRIPOS>ATOM
      1 C3          0.0220   -0.0425    0.2878 C.2        1 <1>        0.000
      2 N1          0.9622   -0.7988   -0.3339 N.am       1 <1>        0.000
      3 O1         -0.2428    1.1467    0.2461 O.2        1 <1>        0.000
      4 N3          1.0995   -2.1723   -0.1527 N.am       1 <1>        0.000
      5 S1          0.1828   -3.4436   -0.6270 S.o2       1 <1>        0.000
      6 O4          0.2479   -3.6856   -2.0434 O.2        1 <1>        0.000
      7 O5         -0.0491   -4.3864    0.4344 O.2        1 <1>        0.000
      8 H          -0.6241   -0.6110    0.9567 H.spc      1 <1>        0.000
      9 H           1.6069   -0.3328   -0.9723 H.spc      1 <1>        0.000
     10 H           1.9300   -2.4375    0.3768 H.spc      1 <1>        0.000
     11 H          -1.1337   -3.3033   -0.7539 H.spc      1 <1>        0.000
@<TRIPOS>BOND
     1    1    2 am 
     2    1    3 2  
     3    2    4 1  
     4    4    5 1  
     5    5    6 2  
     6    5    7 2  
     7    1    8 1  
     8    2    9 1  
     9    4   10 1  
    10    5   11 1  
# Name:          frag3-285-3/96164 -- energy: -0.731348
# Creation time: Sat Jun  5 12:53:28 2010


@<TRIPOS>MOLECULE
frag3-285-3/96164 -- energy: -0.731348
   11    10     1     1     1
SMALL
USER_CHARGES


@<TRIPOS>ATOM
      1 C3          0.0313   -0.0025    0.4159 C.2        1 <1>        0.000
      2 N1          0.8540   -1.0783    0.5196 N.am       1 <1>        0.000
      3 O1         -0.3322    0.7189   -0.4942 O.2        1 <1>        0.000
      4 N3          1.2640   -2.0306   -0.4186 N.am       1 <1>        0.000
      5 S1          0.5012   -3.4469   -0.7621 S.o2       1 <1>        0.000
      6 O4          0.2690   -4.1651    0.4642 O.2        1 <1>        0.000
      7 O5         -0.3650   -3.3779   -1.9134 O.2        1 <1>        0.000
      8 H          -0.4062    0.2814    1.3730 H.spc      1 <1>        0.000
      9 H           1.2438   -1.2168    1.4519 H.spc      1 <1>        0.000
     10 H           2.1172   -1.8278   -0.9395 H.spc      1 <1>        0.000
     11 H           1.1957   -4.4025   -1.3732 H.spc      1 <1>        0.000
@<TRIPOS>BOND
     1    1    2 am 
     2    1    3 2  
     3    2    4 1  
     4    4    5 1  
     5    5    6 2  
     6    5    7 2  
     7    1    8 1  
     8    2    9 1  
     9    4   10 1  
    10    5   11 1  
# Name:          frag3-285-3/96164 -- energy: -0.915508
# Creation time: Sat Jun  5 12:53:28 2010


@<TRIPOS>MOLECULE
frag3-285-3/96164 -- energy: -0.915508
   11    10     1     1     1
SMALL
USER_CHARGES


@<TRIPOS>ATOM
      1 C3          0.3074    0.0072   -0.1948 C.2        1 <1>        0.000
      2 N1          1.4010   -0.7983   -0.3514 N.am       1 <1>        0.000
      3 O1         -0.8181   -0.1237    0.2542 O.2        1 <1>        0.000
      4 N3          1.4825   -2.1811   -0.2036 N.am       1 <1>        0.000
      5 S1          0.3513   -3.3321   -0.5236 S.o2       1 <1>        0.000
      6 O4         -0.3017   -3.8131    0.6684 O.2        1 <1>        0.000
      7 O5         -0.1999   -3.1415   -1.8378 O.2        1 <1>        0.000
      8 H           0.4866    1.0174   -0.5630 H.spc      1 <1>        0.000
      9 H           2.2678   -0.3266   -0.6094 H.spc      1 <1>        0.000
     10 H           2.3714   -2.5303    0.1546 H.spc      1 <1>        0.000
     11 H           0.7237   -4.5804   -0.7921 H.spc      1 <1>        0.000
@<TRIPOS>BOND
     1    1    2 am 
     2    1    3 2  
     3    2    4 1  
     4    4    5 1  
     5    5    6 2  
     6    5    7 2  
     7    1    8 1  
     8    2    9 1  
     9    4   10 1  
    10    5   11 1  
# Name:          frag3-285-3/96164 -- energy: -0.600445
# Creation time: Sat Jun  5 12:53:28 2010


@<TRIPOS>MOLECULE
frag3-285-3/96164 -- energy: -0.600445
   11    10     1     1     1
SMALL
USER_CHARGES


@<TRIPOS>ATOM
      1 C3          0.4830    0.2612    0.1202 C.2        1 <1>        0.000
      2 N1          0.1496   -1.0446    0.2016 N.am       1 <1>        0.000
      3 O1         -0.0802    1.3223    0.3262 O.2        1 <1>        0.000
      4 N3          0.7976   -2.0639   -0.4797 N.am       1 <1>        0.000
      5 S1          0.5564   -3.6464   -0.7155 S.o2       1 <1>        0.000
      6 O4         -0.0062   -4.2555    0.4607 O.2        1 <1>        0.000
      7 O5          0.3222   -3.9555   -2.1021 O.2        1 <1>        0.000
      8 H           1.5115    0.4013   -0.2124 H.spc      1 <1>        0.000
      9 H          -0.6322   -1.2987    0.8054 H.spc      1 <1>        0.000
     10 H           1.6389   -1.7322   -0.9514 H.spc      1 <1>        0.000
     11 H           1.5744   -4.5023   -0.7155 H.spc      1 <1>        0.000
@<TRIPOS>BOND
     1    1    2 am 
     2    1    3 2  
     3    2    4 1  
     4    4    5 1  
     5    5    6 2  
     6    5    7 2  
     7    1    8 1  
     8    2    9 1  
     9    4   10 1  
    10    5   11 1  
