#      Rotatable Fragment
#      Build by yxyuan
#
# Name:          frag4-491-31/48856
# Creation time: Sat Jun  5 12:52:49 2010


@<TRIPOS>MOLECULE
frag4-491-31/48856
   38    41     1     1     1
SMALL
USER_CHARGES


@<TRIPOS>ATOM
      1 C11         0.0921    0.8691    1.9498 C.ar       1 <1>        0.000
      2 C12         1.1553    1.3488    2.7398 C.ar       1 <1>        0.000
      3 C13         2.4302    0.7448    2.6604 C.ar       1 <1>        0.000
      4 C14         2.7029   -0.0889    1.5041 C.ar       1 <1>        0.000
      5 C15         1.6124   -0.6990    0.9051 C.ar       1 <1>        0.000
      6 C16         0.3271   -0.1519    1.0281 C.ar       1 <1>        0.000
      7 C17         4.0459   -0.7538    1.4327 C.3        1 <1>        0.000
      8 C26         9.3945   -0.3683    2.4838 C.3        1 <1>        0.000
      9 C18         4.5788   -0.3300    2.6740 C.2        1 <1>        0.000
     10 C19         5.2060    0.3388    3.5783 C.2        1 <1>        0.000
     11 C20         6.0067    1.3070    4.1159 C.2        1 <1>        0.000
     12 C21         7.1480    0.6051    4.2161 C.2        1 <1>        0.000
     13 C22         7.2297   -0.8994    3.7015 C.3        1 <1>        0.000
     14 C23         6.2895   -0.9353    2.4016 C.3        1 <1>        0.000
     15 C24         7.1898   -0.0936    1.3723 C.3        1 <1>        0.000
     16 C25         8.6861   -0.3198    1.1554 C.3        1 <1>        0.000
     17 C27         8.6948   -1.2579    3.4867 C.3        1 <1>        0.000
     18 C35         3.6397    1.0456    3.5964 C.3        1 <1>        0.000
     19 H          -0.9066    1.2923    2.0577 H.spc      1 <1>        0.000
     20 H           0.9938    2.1892    3.4149 H.spc      1 <1>        0.000
     21 H           1.7553   -1.6149    0.3316 H.spc      1 <1>        0.000
     22 H          -0.4866   -0.5233    0.4051 H.spc      1 <1>        0.000
     23 H           4.0134   -1.8346    1.2951 H.spc      1 <1>        0.000
     24 H           4.6439   -0.4824    0.5627 H.spc      1 <1>        0.000
     25 H          10.3924   -0.7735    2.3162 H.spc      1 <1>        0.000
     26 H           9.4136    0.6431    2.8898 H.spc      1 <1>        0.000
     27 H           5.7855    2.3402    4.3835 H.spc      1 <1>        0.000
     28 H           8.0296    1.0718    4.6555 H.spc      1 <1>        0.000
     29 H           6.8710   -1.6593    4.3957 H.spc      1 <1>        0.000
     30 H           6.0453   -1.9341    2.0398 H.spc      1 <1>        0.000
     31 H           6.7648   -0.3654    0.4061 H.spc      1 <1>        0.000
     32 H           7.1590    0.9108    1.7945 H.spc      1 <1>        0.000
     33 H           8.8351   -1.2651    0.6335 H.spc      1 <1>        0.000
     34 H           9.0913    0.4993    0.5613 H.spc      1 <1>        0.000
     35 H           9.2045   -1.1371    4.4426 H.spc      1 <1>        0.000
     36 H           8.7289   -2.2764    3.1001 H.spc      1 <1>        0.000
     37 H           3.2590    0.6789    4.5497 H.spc      1 <1>        0.000
     38 H           3.8728    2.0709    3.3092 H.spc      1 <1>        0.000
@<TRIPOS>BOND
     1    2    3 ar 
     2    3    4 ar 
     3    1    6 ar 
     4    7    9 1  
     5   11   12 2  
     6    9   14 1  
     7    4    5 ar 
     8   10   11 1  
     9    3   18 1  
    10    1    2 ar 
    11   12   13 1  
    12    4    7 1  
    13    5    6 ar 
    14    9   10 2  
    15   10   18 1  
    16    8   17 1  
    17   16    8 1  
    18   15   16 1  
    19   14   15 1  
    20   13   17 1  
    21   13   14 1  
    22    1   19 1  
    23    2   20 1  
    24    5   21 1  
    25    6   22 1  
    26    7   23 1  
    27    7   24 1  
    28    8   25 1  
    29    8   26 1  
    30   11   27 1  
    31   12   28 1  
    32   13   29 1  
    33   14   30 1  
    34   15   31 1  
    35   15   32 1  
    36   16   33 1  
    37   16   34 1  
    38   17   35 1  
    39   17   36 1  
    40   18   37 1  
    41   18   38 1  
# Name:          frag4-491-31/48856 -- energy: 0.674472
# Creation time: Sat Jun  5 12:52:49 2010


@<TRIPOS>MOLECULE
frag4-491-31/48856 -- energy: 0.674472
   38    41     1     1     1
SMALL
USER_CHARGES


@<TRIPOS>ATOM
      1 C11         0.0921    0.8691    1.9498 C.ar       1 <1>        0.000
      2 C12         1.1553    1.3488    2.7398 C.ar       1 <1>        0.000
      3 C13         2.4302    0.7448    2.6604 C.ar       1 <1>        0.000
      4 C14         2.7029   -0.0889    1.5041 C.ar       1 <1>        0.000
      5 C15         1.6124   -0.6990    0.9051 C.ar       1 <1>        0.000
      6 C16         0.3271   -0.1519    1.0281 C.ar       1 <1>        0.000
      7 C17         4.0459   -0.7538    1.4327 C.3        1 <1>        0.000
      8 C26         9.3945   -0.3683    2.4838 C.3        1 <1>        0.000
      9 C18         4.5788   -0.3300    2.6740 C.2        1 <1>        0.000
     10 C19         5.2060    0.3388    3.5783 C.2        1 <1>        0.000
     11 C20         6.0067    1.3070    4.1159 C.2        1 <1>        0.000
     12 C21         7.1480    0.6051    4.2161 C.2        1 <1>        0.000
     13 C22         7.2297   -0.8994    3.7015 C.3        1 <1>        0.000
     14 C23         6.2895   -0.9353    2.4016 C.3        1 <1>        0.000
     15 C24         7.1898   -0.0936    1.3723 C.3        1 <1>        0.000
     16 C25         8.6861   -0.3198    1.1554 C.3        1 <1>        0.000
     17 C27         8.6948   -1.2579    3.4867 C.3        1 <1>        0.000
     18 C35         3.6397    1.0456    3.5964 C.3        1 <1>        0.000
     19 H          -0.9066    1.2923    2.0577 H.spc      1 <1>        0.000
     20 H           0.9938    2.1892    3.4149 H.spc      1 <1>        0.000
     21 H           1.7553   -1.6149    0.3316 H.spc      1 <1>        0.000
     22 H          -0.4866   -0.5233    0.4051 H.spc      1 <1>        0.000
     23 H           4.0134   -1.8346    1.2951 H.spc      1 <1>        0.000
     24 H           4.6439   -0.4824    0.5627 H.spc      1 <1>        0.000
     25 H          10.3924   -0.7735    2.3162 H.spc      1 <1>        0.000
     26 H           9.4136    0.6431    2.8898 H.spc      1 <1>        0.000
     27 H           5.7855    2.3402    4.3835 H.spc      1 <1>        0.000
     28 H           8.0296    1.0718    4.6555 H.spc      1 <1>        0.000
     29 H           6.8710   -1.6593    4.3957 H.spc      1 <1>        0.000
     30 H           6.0453   -1.9341    2.0398 H.spc      1 <1>        0.000
     31 H           6.7648   -0.3654    0.4061 H.spc      1 <1>        0.000
     32 H           7.1590    0.9108    1.7945 H.spc      1 <1>        0.000
     33 H           8.8351   -1.2651    0.6335 H.spc      1 <1>        0.000
     34 H           9.0913    0.4993    0.5613 H.spc      1 <1>        0.000
     35 H           9.2045   -1.1371    4.4426 H.spc      1 <1>        0.000
     36 H           8.7289   -2.2764    3.1001 H.spc      1 <1>        0.000
     37 H           3.2590    0.6789    4.5497 H.spc      1 <1>        0.000
     38 H           3.8728    2.0709    3.3092 H.spc      1 <1>        0.000
@<TRIPOS>BOND
     1    2    3 ar 
     2    3    4 ar 
     3    1    6 ar 
     4    7    9 1  
     5   11   12 2  
     6    9   14 1  
     7    4    5 ar 
     8   10   11 1  
     9    3   18 1  
    10    1    2 ar 
    11   12   13 1  
    12    4    7 1  
    13    5    6 ar 
    14    9   10 2  
    15   10   18 1  
    16    8   17 1  
    17   16    8 1  
    18   15   16 1  
    19   14   15 1  
    20   13   17 1  
    21   13   14 1  
    22    1   19 1  
    23    2   20 1  
    24    5   21 1  
    25    6   22 1  
    26    7   23 1  
    27    7   24 1  
    28    8   25 1  
    29    8   26 1  
    30   11   27 1  
    31   12   28 1  
    32   13   29 1  
    33   14   30 1  
    34   15   31 1  
    35   15   32 1  
    36   16   33 1  
    37   16   34 1  
    38   17   35 1  
    39   17   36 1  
    40   18   37 1  
    41   18   38 1  
