#      Rotatable Fragment
#      Build by yxyuan
#
# Name:          frag5-569-148/138278
# Creation time: Sat Jun  5 12:53:44 2010


@<TRIPOS>MOLECULE
frag5-569-148/138278
   19    19     1     1     1
SMALL
USER_CHARGES


@<TRIPOS>ATOM
      1 C1         -1.5613    0.4400    0.0258 C.ar       1 <1>        0.000
      2 C2         -2.8352    1.0101   -0.1584 C.ar       1 <1>        0.000
      3 C3         -1.4601   -0.9292    0.2692 C.ar       1 <1>        0.000
      4 C4         -0.3123    1.3005   -0.0294 C.2        1 <1>        0.000
      5 C5         -3.9611    0.1861   -0.0879 C.ar       1 <1>        0.000
      6 O1         -3.0173    2.3629   -0.4119 O.3        1 <1>        0.000
      7 C6         -2.5908   -1.7482    0.3151 C.ar       1 <1>        0.000
      8 N1          0.7189    0.9895   -0.8417 N.am       1 <1>        0.000
      9 O2         -0.2817    2.2897    0.6856 O.2        1 <1>        0.000
     10 C7         -3.8712   -1.1891    0.1376 C.ar       1 <1>        0.000
     11 Cl1        -2.3702   -3.4610    0.6028 Cl         1 <1>        0.000
     12 N2         -4.9911   -1.9494    0.1832 N.pl3      1 <1>        0.000
     13 H          -0.4761   -1.3706    0.4273 H.spc      1 <1>        0.000
     14 H          -4.9471    0.6335   -0.2137 H.spc      1 <1>        0.000
     15 H          -3.9550    2.5464   -0.5053 H.spc      1 <1>        0.000
     16 H           1.5460    1.5859   -0.8671 H.spc      1 <1>        0.000
     17 H           0.6715    0.1580   -1.4305 H.spc      1 <1>        0.000
     18 H          -5.9061   -1.5180    0.0525 H.spc      1 <1>        0.000
     19 H          -4.9195   -2.9534    0.3482 H.spc      1 <1>        0.000
@<TRIPOS>BOND
     1    5   10 ar 
     2    7   11 1  
     3   10   12 1  
     4    4    8 am 
     5    7   10 ar 
     6    4    9 2  
     7    1    2 ar 
     8    1    3 ar 
     9    1    4 1  
    10    2    6 1  
    11    2    5 ar 
    12    3    7 ar 
    13    3   13 1  
    14    5   14 1  
    15    6   15 1  
    16    8   16 1  
    17    8   17 1  
    18   12   18 1  
    19   12   19 1  
# Name:          frag5-569-148/138278
# Creation time: Sat Jun  5 12:53:44 2010


@<TRIPOS>MOLECULE
frag5-569-148/138278
   19    19     1     1     1
SMALL
USER_CHARGES


@<TRIPOS>ATOM
      1 C1         -1.5547    0.4287    0.0032 C.ar       1 <1>        0.000
      2 C2         -2.8280    1.0144   -0.1314 C.ar       1 <1>        0.000
      3 C3         -1.4597   -0.9447    0.2222 C.ar       1 <1>        0.000
      4 C4         -0.2986    1.2776   -0.0800 C.2        1 <1>        0.000
      5 C5         -3.9587    0.1995   -0.0368 C.ar       1 <1>        0.000
      6 O1         -3.0042    2.3719   -0.3578 O.3        1 <1>        0.000
      7 C6         -2.5961   -1.7540    0.2924 C.ar       1 <1>        0.000
      8 N1         -0.0571    2.2613    0.8116 N.am       1 <1>        0.000
      9 O2          0.4855    1.0289   -0.9808 O.2        1 <1>        0.000
     10 C7         -3.8763   -1.1797    0.1650 C.ar       1 <1>        0.000
     11 Cl1        -2.3839   -3.4727    0.5468 Cl         1 <1>        0.000
     12 N2         -5.0015   -1.9296    0.2355 N.pl3      1 <1>        0.000
     13 H          -0.4755   -1.3978    0.3415 H.spc      1 <1>        0.000
     14 H          -4.9437    0.6582   -0.1239 H.spc      1 <1>        0.000
     15 H          -3.9424    2.5659   -0.4183 H.spc      1 <1>        0.000
     16 H           0.7962    2.8156    0.7408 H.spc      1 <1>        0.000
     17 H          -0.7279    2.4506    1.5563 H.spc      1 <1>        0.000
     18 H          -5.9158   -1.4874    0.1410 H.spc      1 <1>        0.000
     19 H          -4.9348   -2.9367    0.3831 H.spc      1 <1>        0.000
@<TRIPOS>BOND
     1    5   10 ar 
     2    7   11 1  
     3   10   12 1  
     4    4    8 am 
     5    7   10 ar 
     6    4    9 2  
     7    1    2 ar 
     8    1    3 ar 
     9    1    4 1  
    10    2    6 1  
    11    2    5 ar 
    12    3    7 ar 
    13    3   13 1  
    14    5   14 1  
    15    6   15 1  
    16    8   16 1  
    17    8   17 1  
    18   12   18 1  
    19   12   19 1  
# Name:          frag5-569-148/138278
# Creation time: Sat Jun  5 12:53:44 2010


@<TRIPOS>MOLECULE
frag5-569-148/138278
   19    19     1     1     1
SMALL
USER_CHARGES


@<TRIPOS>ATOM
      1 C1         -1.5533    0.4299    0.0318 C.ar       1 <1>        0.000
      2 C2         -2.8044    0.9718   -0.3109 C.ar       1 <1>        0.000
      3 C3         -1.4788   -0.9120    0.4113 C.ar       1 <1>        0.000
      4 C4         -0.3004    1.2847    0.0014 C.2        1 <1>        0.000
      5 C5         -3.9389    0.1584   -0.2598 C.ar       1 <1>        0.000
      6 O1         -2.9574    2.2989   -0.7065 O.3        1 <1>        0.000
      7 C6         -2.6148   -1.7246    0.4378 C.ar       1 <1>        0.000
      8 N1         -0.3104    2.5314   -0.5167 N.am       1 <1>        0.000
      9 O2          0.7173    0.8032    0.4724 O.2        1 <1>        0.000
     10 C7         -3.8708   -1.1898    0.1018 C.ar       1 <1>        0.000
     11 Cl1        -2.4260   -3.4033    0.9032 Cl         1 <1>        0.000
     12 N2         -4.9956   -1.9467    0.1242 N.pl3      1 <1>        0.000
     13 H          -0.5141   -1.3342    0.6927 H.spc      1 <1>        0.000
     14 H          -4.9084    0.5891   -0.5100 H.spc      1 <1>        0.000
     15 H          -3.8828    2.4706   -0.8957 H.spc      1 <1>        0.000
     16 H           0.5434    3.0895   -0.5193 H.spc      1 <1>        0.000
     17 H          -1.1717    2.9152   -0.9055 H.spc      1 <1>        0.000
     18 H          -5.8942   -1.5323   -0.1232 H.spc      1 <1>        0.000
     19 H          -4.9431   -2.9305    0.3885 H.spc      1 <1>        0.000
@<TRIPOS>BOND
     1    5   10 ar 
     2    7   11 1  
     3   10   12 1  
     4    4    8 am 
     5    7   10 ar 
     6    4    9 2  
     7    1    2 ar 
     8    1    3 ar 
     9    1    4 1  
    10    2    6 1  
    11    2    5 ar 
    12    3    7 ar 
    13    3   13 1  
    14    5   14 1  
    15    6   15 1  
    16    8   16 1  
    17    8   17 1  
    18   12   18 1  
    19   12   19 1  
# Name:          frag5-569-148/138278 -- energy: -1.408516
# Creation time: Sat Jun  5 12:53:44 2010


@<TRIPOS>MOLECULE
frag5-569-148/138278 -- energy: -1.408516
   19    19     1     1     1
SMALL
USER_CHARGES


@<TRIPOS>ATOM
      1 C1         -1.5613    0.4400    0.0258 C.ar       1 <1>        0.000
      2 C2         -2.8352    1.0101   -0.1584 C.ar       1 <1>        0.000
      3 C3         -1.4601   -0.9292    0.2692 C.ar       1 <1>        0.000
      4 C4         -0.3123    1.3005   -0.0294 C.2        1 <1>        0.000
      5 C5         -3.9611    0.1861   -0.0879 C.ar       1 <1>        0.000
      6 O1         -3.0173    2.3629   -0.4119 O.3        1 <1>        0.000
      7 C6         -2.5908   -1.7482    0.3151 C.ar       1 <1>        0.000
      8 N1          0.7189    0.9895   -0.8417 N.am       1 <1>        0.000
      9 O2         -0.2817    2.2897    0.6856 O.2        1 <1>        0.000
     10 C7         -3.8712   -1.1891    0.1376 C.ar       1 <1>        0.000
     11 Cl1        -2.3702   -3.4610    0.6028 Cl         1 <1>        0.000
     12 N2         -4.9911   -1.9494    0.1832 N.pl3      1 <1>        0.000
     13 H          -0.4761   -1.3706    0.4273 H.spc      1 <1>        0.000
     14 H          -4.9471    0.6335   -0.2137 H.spc      1 <1>        0.000
     15 H          -3.9550    2.5464   -0.5053 H.spc      1 <1>        0.000
     16 H           1.5460    1.5859   -0.8671 H.spc      1 <1>        0.000
     17 H           0.6715    0.1580   -1.4305 H.spc      1 <1>        0.000
     18 H          -5.9061   -1.5180    0.0525 H.spc      1 <1>        0.000
     19 H          -4.9195   -2.9534    0.3482 H.spc      1 <1>        0.000
@<TRIPOS>BOND
     1    5   10 ar 
     2    7   11 1  
     3   10   12 1  
     4    4    8 am 
     5    7   10 ar 
     6    4    9 2  
     7    1    2 ar 
     8    1    3 ar 
     9    1    4 1  
    10    2    6 1  
    11    2    5 ar 
    12    3    7 ar 
    13    3   13 1  
    14    5   14 1  
    15    6   15 1  
    16    8   16 1  
    17    8   17 1  
    18   12   18 1  
    19   12   19 1  
# Name:          frag5-569-148/138278 -- energy: -1.451913
# Creation time: Sat Jun  5 12:53:44 2010


@<TRIPOS>MOLECULE
frag5-569-148/138278 -- energy: -1.451913
   19    19     1     1     1
SMALL
USER_CHARGES


@<TRIPOS>ATOM
      1 C1         -1.5547    0.4287    0.0032 C.ar       1 <1>        0.000
      2 C2         -2.8280    1.0144   -0.1314 C.ar       1 <1>        0.000
      3 C3         -1.4597   -0.9447    0.2222 C.ar       1 <1>        0.000
      4 C4         -0.2986    1.2776   -0.0800 C.2        1 <1>        0.000
      5 C5         -3.9587    0.1995   -0.0368 C.ar       1 <1>        0.000
      6 O1         -3.0042    2.3719   -0.3578 O.3        1 <1>        0.000
      7 C6         -2.5961   -1.7540    0.2924 C.ar       1 <1>        0.000
      8 N1         -0.0571    2.2613    0.8116 N.am       1 <1>        0.000
      9 O2          0.4855    1.0289   -0.9808 O.2        1 <1>        0.000
     10 C7         -3.8763   -1.1797    0.1650 C.ar       1 <1>        0.000
     11 Cl1        -2.3839   -3.4727    0.5468 Cl         1 <1>        0.000
     12 N2         -5.0015   -1.9296    0.2355 N.pl3      1 <1>        0.000
     13 H          -0.4755   -1.3978    0.3415 H.spc      1 <1>        0.000
     14 H          -4.9437    0.6582   -0.1239 H.spc      1 <1>        0.000
     15 H          -3.9424    2.5659   -0.4183 H.spc      1 <1>        0.000
     16 H           0.7962    2.8156    0.7408 H.spc      1 <1>        0.000
     17 H          -0.7279    2.4506    1.5563 H.spc      1 <1>        0.000
     18 H          -5.9158   -1.4874    0.1410 H.spc      1 <1>        0.000
     19 H          -4.9348   -2.9367    0.3831 H.spc      1 <1>        0.000
@<TRIPOS>BOND
     1    5   10 ar 
     2    7   11 1  
     3   10   12 1  
     4    4    8 am 
     5    7   10 ar 
     6    4    9 2  
     7    1    2 ar 
     8    1    3 ar 
     9    1    4 1  
    10    2    6 1  
    11    2    5 ar 
    12    3    7 ar 
    13    3   13 1  
    14    5   14 1  
    15    6   15 1  
    16    8   16 1  
    17    8   17 1  
    18   12   18 1  
    19   12   19 1  
# Name:          frag5-569-148/138278 -- energy: 2.972570
# Creation time: Sat Jun  5 12:53:44 2010


@<TRIPOS>MOLECULE
frag5-569-148/138278 -- energy: 2.972570
   19    19     1     1     1
SMALL
USER_CHARGES


@<TRIPOS>ATOM
      1 C1         -1.5533    0.4299    0.0318 C.ar       1 <1>        0.000
      2 C2         -2.8044    0.9718   -0.3109 C.ar       1 <1>        0.000
      3 C3         -1.4788   -0.9120    0.4113 C.ar       1 <1>        0.000
      4 C4         -0.3004    1.2847    0.0014 C.2        1 <1>        0.000
      5 C5         -3.9389    0.1584   -0.2598 C.ar       1 <1>        0.000
      6 O1         -2.9574    2.2989   -0.7065 O.3        1 <1>        0.000
      7 C6         -2.6148   -1.7246    0.4378 C.ar       1 <1>        0.000
      8 N1         -0.3104    2.5314   -0.5167 N.am       1 <1>        0.000
      9 O2          0.7173    0.8032    0.4724 O.2        1 <1>        0.000
     10 C7         -3.8708   -1.1898    0.1018 C.ar       1 <1>        0.000
     11 Cl1        -2.4260   -3.4033    0.9032 Cl         1 <1>        0.000
     12 N2         -4.9956   -1.9467    0.1242 N.pl3      1 <1>        0.000
     13 H          -0.5141   -1.3342    0.6927 H.spc      1 <1>        0.000
     14 H          -4.9084    0.5891   -0.5100 H.spc      1 <1>        0.000
     15 H          -3.8828    2.4706   -0.8957 H.spc      1 <1>        0.000
     16 H           0.5434    3.0895   -0.5193 H.spc      1 <1>        0.000
     17 H          -1.1717    2.9152   -0.9055 H.spc      1 <1>        0.000
     18 H          -5.8942   -1.5323   -0.1232 H.spc      1 <1>        0.000
     19 H          -4.9431   -2.9305    0.3885 H.spc      1 <1>        0.000
@<TRIPOS>BOND
     1    5   10 ar 
     2    7   11 1  
     3   10   12 1  
     4    4    8 am 
     5    7   10 ar 
     6    4    9 2  
     7    1    2 ar 
     8    1    3 ar 
     9    1    4 1  
    10    2    6 1  
    11    2    5 ar 
    12    3    7 ar 
    13    3   13 1  
    14    5   14 1  
    15    6   15 1  
    16    8   16 1  
    17    8   17 1  
    18   12   18 1  
    19   12   19 1  
