#      Rotatable Fragment
#      Build by yxyuan
#
# Name:          frag4-343-446/150395
# Creation time: Sat Jun  5 12:53:31 2010


@<TRIPOS>MOLECULE
frag4-343-446/150395
   16    17     1     1     1
SMALL
USER_CHARGES


@<TRIPOS>ATOM
      1 C1         -0.0866   -0.6200    0.0461 C.ar       1 <1>        0.000
      2 C2         -0.1180    0.7906    0.2829 C.ar       1 <1>        0.000
      3 C3          1.1573   -1.1922   -0.2317 C.ar       1 <1>        0.000
      4 C4         -1.3696   -1.2919   -0.0347 C.ar       1 <1>        0.000
      5 C5          1.0838    1.4773    0.4429 C.ar       1 <1>        0.000
      6 N1         -1.3548    1.4308    0.3444 N.ar       1 <1>        0.000
      7 C6          2.3455   -0.4632   -0.1504 C.ar       1 <1>        0.000
      8 N2         -2.4605   -0.6709   -0.1020 N.ar       1 <1>        0.000
      9 C7          2.3101    0.8837    0.1669 C.ar       1 <1>        0.000
     10 C8         -2.4313    0.8821   -0.0768 C.ar       1 <1>        0.000
     11 H           1.2017   -2.2421   -0.5214 H.spc      1 <1>        0.000
     12 H          -1.3886   -2.3817   -0.0372 H.spc      1 <1>        0.000
     13 H           1.0618    2.5089    0.7943 H.spc      1 <1>        0.000
     14 H           3.3005   -0.9546   -0.3367 H.spc      1 <1>        0.000
     15 H           3.2288    1.4693    0.1998 H.spc      1 <1>        0.000
     16 H          -3.2860    1.4753   -0.4020 H.spc      1 <1>        0.000
@<TRIPOS>BOND
     1    6   10 ar 
     2    8   10 ar 
     3    7    9 ar 
     4    1    3 ar 
     5    1    2 ar 
     6    1    4 ar 
     7    2    5 ar 
     8    2    6 ar 
     9    3    7 ar 
    10    4    8 ar 
    11    5    9 ar 
    12    3   11 1  
    13    4   12 1  
    14    5   13 1  
    15    7   14 1  
    16    9   15 1  
    17   10   16 1  
# Name:          frag4-343-446/150395 -- energy: -0.155439
# Creation time: Sat Jun  5 12:53:31 2010


@<TRIPOS>MOLECULE
frag4-343-446/150395 -- energy: -0.155439
   16    17     1     1     1
SMALL
USER_CHARGES


@<TRIPOS>ATOM
      1 C1         -0.0866   -0.6200    0.0461 C.ar       1 <1>        0.000
      2 C2         -0.1180    0.7906    0.2829 C.ar       1 <1>        0.000
      3 C3          1.1573   -1.1922   -0.2317 C.ar       1 <1>        0.000
      4 C4         -1.3696   -1.2919   -0.0347 C.ar       1 <1>        0.000
      5 C5          1.0838    1.4773    0.4429 C.ar       1 <1>        0.000
      6 N1         -1.3548    1.4308    0.3444 N.ar       1 <1>        0.000
      7 C6          2.3455   -0.4632   -0.1504 C.ar       1 <1>        0.000
      8 N2         -2.4605   -0.6709   -0.1020 N.ar       1 <1>        0.000
      9 C7          2.3101    0.8837    0.1669 C.ar       1 <1>        0.000
     10 C8         -2.4313    0.8821   -0.0768 C.ar       1 <1>        0.000
     11 H           1.2017   -2.2421   -0.5214 H.spc      1 <1>        0.000
     12 H          -1.3886   -2.3817   -0.0372 H.spc      1 <1>        0.000
     13 H           1.0618    2.5089    0.7943 H.spc      1 <1>        0.000
     14 H           3.3005   -0.9546   -0.3367 H.spc      1 <1>        0.000
     15 H           3.2288    1.4693    0.1998 H.spc      1 <1>        0.000
     16 H          -3.2860    1.4753   -0.4020 H.spc      1 <1>        0.000
@<TRIPOS>BOND
     1    6   10 ar 
     2    8   10 ar 
     3    7    9 ar 
     4    1    3 ar 
     5    1    2 ar 
     6    1    4 ar 
     7    2    5 ar 
     8    2    6 ar 
     9    3    7 ar 
    10    4    8 ar 
    11    5    9 ar 
    12    3   11 1  
    13    4   12 1  
    14    5   13 1  
    15    7   14 1  
    16    9   15 1  
    17   10   16 1  
