#      Rotatable Fragment
#      Build by yxyuan
#
# Name:          frag4-407-184/150395
# Creation time: Sat Jun  5 12:53:34 2010


@<TRIPOS>MOLECULE
frag4-407-184/150395
   21    21     1     1     1
SMALL
USER_CHARGES


@<TRIPOS>ATOM
      1 C15        -2.6109    0.8783    2.0775 C.3        1 <1>        0.000
      2 C17        -2.1495    2.3204    2.1921 C.3        1 <1>        0.000
      3 C18        -3.9326    0.4024    2.6378 C.3        1 <1>        0.000
      4 C19        -3.1584    3.4448    2.1383 C.3        1 <1>        0.000
      5 C20        -5.1573    1.0158    2.0188 C.3        1 <1>        0.000
      6 C21        -4.4030    3.3216    2.9672 C.3        1 <1>        0.000
      7 C22        -5.5002    2.4147    2.4448 C.3        1 <1>        0.000
      8 H          -1.8750    0.3301    2.6658 H.spc      1 <1>        0.000
      9 H          -2.7254    0.7343    1.0031 H.spc      1 <1>        0.000
     10 H          -1.7183    2.3895    3.1908 H.spc      1 <1>        0.000
     11 H          -1.5220    2.4758    1.3145 H.spc      1 <1>        0.000
     12 H          -3.9869   -0.6677    2.4377 H.spc      1 <1>        0.000
     13 H          -3.9428    0.6847    3.6906 H.spc      1 <1>        0.000
     14 H          -3.5032    3.4722    1.1046 H.spc      1 <1>        0.000
     15 H          -2.6369    4.3177    2.5310 H.spc      1 <1>        0.000
     16 H          -4.9584    1.0683    0.9484 H.spc      1 <1>        0.000
     17 H          -5.9955    0.3930    2.3312 H.spc      1 <1>        0.000
     18 H          -4.8366    4.3212    2.9984 H.spc      1 <1>        0.000
     19 H          -4.0848    2.8845    3.9137 H.spc      1 <1>        0.000
     20 H          -6.1821    2.2901    3.2859 H.spc      1 <1>        0.000
     21 H          -5.8558    2.9026    1.5373 H.spc      1 <1>        0.000
@<TRIPOS>BOND
     1    5    7 1  
     2    3    5 1  
     3    2    4 1  
     4    4    6 1  
     5    1    2 1  
     6    1    3 1  
     7    6    7 1  
     8    1    8 1  
     9    1    9 1  
    10    2   10 1  
    11    2   11 1  
    12    3   12 1  
    13    3   13 1  
    14    4   14 1  
    15    4   15 1  
    16    5   16 1  
    17    5   17 1  
    18    6   18 1  
    19    6   19 1  
    20    7   20 1  
    21    7   21 1  
# Name:          frag4-407-184/150395 -- energy: -2.493570
# Creation time: Sat Jun  5 12:53:34 2010


@<TRIPOS>MOLECULE
frag4-407-184/150395 -- energy: -2.493570
   21    21     1     1     1
SMALL
USER_CHARGES


@<TRIPOS>ATOM
      1 C15        -2.6109    0.8783    2.0775 C.3        1 <1>        0.000
      2 C17        -2.1495    2.3204    2.1921 C.3        1 <1>        0.000
      3 C18        -3.9326    0.4024    2.6378 C.3        1 <1>        0.000
      4 C19        -3.1584    3.4448    2.1383 C.3        1 <1>        0.000
      5 C20        -5.1573    1.0158    2.0188 C.3        1 <1>        0.000
      6 C21        -4.4030    3.3216    2.9672 C.3        1 <1>        0.000
      7 C22        -5.5002    2.4147    2.4448 C.3        1 <1>        0.000
      8 H          -1.8750    0.3301    2.6658 H.spc      1 <1>        0.000
      9 H          -2.7254    0.7343    1.0031 H.spc      1 <1>        0.000
     10 H          -1.7183    2.3895    3.1908 H.spc      1 <1>        0.000
     11 H          -1.5220    2.4758    1.3145 H.spc      1 <1>        0.000
     12 H          -3.9869   -0.6677    2.4377 H.spc      1 <1>        0.000
     13 H          -3.9428    0.6847    3.6906 H.spc      1 <1>        0.000
     14 H          -3.5032    3.4722    1.1046 H.spc      1 <1>        0.000
     15 H          -2.6369    4.3177    2.5310 H.spc      1 <1>        0.000
     16 H          -4.9584    1.0683    0.9484 H.spc      1 <1>        0.000
     17 H          -5.9955    0.3930    2.3312 H.spc      1 <1>        0.000
     18 H          -4.8366    4.3212    2.9984 H.spc      1 <1>        0.000
     19 H          -4.0848    2.8845    3.9137 H.spc      1 <1>        0.000
     20 H          -6.1821    2.2901    3.2859 H.spc      1 <1>        0.000
     21 H          -5.8558    2.9026    1.5373 H.spc      1 <1>        0.000
@<TRIPOS>BOND
     1    5    7 1  
     2    3    5 1  
     3    2    4 1  
     4    4    6 1  
     5    1    2 1  
     6    1    3 1  
     7    6    7 1  
     8    1    8 1  
     9    1    9 1  
    10    2   10 1  
    11    2   11 1  
    12    3   12 1  
    13    3   13 1  
    14    4   14 1  
    15    4   15 1  
    16    5   16 1  
    17    5   17 1  
    18    6   18 1  
    19    6   19 1  
    20    7   20 1  
    21    7   21 1  
