#      Rotatable Fragment
#      Build by yxyuan
#
# Name:          frag5-535-238/138278
# Creation time: Sat Jun  5 12:53:41 2010


@<TRIPOS>MOLECULE
frag5-535-238/138278
   17    17     1     1     1
SMALL
USER_CHARGES


@<TRIPOS>ATOM
      1 C1         -2.0189   -0.2209   -0.0830 C.ar       1 <1>        0.000
      2 S1         -0.5612    0.6306   -0.2848 S.o2       1 <1>        0.000
      3 C2         -3.2074    0.4494    0.1065 C.ar       1 <1>        0.000
      4 C3         -2.2794   -1.5829   -0.3029 C.ar       1 <1>        0.000
      5 N1         -0.1730    0.1746   -1.7357 N.am       1 <1>        0.000
      6 O1         -0.8607    2.0368   -0.4152 O.2        1 <1>        0.000
      7 O2          0.4507    0.0476    0.5544 O.2        1 <1>        0.000
      8 C4         -4.4292   -0.1538    0.3840 C.ar       1 <1>        0.000
      9 C5         -3.5147   -2.1944    0.0005 C.ar       1 <1>        0.000
     10 C7         -4.6919   -1.5173    0.3255 C.ar       1 <1>        0.000
     11 Cl1        -6.1850   -2.2169    0.6234 Cl         1 <1>        0.000
     12 H          -3.1886    1.5368    0.0332 H.spc      1 <1>        0.000
     13 H          -1.4878   -2.1990   -0.7294 H.spc      1 <1>        0.000
     14 H          -0.1796    0.8488   -2.5011 H.spc      1 <1>        0.000
     15 H           0.0858   -0.7959   -1.9132 H.spc      1 <1>        0.000
     16 H          -5.2526    0.4996    0.6725 H.spc      1 <1>        0.000
     17 H          -3.5529   -3.2835   -0.0206 H.spc      1 <1>        0.000
@<TRIPOS>BOND
     1    8   10 ar 
     2    9   10 ar 
     3   10   11 1  
     4    1    2 1  
     5    1    3 ar 
     6    1    4 ar 
     7    2    5 1  
     8    2    6 2  
     9    2    7 2  
    10    3    8 ar 
    11    4    9 ar 
    12    3   12 1  
    13    4   13 1  
    14    5   14 1  
    15    5   15 1  
    16    8   16 1  
    17    9   17 1  
# Name:          frag5-535-238/138278
# Creation time: Sat Jun  5 12:53:41 2010


@<TRIPOS>MOLECULE
frag5-535-238/138278
   17    17     1     1     1
SMALL
USER_CHARGES


@<TRIPOS>ATOM
      1 C1         -2.0604   -0.1570   -0.0833 C.ar       1 <1>        0.000
      2 S1         -0.5356    0.5572   -0.2715 S.o2       1 <1>        0.000
      3 C2         -3.2922    0.3673   -0.5095 C.ar       1 <1>        0.000
      4 C3         -2.2110   -1.4674    0.3035 C.ar       1 <1>        0.000
      5 N1         -0.4689    0.7146   -1.8348 N.am       1 <1>        0.000
      6 O1         -0.6386    1.9028    0.2237 O.2        1 <1>        0.000
      7 O2          0.5311   -0.3709    0.0222 O.2        1 <1>        0.000
      8 C4         -4.5272   -0.2479   -0.2370 C.ar       1 <1>        0.000
      9 C5         -3.4343   -2.0529    0.6121 C.ar       1 <1>        0.000
     10 C7         -4.6864   -1.5167    0.3220 C.ar       1 <1>        0.000
     11 Cl1        -6.1472   -2.2765    0.6251 Cl         1 <1>        0.000
     12 H          -3.2906    1.2965   -1.0793 H.spc      1 <1>        0.000
     13 H          -1.3162   -2.0860    0.3727 H.spc      1 <1>        0.000
     14 H          -0.5029    1.6430   -2.2558 H.spc      1 <1>        0.000
     15 H          -0.3916   -0.1117   -2.4277 H.spc      1 <1>        0.000
     16 H          -5.4310    0.3101   -0.4816 H.spc      1 <1>        0.000
     17 H          -3.4110   -3.0143    1.1252 H.spc      1 <1>        0.000
@<TRIPOS>BOND
     1    8   10 ar 
     2    9   10 ar 
     3   10   11 1  
     4    1    2 1  
     5    1    3 ar 
     6    1    4 ar 
     7    2    5 1  
     8    2    6 2  
     9    2    7 2  
    10    3    8 ar 
    11    4    9 ar 
    12    3   12 1  
    13    4   13 1  
    14    5   14 1  
    15    5   15 1  
    16    8   16 1  
    17    9   17 1  
# Name:          frag5-535-238/138278 -- energy: -0.785690
# Creation time: Sat Jun  5 12:53:41 2010


@<TRIPOS>MOLECULE
frag5-535-238/138278 -- energy: -0.785690
   17    17     1     1     1
SMALL
USER_CHARGES


@<TRIPOS>ATOM
      1 C1         -2.0189   -0.2209   -0.0830 C.ar       1 <1>        0.000
      2 S1         -0.5612    0.6306   -0.2848 S.o2       1 <1>        0.000
      3 C2         -3.2074    0.4494    0.1065 C.ar       1 <1>        0.000
      4 C3         -2.2794   -1.5829   -0.3029 C.ar       1 <1>        0.000
      5 N1         -0.1730    0.1746   -1.7357 N.am       1 <1>        0.000
      6 O1         -0.8607    2.0368   -0.4152 O.2        1 <1>        0.000
      7 O2          0.4507    0.0476    0.5544 O.2        1 <1>        0.000
      8 C4         -4.4292   -0.1538    0.3840 C.ar       1 <1>        0.000
      9 C5         -3.5147   -2.1944    0.0005 C.ar       1 <1>        0.000
     10 C7         -4.6919   -1.5173    0.3255 C.ar       1 <1>        0.000
     11 Cl1        -6.1850   -2.2169    0.6234 Cl         1 <1>        0.000
     12 H          -3.1886    1.5368    0.0332 H.spc      1 <1>        0.000
     13 H          -1.4878   -2.1990   -0.7294 H.spc      1 <1>        0.000
     14 H          -0.1796    0.8488   -2.5011 H.spc      1 <1>        0.000
     15 H           0.0858   -0.7959   -1.9132 H.spc      1 <1>        0.000
     16 H          -5.2526    0.4996    0.6725 H.spc      1 <1>        0.000
     17 H          -3.5529   -3.2835   -0.0206 H.spc      1 <1>        0.000
@<TRIPOS>BOND
     1    8   10 ar 
     2    9   10 ar 
     3   10   11 1  
     4    1    2 1  
     5    1    3 ar 
     6    1    4 ar 
     7    2    5 1  
     8    2    6 2  
     9    2    7 2  
    10    3    8 ar 
    11    4    9 ar 
    12    3   12 1  
    13    4   13 1  
    14    5   14 1  
    15    5   15 1  
    16    8   16 1  
    17    9   17 1  
# Name:          frag5-535-238/138278 -- energy: -0.886286
# Creation time: Sat Jun  5 12:53:41 2010


@<TRIPOS>MOLECULE
frag5-535-238/138278 -- energy: -0.886286
   17    17     1     1     1
SMALL
USER_CHARGES


@<TRIPOS>ATOM
      1 C1         -2.0604   -0.1570   -0.0833 C.ar       1 <1>        0.000
      2 S1         -0.5356    0.5572   -0.2715 S.o2       1 <1>        0.000
      3 C2         -3.2922    0.3673   -0.5095 C.ar       1 <1>        0.000
      4 C3         -2.2110   -1.4674    0.3035 C.ar       1 <1>        0.000
      5 N1         -0.4689    0.7146   -1.8348 N.am       1 <1>        0.000
      6 O1         -0.6386    1.9028    0.2237 O.2        1 <1>        0.000
      7 O2          0.5311   -0.3709    0.0222 O.2        1 <1>        0.000
      8 C4         -4.5272   -0.2479   -0.2370 C.ar       1 <1>        0.000
      9 C5         -3.4343   -2.0529    0.6121 C.ar       1 <1>        0.000
     10 C7         -4.6864   -1.5167    0.3220 C.ar       1 <1>        0.000
     11 Cl1        -6.1472   -2.2765    0.6251 Cl         1 <1>        0.000
     12 H          -3.2906    1.2965   -1.0793 H.spc      1 <1>        0.000
     13 H          -1.3162   -2.0860    0.3727 H.spc      1 <1>        0.000
     14 H          -0.5029    1.6430   -2.2558 H.spc      1 <1>        0.000
     15 H          -0.3916   -0.1117   -2.4277 H.spc      1 <1>        0.000
     16 H          -5.4310    0.3101   -0.4816 H.spc      1 <1>        0.000
     17 H          -3.4110   -3.0143    1.1252 H.spc      1 <1>        0.000
@<TRIPOS>BOND
     1    8   10 ar 
     2    9   10 ar 
     3   10   11 1  
     4    1    2 1  
     5    1    3 ar 
     6    1    4 ar 
     7    2    5 1  
     8    2    6 2  
     9    2    7 2  
    10    3    8 ar 
    11    4    9 ar 
    12    3   12 1  
    13    4   13 1  
    14    5   14 1  
    15    5   15 1  
    16    8   16 1  
    17    9   17 1  
