#      Rotatable Fragment
#      Build by yxyuan
#
# Name:          frag4-374-80/48856
# Creation time: Sat Jun  5 12:53:33 2010


@<TRIPOS>MOLECULE
frag4-374-80/48856
   24    25     1     1     1
SMALL
USER_CHARGES


@<TRIPOS>ATOM
      1 O1          1.9467    3.5438   -0.3527 O.3        1 <1>        0.000
      2 C1          1.4408    4.7382    0.2736 C.3        1 <1>        0.000
      3 O2          0.2436    4.4437    1.0063 O.3        1 <1>        0.000
      4 C2         -0.7746    4.1774    0.0482 C.3        1 <1>        0.000
      5 C3         -0.5644    5.2951   -0.9942 C.3        1 <1>        0.000
      6 C4          0.9210    5.6930   -0.8215 C.3        1 <1>        0.000
      7 C25         2.5223    5.3705    1.1801 C.3        1 <1>        0.000
      8 C26         3.0195    4.3389    2.2135 C.3        1 <1>        0.000
      9 C27         3.4937    3.0667    1.4817 C.3        1 <1>        0.000
     10 C28         2.3589    2.5392    0.5763 C.3        1 <1>        0.000
     11 H          -0.7022    3.1781   -0.3810 H.spc      1 <1>        0.000
     12 H          -1.7753    4.1831    0.4801 H.spc      1 <1>        0.000
     13 H          -1.2386    6.1373   -0.8388 H.spc      1 <1>        0.000
     14 H          -0.7880    4.9623   -2.0078 H.spc      1 <1>        0.000
     15 H           1.4835    5.6000   -1.7505 H.spc      1 <1>        0.000
     16 H           1.0377    6.7407   -0.5444 H.spc      1 <1>        0.000
     17 H           3.3619    5.6916    0.5636 H.spc      1 <1>        0.000
     18 H           2.0937    6.2240    1.7053 H.spc      1 <1>        0.000
     19 H           2.2067    4.0853    2.8941 H.spc      1 <1>        0.000
     20 H           3.8485    4.7626    2.7803 H.spc      1 <1>        0.000
     21 H           4.3653    3.3027    0.8711 H.spc      1 <1>        0.000
     22 H           3.7581    2.3039    2.2140 H.spc      1 <1>        0.000
     23 H           1.5082    2.2656    1.2004 H.spc      1 <1>        0.000
     24 H           2.7232    1.6743    0.0219 H.spc      1 <1>        0.000
@<TRIPOS>BOND
     1    2    3 1  
     2    7    8 1  
     3    4    5 1  
     4    2    7 1  
     5    2    6 1  
     6    9   10 1  
     7    3    4 1  
     8    1   10 1  
     9    5    6 1  
    10    8    9 1  
    11    1    2 1  
    12    4   11 1  
    13    4   12 1  
    14    5   13 1  
    15    5   14 1  
    16    6   15 1  
    17    6   16 1  
    18    7   17 1  
    19    7   18 1  
    20    8   19 1  
    21    8   20 1  
    22    9   21 1  
    23    9   22 1  
    24   10   23 1  
    25   10   24 1  
# Name:          frag4-374-80/48856
# Creation time: Sat Jun  5 12:53:33 2010


@<TRIPOS>MOLECULE
frag4-374-80/48856
   24    25     1     1     1
SMALL
USER_CHARGES


@<TRIPOS>ATOM
      1 O1          2.2877    3.4191   -0.4615 O.3        1 <1>        0.000
      2 C1          1.4132    4.4381    0.0198 C.3        1 <1>        0.000
      3 O2          0.2104    3.8727    0.5615 O.3        1 <1>        0.000
      4 C2         -0.8089    4.8539    0.6153 C.3        1 <1>        0.000
      5 C3         -0.3978    5.8408   -0.4961 C.3        1 <1>        0.000
      6 C4          0.8734    5.2683   -1.1549 C.3        1 <1>        0.000
      7 C25         2.1343    5.3070    1.0888 C.3        1 <1>        0.000
      8 C26         2.6392    4.4048    2.2286 C.3        1 <1>        0.000
      9 C27         3.5135    3.2741    1.6590 C.3        1 <1>        0.000
     10 C28         2.7425    2.5279    0.5508 C.3        1 <1>        0.000
     11 H          -1.8049    4.4377    0.4640 H.spc      1 <1>        0.000
     12 H          -0.8882    5.3280    1.5936 H.spc      1 <1>        0.000
     13 H          -0.2069    6.8312   -0.0829 H.spc      1 <1>        0.000
     14 H          -1.1967    5.9526   -1.2292 H.spc      1 <1>        0.000
     15 H           0.6974    4.7027   -2.0699 H.spc      1 <1>        0.000
     16 H           1.5650    6.0182   -1.5390 H.spc      1 <1>        0.000
     17 H           2.9797    5.8197    0.6299 H.spc      1 <1>        0.000
     18 H           1.4368    6.0424    1.4897 H.spc      1 <1>        0.000
     19 H           1.7843    3.9700    2.7465 H.spc      1 <1>        0.000
     20 H           3.2323    5.0015    2.9216 H.spc      1 <1>        0.000
     21 H           4.4259    3.6990    1.2407 H.spc      1 <1>        0.000
     22 H           3.7652    2.5755    2.4569 H.spc      1 <1>        0.000
     23 H           1.8747    2.0451    1.0001 H.spc      1 <1>        0.000
     24 H           3.4138    1.8009    0.0937 H.spc      1 <1>        0.000
@<TRIPOS>BOND
     1    2    3 1  
     2    7    8 1  
     3    4    5 1  
     4    2    7 1  
     5    2    6 1  
     6    9   10 1  
     7    3    4 1  
     8    1   10 1  
     9    5    6 1  
    10    8    9 1  
    11    1    2 1  
    12    4   11 1  
    13    4   12 1  
    14    5   13 1  
    15    5   14 1  
    16    6   15 1  
    17    6   16 1  
    18    7   17 1  
    19    7   18 1  
    20    8   19 1  
    21    8   20 1  
    22    9   21 1  
    23    9   22 1  
    24   10   23 1  
    25   10   24 1  
# Name:          frag4-374-80/48856
# Creation time: Sat Jun  5 12:53:33 2010


@<TRIPOS>MOLECULE
frag4-374-80/48856
   24    25     1     1     1
SMALL
USER_CHARGES


@<TRIPOS>ATOM
      1 O1          1.6667    2.8385    0.3353 O.3        1 <1>        0.000
      2 C1          1.0801    4.1339    0.4873 C.3        1 <1>        0.000
      3 O2         -0.3377    4.0666    0.6227 O.3        1 <1>        0.000
      4 C2         -1.0260    5.1421    0.0032 C.3        1 <1>        0.000
      5 C3          0.1118    5.9477   -0.6533 C.3        1 <1>        0.000
      6 C4          1.2379    4.9135   -0.8409 C.3        1 <1>        0.000
      7 C25         1.7360    4.8854    1.6788 C.3        1 <1>        0.000
      8 C26         3.2641    4.9351    1.5157 C.3        1 <1>        0.000
      9 C27         3.7981    3.5035    1.3268 C.3        1 <1>        0.000
     10 C28         3.0766    2.8404    0.1355 C.3        1 <1>        0.000
     11 H          -1.7755    4.8074   -0.7139 H.spc      1 <1>        0.000
     12 H          -1.6099    5.7330    0.7089 H.spc      1 <1>        0.000
     13 H           0.4251    6.7945   -0.0426 H.spc      1 <1>        0.000
     14 H          -0.1935    6.4026   -1.5956 H.spc      1 <1>        0.000
     15 H           1.1562    4.3053   -1.7418 H.spc      1 <1>        0.000
     16 H           2.2275    5.3387   -1.0079 H.spc      1 <1>        0.000
     17 H           1.3515    5.9049    1.7068 H.spc      1 <1>        0.000
     18 H           1.4974    4.3578    2.6023 H.spc      1 <1>        0.000
     19 H           3.7132    5.3795    2.4040 H.spc      1 <1>        0.000
     20 H           3.5203    5.5395    0.6456 H.spc      1 <1>        0.000
     21 H           4.8696    3.5378    1.1300 H.spc      1 <1>        0.000
     22 H           3.6145    2.9242    2.2317 H.spc      1 <1>        0.000
     23 H           3.4202    1.8098    0.0461 H.spc      1 <1>        0.000
     24 H           3.3024    3.4039   -0.7698 H.spc      1 <1>        0.000
@<TRIPOS>BOND
     1    2    3 1  
     2    7    8 1  
     3    4    5 1  
     4    2    7 1  
     5    2    6 1  
     6    9   10 1  
     7    3    4 1  
     8    1   10 1  
     9    5    6 1  
    10    8    9 1  
    11    1    2 1  
    12    4   11 1  
    13    4   12 1  
    14    5   13 1  
    15    5   14 1  
    16    6   15 1  
    17    6   16 1  
    18    7   17 1  
    19    7   18 1  
    20    8   19 1  
    21    8   20 1  
    22    9   21 1  
    23    9   22 1  
    24   10   23 1  
    25   10   24 1  
# Name:          frag4-374-80/48856 -- energy: -3.030725
# Creation time: Sat Jun  5 12:53:33 2010


@<TRIPOS>MOLECULE
frag4-374-80/48856 -- energy: -3.030725
   24    25     1     1     1
SMALL
USER_CHARGES


@<TRIPOS>ATOM
      1 O1          1.9467    3.5438   -0.3527 O.3        1 <1>        0.000
      2 C1          1.4408    4.7382    0.2736 C.3        1 <1>        0.000
      3 O2          0.2436    4.4437    1.0063 O.3        1 <1>        0.000
      4 C2         -0.7746    4.1774    0.0482 C.3        1 <1>        0.000
      5 C3         -0.5644    5.2951   -0.9942 C.3        1 <1>        0.000
      6 C4          0.9210    5.6930   -0.8215 C.3        1 <1>        0.000
      7 C25         2.5223    5.3705    1.1801 C.3        1 <1>        0.000
      8 C26         3.0195    4.3389    2.2135 C.3        1 <1>        0.000
      9 C27         3.4937    3.0667    1.4817 C.3        1 <1>        0.000
     10 C28         2.3589    2.5392    0.5763 C.3        1 <1>        0.000
     11 H          -0.7022    3.1781   -0.3810 H.spc      1 <1>        0.000
     12 H          -1.7753    4.1831    0.4801 H.spc      1 <1>        0.000
     13 H          -1.2386    6.1373   -0.8388 H.spc      1 <1>        0.000
     14 H          -0.7880    4.9623   -2.0078 H.spc      1 <1>        0.000
     15 H           1.4835    5.6000   -1.7505 H.spc      1 <1>        0.000
     16 H           1.0377    6.7407   -0.5444 H.spc      1 <1>        0.000
     17 H           3.3619    5.6916    0.5636 H.spc      1 <1>        0.000
     18 H           2.0937    6.2240    1.7053 H.spc      1 <1>        0.000
     19 H           2.2067    4.0853    2.8941 H.spc      1 <1>        0.000
     20 H           3.8485    4.7626    2.7803 H.spc      1 <1>        0.000
     21 H           4.3653    3.3027    0.8711 H.spc      1 <1>        0.000
     22 H           3.7581    2.3039    2.2140 H.spc      1 <1>        0.000
     23 H           1.5082    2.2656    1.2004 H.spc      1 <1>        0.000
     24 H           2.7232    1.6743    0.0219 H.spc      1 <1>        0.000
@<TRIPOS>BOND
     1    2    3 1  
     2    7    8 1  
     3    4    5 1  
     4    2    7 1  
     5    2    6 1  
     6    9   10 1  
     7    3    4 1  
     8    1   10 1  
     9    5    6 1  
    10    8    9 1  
    11    1    2 1  
    12    4   11 1  
    13    4   12 1  
    14    5   13 1  
    15    5   14 1  
    16    6   15 1  
    17    6   16 1  
    18    7   17 1  
    19    7   18 1  
    20    8   19 1  
    21    8   20 1  
    22    9   21 1  
    23    9   22 1  
    24   10   23 1  
    25   10   24 1  
# Name:          frag4-374-80/48856 -- energy: -3.122491
# Creation time: Sat Jun  5 12:53:33 2010


@<TRIPOS>MOLECULE
frag4-374-80/48856 -- energy: -3.122491
   24    25     1     1     1
SMALL
USER_CHARGES


@<TRIPOS>ATOM
      1 O1          2.2877    3.4191   -0.4615 O.3        1 <1>        0.000
      2 C1          1.4132    4.4381    0.0198 C.3        1 <1>        0.000
      3 O2          0.2104    3.8727    0.5615 O.3        1 <1>        0.000
      4 C2         -0.8089    4.8539    0.6153 C.3        1 <1>        0.000
      5 C3         -0.3978    5.8408   -0.4961 C.3        1 <1>        0.000
      6 C4          0.8734    5.2683   -1.1549 C.3        1 <1>        0.000
      7 C25         2.1343    5.3070    1.0888 C.3        1 <1>        0.000
      8 C26         2.6392    4.4048    2.2286 C.3        1 <1>        0.000
      9 C27         3.5135    3.2741    1.6590 C.3        1 <1>        0.000
     10 C28         2.7425    2.5279    0.5508 C.3        1 <1>        0.000
     11 H          -1.8049    4.4377    0.4640 H.spc      1 <1>        0.000
     12 H          -0.8882    5.3280    1.5936 H.spc      1 <1>        0.000
     13 H          -0.2069    6.8312   -0.0829 H.spc      1 <1>        0.000
     14 H          -1.1967    5.9526   -1.2292 H.spc      1 <1>        0.000
     15 H           0.6974    4.7027   -2.0699 H.spc      1 <1>        0.000
     16 H           1.5650    6.0182   -1.5390 H.spc      1 <1>        0.000
     17 H           2.9797    5.8197    0.6299 H.spc      1 <1>        0.000
     18 H           1.4368    6.0424    1.4897 H.spc      1 <1>        0.000
     19 H           1.7843    3.9700    2.7465 H.spc      1 <1>        0.000
     20 H           3.2323    5.0015    2.9216 H.spc      1 <1>        0.000
     21 H           4.4259    3.6990    1.2407 H.spc      1 <1>        0.000
     22 H           3.7652    2.5755    2.4569 H.spc      1 <1>        0.000
     23 H           1.8747    2.0451    1.0001 H.spc      1 <1>        0.000
     24 H           3.4138    1.8009    0.0937 H.spc      1 <1>        0.000
@<TRIPOS>BOND
     1    2    3 1  
     2    7    8 1  
     3    4    5 1  
     4    2    7 1  
     5    2    6 1  
     6    9   10 1  
     7    3    4 1  
     8    1   10 1  
     9    5    6 1  
    10    8    9 1  
    11    1    2 1  
    12    4   11 1  
    13    4   12 1  
    14    5   13 1  
    15    5   14 1  
    16    6   15 1  
    17    6   16 1  
    18    7   17 1  
    19    7   18 1  
    20    8   19 1  
    21    8   20 1  
    22    9   21 1  
    23    9   22 1  
    24   10   23 1  
    25   10   24 1  
# Name:          frag4-374-80/48856 -- energy: -3.138471
# Creation time: Sat Jun  5 12:53:33 2010


@<TRIPOS>MOLECULE
frag4-374-80/48856 -- energy: -3.138471
   24    25     1     1     1
SMALL
USER_CHARGES


@<TRIPOS>ATOM
      1 O1          1.6667    2.8385    0.3353 O.3        1 <1>        0.000
      2 C1          1.0801    4.1339    0.4873 C.3        1 <1>        0.000
      3 O2         -0.3377    4.0666    0.6227 O.3        1 <1>        0.000
      4 C2         -1.0260    5.1421    0.0032 C.3        1 <1>        0.000
      5 C3          0.1118    5.9477   -0.6533 C.3        1 <1>        0.000
      6 C4          1.2379    4.9135   -0.8409 C.3        1 <1>        0.000
      7 C25         1.7360    4.8854    1.6788 C.3        1 <1>        0.000
      8 C26         3.2641    4.9351    1.5157 C.3        1 <1>        0.000
      9 C27         3.7981    3.5035    1.3268 C.3        1 <1>        0.000
     10 C28         3.0766    2.8404    0.1355 C.3        1 <1>        0.000
     11 H          -1.7755    4.8074   -0.7139 H.spc      1 <1>        0.000
     12 H          -1.6099    5.7330    0.7089 H.spc      1 <1>        0.000
     13 H           0.4251    6.7945   -0.0426 H.spc      1 <1>        0.000
     14 H          -0.1935    6.4026   -1.5956 H.spc      1 <1>        0.000
     15 H           1.1562    4.3053   -1.7418 H.spc      1 <1>        0.000
     16 H           2.2275    5.3387   -1.0079 H.spc      1 <1>        0.000
     17 H           1.3515    5.9049    1.7068 H.spc      1 <1>        0.000
     18 H           1.4974    4.3578    2.6023 H.spc      1 <1>        0.000
     19 H           3.7132    5.3795    2.4040 H.spc      1 <1>        0.000
     20 H           3.5203    5.5395    0.6456 H.spc      1 <1>        0.000
     21 H           4.8696    3.5378    1.1300 H.spc      1 <1>        0.000
     22 H           3.6145    2.9242    2.2317 H.spc      1 <1>        0.000
     23 H           3.4202    1.8098    0.0461 H.spc      1 <1>        0.000
     24 H           3.3024    3.4039   -0.7698 H.spc      1 <1>        0.000
@<TRIPOS>BOND
     1    2    3 1  
     2    7    8 1  
     3    4    5 1  
     4    2    7 1  
     5    2    6 1  
     6    9   10 1  
     7    3    4 1  
     8    1   10 1  
     9    5    6 1  
    10    8    9 1  
    11    1    2 1  
    12    4   11 1  
    13    4   12 1  
    14    5   13 1  
    15    5   14 1  
    16    6   15 1  
    17    6   16 1  
    18    7   17 1  
    19    7   18 1  
    20    8   19 1  
    21    8   20 1  
    22    9   21 1  
    23    9   22 1  
    24   10   23 1  
    25   10   24 1  
