#      Rotatable Fragment
#      Build by yxyuan
#
# Name:          frag2-071-2/92655
# Creation time: Sat Jun  5 12:51:58 2010


@<TRIPOS>MOLECULE
frag2-071-2/92655
   15    16     1     1     1
SMALL
USER_CHARGES


@<TRIPOS>ATOM
      1 C7          1.3858   -1.2857    0.1336 C.ar       1 <1>        0.000
      2 N2          2.4971   -0.5411    0.0138 N.ar       1 <1>        0.000
      3 C8          2.4059    0.7930   -0.1549 C.ar       1 <1>        0.000
      4 N3          1.2098    1.4020   -0.2086 N.ar       1 <1>        0.000
      5 C9          0.0582    0.7014   -0.0923 C.ar       1 <1>        0.000
      6 C10         0.1256   -0.6972    0.0863 C.ar       1 <1>        0.000
      7 C11        -1.0719   -1.4089    0.2052 C.ar       1 <1>        0.000
      8 N4         -2.2649   -0.7807    0.1515 N.ar       1 <1>        0.000
      9 C12        -2.3394    0.5593   -0.0194 C.ar       1 <1>        0.000
     10 C13        -1.1905    1.3090   -0.1421 C.ar       1 <1>        0.000
     11 H           1.4720   -2.3638    0.2695 H.spc      1 <1>        0.000
     12 H           3.3155    1.3861   -0.2491 H.spc      1 <1>        0.000
     13 H          -1.0413   -2.4896    0.3436 H.spc      1 <1>        0.000
     14 H          -3.3130    1.0478   -0.0602 H.spc      1 <1>        0.000
     15 H          -1.2614    2.3880   -0.2794 H.spc      1 <1>        0.000
@<TRIPOS>BOND
     1    9   10 ar 
     2    1    2 ar 
     3    1    6 ar 
     4    2    3 ar 
     5    3    4 ar 
     6    4    5 ar 
     7    5    6 ar 
     8    5   10 ar 
     9    6    7 ar 
    10    7    8 ar 
    11    8    9 ar 
    12    1   11 1  
    13    3   12 1  
    14    7   13 1  
    15    9   14 1  
    16   10   15 1  
# Name:          frag2-071-2/92655 -- energy: 0.163563
# Creation time: Sat Jun  5 12:51:58 2010


@<TRIPOS>MOLECULE
frag2-071-2/92655 -- energy: 0.163563
   15    16     1     1     1
SMALL
USER_CHARGES


@<TRIPOS>ATOM
      1 C7          1.3858   -1.2857    0.1336 C.ar       1 <1>        0.000
      2 N2          2.4971   -0.5411    0.0138 N.ar       1 <1>        0.000
      3 C8          2.4059    0.7930   -0.1549 C.ar       1 <1>        0.000
      4 N3          1.2098    1.4020   -0.2086 N.ar       1 <1>        0.000
      5 C9          0.0582    0.7014   -0.0923 C.ar       1 <1>        0.000
      6 C10         0.1256   -0.6972    0.0863 C.ar       1 <1>        0.000
      7 C11        -1.0719   -1.4089    0.2052 C.ar       1 <1>        0.000
      8 N4         -2.2649   -0.7807    0.1515 N.ar       1 <1>        0.000
      9 C12        -2.3394    0.5593   -0.0194 C.ar       1 <1>        0.000
     10 C13        -1.1905    1.3090   -0.1421 C.ar       1 <1>        0.000
     11 H           1.4720   -2.3638    0.2695 H.spc      1 <1>        0.000
     12 H           3.3155    1.3861   -0.2491 H.spc      1 <1>        0.000
     13 H          -1.0413   -2.4896    0.3436 H.spc      1 <1>        0.000
     14 H          -3.3130    1.0478   -0.0602 H.spc      1 <1>        0.000
     15 H          -1.2614    2.3880   -0.2794 H.spc      1 <1>        0.000
@<TRIPOS>BOND
     1    9   10 ar 
     2    1    2 ar 
     3    1    6 ar 
     4    2    3 ar 
     5    3    4 ar 
     6    4    5 ar 
     7    5    6 ar 
     8    5   10 ar 
     9    6    7 ar 
    10    7    8 ar 
    11    8    9 ar 
    12    1   11 1  
    13    3   12 1  
    14    7   13 1  
    15    9   14 1  
    16   10   15 1  
