#      Rotatable Fragment
#      Build by yxyuan
#
# Name:          frag5-597-111/138278
# Creation time: Sat Jun  5 12:53:46 2010


@<TRIPOS>MOLECULE
frag5-597-111/138278
   40    43     1     1     1
SMALL
USER_CHARGES


@<TRIPOS>ATOM
      1 C1          0.4707   -0.4406    0.2587 C.3        1 <1>        0.000
      2 C2          1.5251    0.2932   -0.6197 C.3        1 <1>        0.000
      3 C3         -0.8884    0.3300    0.4532 C.3        1 <1>        0.000
      4 C4          0.2533   -1.8659   -0.2999 C.3        1 <1>        0.000
      5 C5          1.7342    1.7806   -0.2220 C.3        1 <1>        0.000
      6 C6          2.9412   -0.3480   -0.5101 C.3        1 <1>        0.000
      7 C7         -2.1635   -0.4899    0.1585 C.ar       1 <1>        0.000
      8 C8         -0.7903    1.7651   -0.1393 C.3        1 <1>        0.000
      9 C9         -0.7986   -2.5922    0.5479 C.3        1 <1>        0.000
     10 C10         3.0039    1.7594    0.6548 C.3        1 <1>        0.000
     11 C11         0.4862    2.4427    0.4016 C.3        1 <1>        0.000
     12 C13         3.9062    0.7933   -0.1304 C.3        1 <1>        0.000
     13 C14        -2.1216   -1.8975    0.2718 C.ar       1 <1>        0.000
     14 C15        -3.3896    0.0916   -0.1930 C.ar       1 <1>        0.000
     15 C17        -3.2824   -2.6557    0.1167 C.ar       1 <1>        0.000
     16 C18        -4.5359   -0.6717   -0.3718 C.ar       1 <1>        0.000
     17 C20        -4.5071   -2.0661   -0.2109 C.ar       1 <1>        0.000
     18 O3         -5.6349   -2.8498   -0.3688 O.3        1 <1>        0.000
     19 H           0.8810   -0.4899    1.2673 H.spc      1 <1>        0.000
     20 H           1.1123    0.2094   -1.6250 H.spc      1 <1>        0.000
     21 H          -1.0431    0.4804    1.5216 H.spc      1 <1>        0.000
     22 H          -0.0919   -1.8030   -1.3319 H.spc      1 <1>        0.000
     23 H           1.1928   -2.4174   -0.2642 H.spc      1 <1>        0.000
     24 H           1.8785    2.4329   -1.0833 H.spc      1 <1>        0.000
     25 H           3.2348   -0.8122   -1.4516 H.spc      1 <1>        0.000
     26 H           2.9559   -1.1390    0.2397 H.spc      1 <1>        0.000
     27 H          -1.6666    2.3445    0.1514 H.spc      1 <1>        0.000
     28 H          -0.7470    1.7125   -1.2272 H.spc      1 <1>        0.000
     29 H          -0.5465   -2.5491    1.6075 H.spc      1 <1>        0.000
     30 H          -0.8492   -3.6498    0.2888 H.spc      1 <1>        0.000
     31 H           2.8185    1.4444    1.6817 H.spc      1 <1>        0.000
     32 H           3.4464    2.7443    0.8039 H.spc      1 <1>        0.000
     33 H           0.4710    3.5008    0.1402 H.spc      1 <1>        0.000
     34 H           0.5222    2.3306    1.4852 H.spc      1 <1>        0.000
     35 H           4.3718    1.2601   -0.9984 H.spc      1 <1>        0.000
     36 H           4.7624    0.4483    0.4493 H.spc      1 <1>        0.000
     37 H          -3.4447    1.1716   -0.3296 H.spc      1 <1>        0.000
     38 H          -3.2333   -3.7358    0.2545 H.spc      1 <1>        0.000
     39 H          -5.4714   -0.1812   -0.6409 H.spc      1 <1>        0.000
     40 H          -5.4075   -3.7701   -0.2174 H.spc      1 <1>        0.000
@<TRIPOS>BOND
     1    1    2 1  
     2    5   10 1  
     3    4    9 1  
     4    3    8 1  
     5    3    7 1  
     6    1    3 1  
     7    1    4 1  
     8    2    6 1  
     9    2    5 1  
    10    5   11 1  
    11    6   12 1  
    12   17   18 1  
    13   16   17 ar 
    14   15   17 ar 
    15   14   16 ar 
    16   13   15 ar 
    17   10   12 1  
    18    9   13 1  
    19    8   11 1  
    20    7   14 ar 
    21    7   13 ar 
    22    1   19 1  
    23    2   20 1  
    24    3   21 1  
    25    4   22 1  
    26    4   23 1  
    27    5   24 1  
    28    6   25 1  
    29    6   26 1  
    30    8   27 1  
    31    8   28 1  
    32    9   29 1  
    33    9   30 1  
    34   10   31 1  
    35   10   32 1  
    36   11   33 1  
    37   11   34 1  
    38   12   35 1  
    39   12   36 1  
    40   14   37 1  
    41   15   38 1  
    42   16   39 1  
    43   18   40 1  
# Name:          frag5-597-111/138278 -- energy: -6.079500
# Creation time: Sat Jun  5 12:53:46 2010


@<TRIPOS>MOLECULE
frag5-597-111/138278 -- energy: -6.079500
   40    43     1     1     1
SMALL
USER_CHARGES


@<TRIPOS>ATOM
      1 C1          0.4707   -0.4406    0.2587 C.3        1 <1>        0.000
      2 C2          1.5251    0.2932   -0.6197 C.3        1 <1>        0.000
      3 C3         -0.8884    0.3300    0.4532 C.3        1 <1>        0.000
      4 C4          0.2533   -1.8659   -0.2999 C.3        1 <1>        0.000
      5 C5          1.7342    1.7806   -0.2220 C.3        1 <1>        0.000
      6 C6          2.9412   -0.3480   -0.5101 C.3        1 <1>        0.000
      7 C7         -2.1635   -0.4899    0.1585 C.ar       1 <1>        0.000
      8 C8         -0.7903    1.7651   -0.1393 C.3        1 <1>        0.000
      9 C9         -0.7986   -2.5922    0.5479 C.3        1 <1>        0.000
     10 C10         3.0039    1.7594    0.6548 C.3        1 <1>        0.000
     11 C11         0.4862    2.4427    0.4016 C.3        1 <1>        0.000
     12 C13         3.9062    0.7933   -0.1304 C.3        1 <1>        0.000
     13 C14        -2.1216   -1.8975    0.2718 C.ar       1 <1>        0.000
     14 C15        -3.3896    0.0916   -0.1930 C.ar       1 <1>        0.000
     15 C17        -3.2824   -2.6557    0.1167 C.ar       1 <1>        0.000
     16 C18        -4.5359   -0.6717   -0.3718 C.ar       1 <1>        0.000
     17 C20        -4.5071   -2.0661   -0.2109 C.ar       1 <1>        0.000
     18 O3         -5.6349   -2.8498   -0.3688 O.3        1 <1>        0.000
     19 H           0.8810   -0.4899    1.2673 H.spc      1 <1>        0.000
     20 H           1.1123    0.2094   -1.6250 H.spc      1 <1>        0.000
     21 H          -1.0431    0.4804    1.5216 H.spc      1 <1>        0.000
     22 H          -0.0919   -1.8030   -1.3319 H.spc      1 <1>        0.000
     23 H           1.1928   -2.4174   -0.2642 H.spc      1 <1>        0.000
     24 H           1.8785    2.4329   -1.0833 H.spc      1 <1>        0.000
     25 H           3.2348   -0.8122   -1.4516 H.spc      1 <1>        0.000
     26 H           2.9559   -1.1390    0.2397 H.spc      1 <1>        0.000
     27 H          -1.6666    2.3445    0.1514 H.spc      1 <1>        0.000
     28 H          -0.7470    1.7125   -1.2272 H.spc      1 <1>        0.000
     29 H          -0.5465   -2.5491    1.6075 H.spc      1 <1>        0.000
     30 H          -0.8492   -3.6498    0.2888 H.spc      1 <1>        0.000
     31 H           2.8185    1.4444    1.6817 H.spc      1 <1>        0.000
     32 H           3.4464    2.7443    0.8039 H.spc      1 <1>        0.000
     33 H           0.4710    3.5008    0.1402 H.spc      1 <1>        0.000
     34 H           0.5222    2.3306    1.4852 H.spc      1 <1>        0.000
     35 H           4.3718    1.2601   -0.9984 H.spc      1 <1>        0.000
     36 H           4.7624    0.4483    0.4493 H.spc      1 <1>        0.000
     37 H          -3.4447    1.1716   -0.3296 H.spc      1 <1>        0.000
     38 H          -3.2333   -3.7358    0.2545 H.spc      1 <1>        0.000
     39 H          -5.4714   -0.1812   -0.6409 H.spc      1 <1>        0.000
     40 H          -5.4075   -3.7701   -0.2174 H.spc      1 <1>        0.000
@<TRIPOS>BOND
     1    1    2 1  
     2    5   10 1  
     3    4    9 1  
     4    3    8 1  
     5    3    7 1  
     6    1    3 1  
     7    1    4 1  
     8    2    6 1  
     9    2    5 1  
    10    5   11 1  
    11    6   12 1  
    12   17   18 1  
    13   16   17 ar 
    14   15   17 ar 
    15   14   16 ar 
    16   13   15 ar 
    17   10   12 1  
    18    9   13 1  
    19    8   11 1  
    20    7   14 ar 
    21    7   13 ar 
    22    1   19 1  
    23    2   20 1  
    24    3   21 1  
    25    4   22 1  
    26    4   23 1  
    27    5   24 1  
    28    6   25 1  
    29    6   26 1  
    30    8   27 1  
    31    8   28 1  
    32    9   29 1  
    33    9   30 1  
    34   10   31 1  
    35   10   32 1  
    36   11   33 1  
    37   11   34 1  
    38   12   35 1  
    39   12   36 1  
    40   14   37 1  
    41   15   38 1  
    42   16   39 1  
    43   18   40 1  
