#      Rotatable Fragment
#      Build by yxyuan
#
# Name:          frag5-670-64/138278
# Creation time: Sat Jun  5 12:51:51 2010


@<TRIPOS>MOLECULE
frag5-670-64/138278
   10    10     1     1     1
SMALL
USER_CHARGES


@<TRIPOS>ATOM
      1 N1          1.1830    0.5655   -0.1446 N.ar       1 <1>        0.000
      2 C3          1.1821   -0.6893   -0.0464 C.ar       1 <1>        0.000
      3 C4          0.0040    1.2400    0.0948 C.ar       1 <1>        0.000
      4 N2         -0.0244   -1.2075    0.3254 N.ar       1 <1>        0.000
      5 O3          2.1043   -1.3847   -0.2323 O.2        1 <1>        0.000
      6 C7         -1.1700    0.5601    0.1078 C.ar       1 <1>        0.000
      7 C9         -1.0718   -0.9015   -0.3030 C.ar       1 <1>        0.000
      8 F1         -2.2503    1.3676    0.3637 F          1 <1>        0.000
      9 O6         -2.0362   -0.6198   -0.8816 O.2        1 <1>        0.000
     10 H           0.0154    2.3153    0.2729 H.spc      1 <1>        0.000
@<TRIPOS>BOND
     1    1    2 ar 
     2    1    3 ar 
     3    2    4 ar 
     4    2    5 2  
     5    3    6 ar 
     6    4    7 ar 
     7    6    8 1  
     8    6    7 ar 
     9    7    9 2  
    10    3   10 1  
# Name:          frag5-670-64/138278 -- energy: 1.512443
# Creation time: Sat Jun  5 12:51:51 2010


@<TRIPOS>MOLECULE
frag5-670-64/138278 -- energy: 1.512443
   10    10     1     1     1
SMALL
USER_CHARGES


@<TRIPOS>ATOM
      1 N1          1.1830    0.5655   -0.1446 N.ar       1 <1>        0.000
      2 C3          1.1821   -0.6893   -0.0464 C.ar       1 <1>        0.000
      3 C4          0.0040    1.2400    0.0948 C.ar       1 <1>        0.000
      4 N2         -0.0244   -1.2075    0.3254 N.ar       1 <1>        0.000
      5 O3          2.1043   -1.3847   -0.2323 O.2        1 <1>        0.000
      6 C7         -1.1700    0.5601    0.1078 C.ar       1 <1>        0.000
      7 C9         -1.0718   -0.9015   -0.3030 C.ar       1 <1>        0.000
      8 F1         -2.2503    1.3676    0.3637 F          1 <1>        0.000
      9 O6         -2.0362   -0.6198   -0.8816 O.2        1 <1>        0.000
     10 H           0.0154    2.3153    0.2729 H.spc      1 <1>        0.000
@<TRIPOS>BOND
     1    1    2 ar 
     2    1    3 ar 
     3    2    4 ar 
     4    2    5 2  
     5    3    6 ar 
     6    4    7 ar 
     7    6    8 1  
     8    6    7 ar 
     9    7    9 2  
    10    3   10 1  
