#      Rotatable Fragment
#      Build by yxyuan
#
# Name:          frag4-312-1026/150395
# Creation time: Sat Jun  5 12:53:30 2010


@<TRIPOS>MOLECULE
frag4-312-1026/150395
   10    10     1     1     1
SMALL
USER_CHARGES


@<TRIPOS>ATOM
      1 C2          0.9251   -0.5466    0.4351 C.2        1 <1>        0.000
      2 N1         -0.2846   -1.1261    0.0540 N.2        1 <1>        0.000
      3 C5          0.9062    0.7778    0.2294 C.2        1 <1>        0.000
      4 C8         -1.0982   -0.2098   -0.3839 C.2        1 <1>        0.000
      5 C9         -0.4171    1.1213   -0.3250 C.3        1 <1>        0.000
      6 H           1.7721   -1.0966    0.8451 H.spc      1 <1>        0.000
      7 H           1.7197    1.4737    0.4343 H.spc      1 <1>        0.000
      8 H          -2.1144   -0.3842   -0.7375 H.spc      1 <1>        0.000
      9 H          -0.3589    1.6148   -1.2951 H.spc      1 <1>        0.000
     10 H          -0.9568    1.8511    0.2784 H.spc      1 <1>        0.000
@<TRIPOS>BOND
     1    1    2 1  
     2    1    3 2  
     3    2    4 2  
     4    3    5 1  
     5    4    5 1  
     6    1    6 1  
     7    3    7 1  
     8    4    8 1  
     9    5    9 1  
    10    5   10 1  
# Name:          frag4-312-1026/150395 -- energy: -0.336066
# Creation time: Sat Jun  5 12:53:30 2010


@<TRIPOS>MOLECULE
frag4-312-1026/150395 -- energy: -0.336066
   10    10     1     1     1
SMALL
USER_CHARGES


@<TRIPOS>ATOM
      1 C2          0.9251   -0.5466    0.4351 C.2        1 <1>        0.000
      2 N1         -0.2846   -1.1261    0.0540 N.2        1 <1>        0.000
      3 C5          0.9062    0.7778    0.2294 C.2        1 <1>        0.000
      4 C8         -1.0982   -0.2098   -0.3839 C.2        1 <1>        0.000
      5 C9         -0.4171    1.1213   -0.3250 C.3        1 <1>        0.000
      6 H           1.7721   -1.0966    0.8451 H.spc      1 <1>        0.000
      7 H           1.7197    1.4737    0.4343 H.spc      1 <1>        0.000
      8 H          -2.1144   -0.3842   -0.7375 H.spc      1 <1>        0.000
      9 H          -0.3589    1.6148   -1.2951 H.spc      1 <1>        0.000
     10 H          -0.9568    1.8511    0.2784 H.spc      1 <1>        0.000
@<TRIPOS>BOND
     1    1    2 1  
     2    1    3 2  
     3    2    4 2  
     4    3    5 1  
     5    4    5 1  
     6    1    6 1  
     7    3    7 1  
     8    4    8 1  
     9    5    9 1  
    10    5   10 1  
