#      Rotatable Fragment
#      Build by yxyuan
#
# Name:          frag3-219-6/96164
# Creation time: Sat Jun  5 12:53:13 2010


@<TRIPOS>MOLECULE
frag3-219-6/96164
   13    12     1     1     1
SMALL
USER_CHARGES


@<TRIPOS>ATOM
      1 N2         -0.0291   -0.9110    0.0328 N.am       1 <1>        0.000
      2 C18         1.2814   -0.6459   -0.1316 C.2        1 <1>        0.000
      3 C19         2.1839   -1.1680    0.9005 C.2        1 <1>        0.000
      4 O4          1.7167   -0.0396   -1.1021 O.2        1 <1>        0.000
      5 C20         3.3033   -1.8169    0.5328 C.2        1 <1>        0.000
      6 C21         4.2161   -2.2890    1.5669 C.2        1 <1>        0.000
      7 O5          3.9143   -2.3790    2.7444 O.2        1 <1>        0.000
      8 O6          5.4185   -2.6481    1.1053 O.3        1 <1>        0.000
      9 H          -0.7035   -0.6031   -0.6678 H.spc      1 <1>        0.000
     10 H          -0.3470   -1.4196    0.8578 H.spc      1 <1>        0.000
     11 H           1.9494   -1.0313    1.9561 H.spc      1 <1>        0.000
     12 H           3.5243   -1.9870   -0.5209 H.spc      1 <1>        0.000
     13 H           5.4534   -2.5000    0.1574 H.spc      1 <1>        0.000
@<TRIPOS>BOND
     1    1    2 am 
     2    2    4 2  
     3    2    3 1  
     4    3    5 2  
     5    5    6 1  
     6    6    7 2  
     7    6    8 1  
     8    1    9 1  
     9    1   10 1  
    10    3   11 1  
    11    5   12 1  
    12    8   13 1  
# Name:          frag3-219-6/96164
# Creation time: Sat Jun  5 12:53:13 2010


@<TRIPOS>MOLECULE
frag3-219-6/96164
   13    12     1     1     1
SMALL
USER_CHARGES


@<TRIPOS>ATOM
      1 N2          0.1509   -1.2779   -0.7809 N.am       1 <1>        0.000
      2 C18         1.2466   -0.7405   -0.1911 C.2        1 <1>        0.000
      3 C19         2.1607   -1.7004    0.4676 C.2        1 <1>        0.000
      4 O4          1.4703    0.4581   -0.2235 O.2        1 <1>        0.000
      5 C20         3.3251   -1.2796    0.9907 C.2        1 <1>        0.000
      6 C21         4.2963   -2.1642    1.6242 C.2        1 <1>        0.000
      7 O5          5.3088   -1.7175    2.1330 O.2        1 <1>        0.000
      8 O6          4.0465   -3.4755    1.6291 O.3        1 <1>        0.000
      9 H          -0.5128   -0.6760   -1.2683 H.spc      1 <1>        0.000
     10 H          -0.0099   -2.2842   -0.7373 H.spc      1 <1>        0.000
     11 H           1.8881   -2.7540    0.5288 H.spc      1 <1>        0.000
     12 H           3.5569   -0.2158    0.9384 H.spc      1 <1>        0.000
     13 H           3.2108   -3.6426    1.1872 H.spc      1 <1>        0.000
@<TRIPOS>BOND
     1    1    2 am 
     2    2    4 2  
     3    2    3 1  
     4    3    5 2  
     5    5    6 1  
     6    6    7 2  
     7    6    8 1  
     8    1    9 1  
     9    1   10 1  
    10    3   11 1  
    11    5   12 1  
    12    8   13 1  
# Name:          frag3-219-6/96164
# Creation time: Sat Jun  5 12:53:13 2010


@<TRIPOS>MOLECULE
frag3-219-6/96164
   13    12     1     1     1
SMALL
USER_CHARGES


@<TRIPOS>ATOM
      1 N2          0.5192   -1.5829   -0.5911 N.am       1 <1>        0.000
      2 C18         1.3161   -0.5751   -0.1757 C.2        1 <1>        0.000
      3 C19         2.4704   -0.8862    0.6992 C.2        1 <1>        0.000
      4 O4          1.0657    0.5978   -0.4406 O.2        1 <1>        0.000
      5 C20         3.0960   -2.0654    0.6758 C.2        1 <1>        0.000
      6 C21         4.1947   -2.3272    1.6025 C.2        1 <1>        0.000
      7 O5          4.3555   -1.7267    2.6505 O.2        1 <1>        0.000
      8 O6          4.9876   -3.3319    1.2284 O.3        1 <1>        0.000
      9 H          -0.3160   -1.3795   -1.1401 H.spc      1 <1>        0.000
     10 H           0.7525   -2.5476   -0.3559 H.spc      1 <1>        0.000
     11 H           2.8235   -0.1209    1.3904 H.spc      1 <1>        0.000
     12 H           2.7872   -2.8325   -0.0344 H.spc      1 <1>        0.000
     13 H           4.6957   -3.6689    0.3782 H.spc      1 <1>        0.000
@<TRIPOS>BOND
     1    1    2 am 
     2    2    4 2  
     3    2    3 1  
     4    3    5 2  
     5    5    6 1  
     6    6    7 2  
     7    6    8 1  
     8    1    9 1  
     9    1   10 1  
    10    3   11 1  
    11    5   12 1  
    12    8   13 1  
# Name:          frag3-219-6/96164
# Creation time: Sat Jun  5 12:53:13 2010


@<TRIPOS>MOLECULE
frag3-219-6/96164
   13    12     1     1     1
SMALL
USER_CHARGES


@<TRIPOS>ATOM
      1 N2         -0.0074   -1.1383   -0.4049 N.am       1 <1>        0.000
      2 C18         1.2688   -0.7589   -0.1843 C.2        1 <1>        0.000
      3 C19         2.1210   -1.6676    0.5970 C.2        1 <1>        0.000
      4 O4          1.7007    0.3056   -0.6140 O.2        1 <1>        0.000
      5 C20         3.3974   -1.3081    0.8340 C.2        1 <1>        0.000
      6 C21         4.2524   -2.1715    1.6263 C.2        1 <1>        0.000
      7 O5          4.5248   -1.9186    2.7878 O.2        1 <1>        0.000
      8 O6          4.7473   -3.2402    1.0073 O.3        1 <1>        0.000
      9 H          -0.6337   -0.5354   -0.9383 H.spc      1 <1>        0.000
     10 H          -0.3456   -2.0280   -0.0382 H.spc      1 <1>        0.000
     11 H           1.7285   -2.6112    0.9760 H.spc      1 <1>        0.000
     12 H           3.7861   -0.3724    0.4321 H.spc      1 <1>        0.000
     13 H           4.4194   -3.2667    0.1054 H.spc      1 <1>        0.000
@<TRIPOS>BOND
     1    1    2 am 
     2    2    4 2  
     3    2    3 1  
     4    3    5 2  
     5    5    6 1  
     6    6    7 2  
     7    6    8 1  
     8    1    9 1  
     9    1   10 1  
    10    3   11 1  
    11    5   12 1  
    12    8   13 1  
# Name:          frag3-219-6/96164
# Creation time: Sat Jun  5 12:53:13 2010


@<TRIPOS>MOLECULE
frag3-219-6/96164
   13    12     1     1     1
SMALL
USER_CHARGES


@<TRIPOS>ATOM
      1 N2          0.2118   -1.1750    0.0410 N.am       1 <1>        0.000
      2 C18         1.3818   -0.6374   -0.3504 C.2        1 <1>        0.000
      3 C19         2.6454   -1.2590    0.0933 C.2        1 <1>        0.000
      4 O4          1.4202    0.3345   -1.0857 O.2        1 <1>        0.000
      5 C20         2.8594   -1.7061    1.3446 C.2        1 <1>        0.000
      6 C21         4.1346   -2.3097    1.7796 C.2        1 <1>        0.000
      7 O5          4.3369   -2.4731    2.9780 O.2        1 <1>        0.000
      8 O6          5.0149   -2.6716    0.8487 O.3        1 <1>        0.000
      9 H          -0.6680   -0.7692   -0.2780 H.spc      1 <1>        0.000
     10 H           0.2048   -1.9883    0.6566 H.spc      1 <1>        0.000
     11 H           3.4508   -1.3617   -0.6339 H.spc      1 <1>        0.000
     12 H           2.0523   -1.6183    2.0719 H.spc      1 <1>        0.000
     13 H           4.6664   -2.4580   -0.0199 H.spc      1 <1>        0.000
@<TRIPOS>BOND
     1    1    2 am 
     2    2    4 2  
     3    2    3 1  
     4    3    5 2  
     5    5    6 1  
     6    6    7 2  
     7    6    8 1  
     8    1    9 1  
     9    1   10 1  
    10    3   11 1  
    11    5   12 1  
    12    8   13 1  
# Name:          frag3-219-6/96164 -- energy: -0.452953
# Creation time: Sat Jun  5 12:53:13 2010


@<TRIPOS>MOLECULE
frag3-219-6/96164 -- energy: -0.452953
   13    12     1     1     1
SMALL
USER_CHARGES


@<TRIPOS>ATOM
      1 N2         -0.0291   -0.9110    0.0328 N.am       1 <1>        0.000
      2 C18         1.2814   -0.6459   -0.1316 C.2        1 <1>        0.000
      3 C19         2.1839   -1.1680    0.9005 C.2        1 <1>        0.000
      4 O4          1.7167   -0.0396   -1.1021 O.2        1 <1>        0.000
      5 C20         3.3033   -1.8169    0.5328 C.2        1 <1>        0.000
      6 C21         4.2161   -2.2890    1.5669 C.2        1 <1>        0.000
      7 O5          3.9143   -2.3790    2.7444 O.2        1 <1>        0.000
      8 O6          5.4185   -2.6481    1.1053 O.3        1 <1>        0.000
      9 H          -0.7035   -0.6031   -0.6678 H.spc      1 <1>        0.000
     10 H          -0.3470   -1.4196    0.8578 H.spc      1 <1>        0.000
     11 H           1.9494   -1.0313    1.9561 H.spc      1 <1>        0.000
     12 H           3.5243   -1.9870   -0.5209 H.spc      1 <1>        0.000
     13 H           5.4534   -2.5000    0.1574 H.spc      1 <1>        0.000
@<TRIPOS>BOND
     1    1    2 am 
     2    2    4 2  
     3    2    3 1  
     4    3    5 2  
     5    5    6 1  
     6    6    7 2  
     7    6    8 1  
     8    1    9 1  
     9    1   10 1  
    10    3   11 1  
    11    5   12 1  
    12    8   13 1  
# Name:          frag3-219-6/96164 -- energy: 1.513840
# Creation time: Sat Jun  5 12:53:13 2010


@<TRIPOS>MOLECULE
frag3-219-6/96164 -- energy: 1.513840
   13    12     1     1     1
SMALL
USER_CHARGES


@<TRIPOS>ATOM
      1 N2          0.1509   -1.2779   -0.7809 N.am       1 <1>        0.000
      2 C18         1.2466   -0.7405   -0.1911 C.2        1 <1>        0.000
      3 C19         2.1607   -1.7004    0.4676 C.2        1 <1>        0.000
      4 O4          1.4703    0.4581   -0.2235 O.2        1 <1>        0.000
      5 C20         3.3251   -1.2796    0.9907 C.2        1 <1>        0.000
      6 C21         4.2963   -2.1642    1.6242 C.2        1 <1>        0.000
      7 O5          5.3088   -1.7175    2.1330 O.2        1 <1>        0.000
      8 O6          4.0465   -3.4755    1.6291 O.3        1 <1>        0.000
      9 H          -0.5128   -0.6760   -1.2683 H.spc      1 <1>        0.000
     10 H          -0.0099   -2.2842   -0.7373 H.spc      1 <1>        0.000
     11 H           1.8881   -2.7540    0.5288 H.spc      1 <1>        0.000
     12 H           3.5569   -0.2158    0.9384 H.spc      1 <1>        0.000
     13 H           3.2108   -3.6426    1.1872 H.spc      1 <1>        0.000
@<TRIPOS>BOND
     1    1    2 am 
     2    2    4 2  
     3    2    3 1  
     4    3    5 2  
     5    5    6 1  
     6    6    7 2  
     7    6    8 1  
     8    1    9 1  
     9    1   10 1  
    10    3   11 1  
    11    5   12 1  
    12    8   13 1  
# Name:          frag3-219-6/96164 -- energy: -0.438391
# Creation time: Sat Jun  5 12:53:13 2010


@<TRIPOS>MOLECULE
frag3-219-6/96164 -- energy: -0.438391
   13    12     1     1     1
SMALL
USER_CHARGES


@<TRIPOS>ATOM
      1 N2          0.5192   -1.5829   -0.5911 N.am       1 <1>        0.000
      2 C18         1.3161   -0.5751   -0.1757 C.2        1 <1>        0.000
      3 C19         2.4704   -0.8862    0.6992 C.2        1 <1>        0.000
      4 O4          1.0657    0.5978   -0.4406 O.2        1 <1>        0.000
      5 C20         3.0960   -2.0654    0.6758 C.2        1 <1>        0.000
      6 C21         4.1947   -2.3272    1.6025 C.2        1 <1>        0.000
      7 O5          4.3555   -1.7267    2.6505 O.2        1 <1>        0.000
      8 O6          4.9876   -3.3319    1.2284 O.3        1 <1>        0.000
      9 H          -0.3160   -1.3795   -1.1401 H.spc      1 <1>        0.000
     10 H           0.7525   -2.5476   -0.3559 H.spc      1 <1>        0.000
     11 H           2.8235   -0.1209    1.3904 H.spc      1 <1>        0.000
     12 H           2.7872   -2.8325   -0.0344 H.spc      1 <1>        0.000
     13 H           4.6957   -3.6689    0.3782 H.spc      1 <1>        0.000
@<TRIPOS>BOND
     1    1    2 am 
     2    2    4 2  
     3    2    3 1  
     4    3    5 2  
     5    5    6 1  
     6    6    7 2  
     7    6    8 1  
     8    1    9 1  
     9    1   10 1  
    10    3   11 1  
    11    5   12 1  
    12    8   13 1  
# Name:          frag3-219-6/96164 -- energy: -0.597269
# Creation time: Sat Jun  5 12:53:13 2010


@<TRIPOS>MOLECULE
frag3-219-6/96164 -- energy: -0.597269
   13    12     1     1     1
SMALL
USER_CHARGES


@<TRIPOS>ATOM
      1 N2         -0.0074   -1.1383   -0.4049 N.am       1 <1>        0.000
      2 C18         1.2688   -0.7589   -0.1843 C.2        1 <1>        0.000
      3 C19         2.1210   -1.6676    0.5970 C.2        1 <1>        0.000
      4 O4          1.7007    0.3056   -0.6140 O.2        1 <1>        0.000
      5 C20         3.3974   -1.3081    0.8340 C.2        1 <1>        0.000
      6 C21         4.2524   -2.1715    1.6263 C.2        1 <1>        0.000
      7 O5          4.5248   -1.9186    2.7878 O.2        1 <1>        0.000
      8 O6          4.7473   -3.2402    1.0073 O.3        1 <1>        0.000
      9 H          -0.6337   -0.5354   -0.9383 H.spc      1 <1>        0.000
     10 H          -0.3456   -2.0280   -0.0382 H.spc      1 <1>        0.000
     11 H           1.7285   -2.6112    0.9760 H.spc      1 <1>        0.000
     12 H           3.7861   -0.3724    0.4321 H.spc      1 <1>        0.000
     13 H           4.4194   -3.2667    0.1054 H.spc      1 <1>        0.000
@<TRIPOS>BOND
     1    1    2 am 
     2    2    4 2  
     3    2    3 1  
     4    3    5 2  
     5    5    6 1  
     6    6    7 2  
     7    6    8 1  
     8    1    9 1  
     9    1   10 1  
    10    3   11 1  
    11    5   12 1  
    12    8   13 1  
# Name:          frag3-219-6/96164 -- energy: 0.902268
# Creation time: Sat Jun  5 12:53:13 2010


@<TRIPOS>MOLECULE
frag3-219-6/96164 -- energy: 0.902268
   13    12     1     1     1
SMALL
USER_CHARGES


@<TRIPOS>ATOM
      1 N2          0.2118   -1.1750    0.0410 N.am       1 <1>        0.000
      2 C18         1.3818   -0.6374   -0.3504 C.2        1 <1>        0.000
      3 C19         2.6454   -1.2590    0.0933 C.2        1 <1>        0.000
      4 O4          1.4202    0.3345   -1.0857 O.2        1 <1>        0.000
      5 C20         2.8594   -1.7061    1.3446 C.2        1 <1>        0.000
      6 C21         4.1346   -2.3097    1.7796 C.2        1 <1>        0.000
      7 O5          4.3369   -2.4731    2.9780 O.2        1 <1>        0.000
      8 O6          5.0149   -2.6716    0.8487 O.3        1 <1>        0.000
      9 H          -0.6680   -0.7692   -0.2780 H.spc      1 <1>        0.000
     10 H           0.2048   -1.9883    0.6566 H.spc      1 <1>        0.000
     11 H           3.4508   -1.3617   -0.6339 H.spc      1 <1>        0.000
     12 H           2.0523   -1.6183    2.0719 H.spc      1 <1>        0.000
     13 H           4.6664   -2.4580   -0.0199 H.spc      1 <1>        0.000
@<TRIPOS>BOND
     1    1    2 am 
     2    2    4 2  
     3    2    3 1  
     4    3    5 2  
     5    5    6 1  
     6    6    7 2  
     7    6    8 1  
     8    1    9 1  
     9    1   10 1  
    10    3   11 1  
    11    5   12 1  
    12    8   13 1  
