#      Rotatable Fragment
#      Build by yxyuan
#
# Name:          frag2-073-1/92655
# Creation time: Sat Jun  5 12:51:58 2010


@<TRIPOS>MOLECULE
frag2-073-1/92655
   14    15     1     1     1
SMALL
USER_CHARGES


@<TRIPOS>ATOM
      1 C1          2.4366    0.5456    0.0546 C.ar       1 <1>        0.000
      2 N2          1.3674    1.3551    0.0080 N.ar       1 <1>        0.000
      3 C2          0.1128    0.8585   -0.0156 C.ar       1 <1>        0.000
      4 N3         -0.9711    1.6620   -0.0618 N.ar       1 <1>        0.000
      5 C3         -2.2100    1.1626   -0.0851 C.ar       1 <1>        0.000
      6 N4         -2.4225   -0.1717   -0.0670 N.ar       1 <1>        0.000
      7 C4         -1.3781   -1.0177   -0.0183 C.ar       1 <1>        0.000
      8 C5         -0.0715   -0.5374    0.0090 C.ar       1 <1>        0.000
      9 C6          1.0664   -1.3393    0.0594 C.ar       1 <1>        0.000
     10 N5          2.2940   -0.7945    0.0792 N.ar       1 <1>        0.000
     11 H           3.4367    0.9788    0.0729 H.spc      1 <1>        0.000
     12 H          -3.0620    1.8416   -0.1192 H.spc      1 <1>        0.000
     13 H          -1.5568   -2.0928    0.0000 H.spc      1 <1>        0.000
     14 H           0.9591   -2.4238    0.0831 H.spc      1 <1>        0.000
@<TRIPOS>BOND
     1    1    2 ar 
     2    2    3 ar 
     3    1   10 ar 
     4    3    4 ar 
     5    3    8 ar 
     6    4    5 ar 
     7    5    6 ar 
     8    6    7 ar 
     9    7    8 ar 
    10    8    9 ar 
    11    9   10 ar 
    12    1   11 1  
    13    5   12 1  
    14    7   13 1  
    15    9   14 1  
# Name:          frag2-073-1/92655 -- energy: 0.270142
# Creation time: Sat Jun  5 12:51:58 2010


@<TRIPOS>MOLECULE
frag2-073-1/92655 -- energy: 0.270142
   14    15     1     1     1
SMALL
USER_CHARGES


@<TRIPOS>ATOM
      1 C1          2.4366    0.5456    0.0546 C.ar       1 <1>        0.000
      2 N2          1.3674    1.3551    0.0080 N.ar       1 <1>        0.000
      3 C2          0.1128    0.8585   -0.0156 C.ar       1 <1>        0.000
      4 N3         -0.9711    1.6620   -0.0618 N.ar       1 <1>        0.000
      5 C3         -2.2100    1.1626   -0.0851 C.ar       1 <1>        0.000
      6 N4         -2.4225   -0.1717   -0.0670 N.ar       1 <1>        0.000
      7 C4         -1.3781   -1.0177   -0.0183 C.ar       1 <1>        0.000
      8 C5         -0.0715   -0.5374    0.0090 C.ar       1 <1>        0.000
      9 C6          1.0664   -1.3393    0.0594 C.ar       1 <1>        0.000
     10 N5          2.2940   -0.7945    0.0792 N.ar       1 <1>        0.000
     11 H           3.4367    0.9788    0.0729 H.spc      1 <1>        0.000
     12 H          -3.0620    1.8416   -0.1192 H.spc      1 <1>        0.000
     13 H          -1.5568   -2.0928    0.0000 H.spc      1 <1>        0.000
     14 H           0.9591   -2.4238    0.0831 H.spc      1 <1>        0.000
@<TRIPOS>BOND
     1    1    2 ar 
     2    2    3 ar 
     3    1   10 ar 
     4    3    4 ar 
     5    3    8 ar 
     6    4    5 ar 
     7    5    6 ar 
     8    6    7 ar 
     9    7    8 ar 
    10    8    9 ar 
    11    9   10 ar 
    12    1   11 1  
    13    5   12 1  
    14    7   13 1  
    15    9   14 1  
