#      Rotatable Fragment
#      Build by yxyuan
#
# Name:          frag5-618-33/41815
# Creation time: Sat Jun  5 12:52:59 2010


@<TRIPOS>MOLECULE
frag5-618-33/41815
   17    17     1     1     1
SMALL
USER_CHARGES


@<TRIPOS>ATOM
      1 Cl1        16.0593   -2.6565   -1.8634 Cl         1 <1>        0.000
      2 C1         16.1134   -1.6286   -0.4492 C.ar       1 <1>        0.000
      3 C2         17.3465   -1.4360    0.1899 C.ar       1 <1>        0.000
      4 C3         17.4234   -0.5912    1.3208 C.ar       1 <1>        0.000
      5 C4         16.2548    0.0287    1.7700 C.ar       1 <1>        0.000
      6 C5         15.0302   -0.1680    1.1527 C.ar       1 <1>        0.000
      7 C6         14.9363   -1.0053    0.0327 C.ar       1 <1>        0.000
      8 O1         13.7265   -1.2065   -0.5872 O.3        1 <1>        0.000
      9 C8         13.7880    0.5294    1.6897 C.2        1 <1>        0.000
     10 O2         13.8713    1.6895    2.0553 O.2        1 <1>        0.000
     11 O3         12.6390   -0.1439    1.7528 O.3        1 <1>        0.000
     12 Cl2        18.9219   -0.3134    2.1582 Cl         1 <1>        0.000
     13 O30        18.4631   -2.0840   -0.3112 O.3        1 <1>        0.000
     14 H          16.3083    0.6894    2.6353 H.spc      1 <1>        0.000
     15 H          13.8442   -1.8028   -1.3303 H.spc      1 <1>        0.000
     16 H          12.7731   -1.0352    1.4224 H.spc      1 <1>        0.000
     17 H          19.2285   -1.8597    0.2231 H.spc      1 <1>        0.000
@<TRIPOS>BOND
     1    9   11 1  
     2    6    9 1  
     3    9   10 2  
     4    6    7 ar 
     5    7    8 1  
     6    2    3 ar 
     7    1    2 1  
     8    2    7 ar 
     9    3    4 ar 
    10    3   13 1  
    11    4    5 ar 
    12    4   12 1  
    13    5    6 ar 
    14    5   14 1  
    15    8   15 1  
    16   11   16 1  
    17   13   17 1  
# Name:          frag5-618-33/41815
# Creation time: Sat Jun  5 12:52:59 2010


@<TRIPOS>MOLECULE
frag5-618-33/41815
   17    17     1     1     1
SMALL
USER_CHARGES


@<TRIPOS>ATOM
      1 Cl1        16.0212   -2.8286   -1.7234 Cl         1 <1>        0.000
      2 C1         16.0963   -1.7017   -0.3902 C.ar       1 <1>        0.000
      3 C2         17.3494   -1.4220    0.1791 C.ar       1 <1>        0.000
      4 C3         17.4452   -0.4948    1.2452 C.ar       1 <1>        0.000
      5 C4         16.2717    0.1136    1.6978 C.ar       1 <1>        0.000
      6 C5         15.0320   -0.1621    1.1492 C.ar       1 <1>        0.000
      7 C6         14.9175   -1.0846    0.0992 C.ar       1 <1>        0.000
      8 O1         13.6981   -1.3739   -0.4525 O.3        1 <1>        0.000
      9 C8         13.7873    0.5244    1.6975 C.2        1 <1>        0.000
     10 O2         13.6946    0.7144    2.8964 O.2        1 <1>        0.000
     11 O3         12.8322    0.9044    0.8459 O.3        1 <1>        0.000
     12 Cl2        18.9639   -0.1095    1.9905 Cl         1 <1>        0.000
     13 O30        18.4645   -2.0655   -0.3236 O.3        1 <1>        0.000
     14 H          16.3354    0.8329    2.5143 H.spc      1 <1>        0.000
     15 H          13.8104   -2.0209   -1.1528 H.spc      1 <1>        0.000
     16 H          13.0896    0.6678   -0.0482 H.spc      1 <1>        0.000
     17 H          19.2431   -1.7780    0.1588 H.spc      1 <1>        0.000
@<TRIPOS>BOND
     1    9   11 1  
     2    6    9 1  
     3    9   10 2  
     4    6    7 ar 
     5    7    8 1  
     6    2    3 ar 
     7    1    2 1  
     8    2    7 ar 
     9    3    4 ar 
    10    3   13 1  
    11    4    5 ar 
    12    4   12 1  
    13    5    6 ar 
    14    5   14 1  
    15    8   15 1  
    16   11   16 1  
    17   13   17 1  
# Name:          frag5-618-33/41815
# Creation time: Sat Jun  5 12:52:59 2010


@<TRIPOS>MOLECULE
frag5-618-33/41815
   17    17     1     1     1
SMALL
USER_CHARGES


@<TRIPOS>ATOM
      1 Cl1        16.0571   -2.7288   -1.8147 Cl         1 <1>        0.000
      2 C1         16.1107   -1.6614   -0.4288 C.ar       1 <1>        0.000
      3 C2         17.3489   -1.4230    0.1826 C.ar       1 <1>        0.000
      4 C3         17.4237   -0.5492    1.2883 C.ar       1 <1>        0.000
      5 C4         16.2509    0.0584    1.7449 C.ar       1 <1>        0.000
      6 C5         15.0218   -0.1809    1.1516 C.ar       1 <1>        0.000
      7 C6         14.9301   -1.0543    0.0574 C.ar       1 <1>        0.000
      8 O1         13.7111   -1.2993   -0.5370 O.3        1 <1>        0.000
      9 C8         13.7663    0.4937    1.6929 C.2        1 <1>        0.000
     10 O2         12.8809   -0.1911    2.1674 O.2        1 <1>        0.000
     11 O3         13.6671    1.8233    1.6339 O.3        1 <1>        0.000
     12 Cl2        18.9314   -0.2130    2.0937 Cl         1 <1>        0.000
     13 O30        18.4738   -2.0601   -0.3209 O.3        1 <1>        0.000
     14 H          16.3047    0.7409    2.5931 H.spc      1 <1>        0.000
     15 H          13.8289   -1.9148   -1.2642 H.spc      1 <1>        0.000
     16 H          14.4593    2.1845    1.2294 H.spc      1 <1>        0.000
     17 H          19.2427   -1.8035    0.1935 H.spc      1 <1>        0.000
@<TRIPOS>BOND
     1    9   11 1  
     2    6    9 1  
     3    9   10 2  
     4    6    7 ar 
     5    7    8 1  
     6    2    3 ar 
     7    1    2 1  
     8    2    7 ar 
     9    3    4 ar 
    10    3   13 1  
    11    4    5 ar 
    12    4   12 1  
    13    5    6 ar 
    14    5   14 1  
    15    8   15 1  
    16   11   16 1  
    17   13   17 1  
# Name:          frag5-618-33/41815 -- energy: -0.258386
# Creation time: Sat Jun  5 12:52:59 2010


@<TRIPOS>MOLECULE
frag5-618-33/41815 -- energy: -0.258386
   17    17     1     1     1
SMALL
USER_CHARGES


@<TRIPOS>ATOM
      1 Cl1        16.0593   -2.6565   -1.8634 Cl         1 <1>        0.000
      2 C1         16.1134   -1.6286   -0.4492 C.ar       1 <1>        0.000
      3 C2         17.3465   -1.4360    0.1899 C.ar       1 <1>        0.000
      4 C3         17.4234   -0.5912    1.3208 C.ar       1 <1>        0.000
      5 C4         16.2548    0.0287    1.7700 C.ar       1 <1>        0.000
      6 C5         15.0302   -0.1680    1.1527 C.ar       1 <1>        0.000
      7 C6         14.9363   -1.0053    0.0327 C.ar       1 <1>        0.000
      8 O1         13.7265   -1.2065   -0.5872 O.3        1 <1>        0.000
      9 C8         13.7880    0.5294    1.6897 C.2        1 <1>        0.000
     10 O2         13.8713    1.6895    2.0553 O.2        1 <1>        0.000
     11 O3         12.6390   -0.1439    1.7528 O.3        1 <1>        0.000
     12 Cl2        18.9219   -0.3134    2.1582 Cl         1 <1>        0.000
     13 O30        18.4631   -2.0840   -0.3112 O.3        1 <1>        0.000
     14 H          16.3083    0.6894    2.6353 H.spc      1 <1>        0.000
     15 H          13.8442   -1.8028   -1.3303 H.spc      1 <1>        0.000
     16 H          12.7731   -1.0352    1.4224 H.spc      1 <1>        0.000
     17 H          19.2285   -1.8597    0.2231 H.spc      1 <1>        0.000
@<TRIPOS>BOND
     1    9   11 1  
     2    6    9 1  
     3    9   10 2  
     4    6    7 ar 
     5    7    8 1  
     6    2    3 ar 
     7    1    2 1  
     8    2    7 ar 
     9    3    4 ar 
    10    3   13 1  
    11    4    5 ar 
    12    4   12 1  
    13    5    6 ar 
    14    5   14 1  
    15    8   15 1  
    16   11   16 1  
    17   13   17 1  
# Name:          frag5-618-33/41815 -- energy: 0.075748
# Creation time: Sat Jun  5 12:52:59 2010


@<TRIPOS>MOLECULE
frag5-618-33/41815 -- energy: 0.075748
   17    17     1     1     1
SMALL
USER_CHARGES


@<TRIPOS>ATOM
      1 Cl1        16.0212   -2.8286   -1.7234 Cl         1 <1>        0.000
      2 C1         16.0963   -1.7017   -0.3902 C.ar       1 <1>        0.000
      3 C2         17.3494   -1.4220    0.1791 C.ar       1 <1>        0.000
      4 C3         17.4452   -0.4948    1.2452 C.ar       1 <1>        0.000
      5 C4         16.2717    0.1136    1.6978 C.ar       1 <1>        0.000
      6 C5         15.0320   -0.1621    1.1492 C.ar       1 <1>        0.000
      7 C6         14.9175   -1.0846    0.0992 C.ar       1 <1>        0.000
      8 O1         13.6981   -1.3739   -0.4525 O.3        1 <1>        0.000
      9 C8         13.7873    0.5244    1.6975 C.2        1 <1>        0.000
     10 O2         13.6946    0.7144    2.8964 O.2        1 <1>        0.000
     11 O3         12.8322    0.9044    0.8459 O.3        1 <1>        0.000
     12 Cl2        18.9639   -0.1095    1.9905 Cl         1 <1>        0.000
     13 O30        18.4645   -2.0655   -0.3236 O.3        1 <1>        0.000
     14 H          16.3354    0.8329    2.5143 H.spc      1 <1>        0.000
     15 H          13.8104   -2.0209   -1.1528 H.spc      1 <1>        0.000
     16 H          13.0896    0.6678   -0.0482 H.spc      1 <1>        0.000
     17 H          19.2431   -1.7780    0.1588 H.spc      1 <1>        0.000
@<TRIPOS>BOND
     1    9   11 1  
     2    6    9 1  
     3    9   10 2  
     4    6    7 ar 
     5    7    8 1  
     6    2    3 ar 
     7    1    2 1  
     8    2    7 ar 
     9    3    4 ar 
    10    3   13 1  
    11    4    5 ar 
    12    4   12 1  
    13    5    6 ar 
    14    5   14 1  
    15    8   15 1  
    16   11   16 1  
    17   13   17 1  
# Name:          frag5-618-33/41815 -- energy: -0.763309
# Creation time: Sat Jun  5 12:52:59 2010


@<TRIPOS>MOLECULE
frag5-618-33/41815 -- energy: -0.763309
   17    17     1     1     1
SMALL
USER_CHARGES


@<TRIPOS>ATOM
      1 Cl1        16.0571   -2.7288   -1.8147 Cl         1 <1>        0.000
      2 C1         16.1107   -1.6614   -0.4288 C.ar       1 <1>        0.000
      3 C2         17.3489   -1.4230    0.1826 C.ar       1 <1>        0.000
      4 C3         17.4237   -0.5492    1.2883 C.ar       1 <1>        0.000
      5 C4         16.2509    0.0584    1.7449 C.ar       1 <1>        0.000
      6 C5         15.0218   -0.1809    1.1516 C.ar       1 <1>        0.000
      7 C6         14.9301   -1.0543    0.0574 C.ar       1 <1>        0.000
      8 O1         13.7111   -1.2993   -0.5370 O.3        1 <1>        0.000
      9 C8         13.7663    0.4937    1.6929 C.2        1 <1>        0.000
     10 O2         12.8809   -0.1911    2.1674 O.2        1 <1>        0.000
     11 O3         13.6671    1.8233    1.6339 O.3        1 <1>        0.000
     12 Cl2        18.9314   -0.2130    2.0937 Cl         1 <1>        0.000
     13 O30        18.4738   -2.0601   -0.3209 O.3        1 <1>        0.000
     14 H          16.3047    0.7409    2.5931 H.spc      1 <1>        0.000
     15 H          13.8289   -1.9148   -1.2642 H.spc      1 <1>        0.000
     16 H          14.4593    2.1845    1.2294 H.spc      1 <1>        0.000
     17 H          19.2427   -1.8035    0.1935 H.spc      1 <1>        0.000
@<TRIPOS>BOND
     1    9   11 1  
     2    6    9 1  
     3    9   10 2  
     4    6    7 ar 
     5    7    8 1  
     6    2    3 ar 
     7    1    2 1  
     8    2    7 ar 
     9    3    4 ar 
    10    3   13 1  
    11    4    5 ar 
    12    4   12 1  
    13    5    6 ar 
    14    5   14 1  
    15    8   15 1  
    16   11   16 1  
    17   13   17 1  
