#      Rotatable Fragment
#      Build by yxyuan
#
# Name:          frag3-287-2/31924
# Creation time: Sat Jun  5 12:52:45 2010


@<TRIPOS>MOLECULE
frag3-287-2/31924
    9     8     1     1     1
SMALL
USER_CHARGES


@<TRIPOS>ATOM
      1 F1          0.8076   -1.6946   -1.5315 F          1 <1>        0.000
      2 P1          0.3174   -0.2860   -1.0883 P.3        1 <1>        0.000
      3 O1          0.3354    0.5659   -2.2600 O.2        1 <1>        0.000
      4 N1         -1.1579   -0.4184   -0.5157 N.pl3      1 <1>        0.000
      5 N2          1.3062    0.2768    0.0187 N.pl3      1 <1>        0.000
      6 H          -1.9288    0.0663   -0.9753 H.spc      1 <1>        0.000
      7 H          -1.3346   -0.9882    0.3117 H.spc      1 <1>        0.000
      8 H           1.8397    1.1278   -0.1591 H.spc      1 <1>        0.000
      9 H           1.4081   -0.2126    0.9078 H.spc      1 <1>        0.000
@<TRIPOS>BOND
     1    1    2 1  
     2    2    3 2  
     3    2    4 1  
     4    2    5 1  
     5    4    6 1  
     6    4    7 1  
     7    5    8 1  
     8    5    9 1  
# Name:          frag3-287-2/31924 -- energy: -0.309290
# Creation time: Sat Jun  5 12:52:45 2010


@<TRIPOS>MOLECULE
frag3-287-2/31924 -- energy: -0.309290
    9     8     1     1     1
SMALL
USER_CHARGES


@<TRIPOS>ATOM
      1 F1          0.8076   -1.6946   -1.5315 F          1 <1>        0.000
      2 P1          0.3174   -0.2860   -1.0883 P.3        1 <1>        0.000
      3 O1          0.3354    0.5659   -2.2600 O.2        1 <1>        0.000
      4 N1         -1.1579   -0.4184   -0.5157 N.pl3      1 <1>        0.000
      5 N2          1.3062    0.2768    0.0187 N.pl3      1 <1>        0.000
      6 H          -1.9288    0.0663   -0.9753 H.spc      1 <1>        0.000
      7 H          -1.3346   -0.9882    0.3117 H.spc      1 <1>        0.000
      8 H           1.8397    1.1278   -0.1591 H.spc      1 <1>        0.000
      9 H           1.4081   -0.2126    0.9078 H.spc      1 <1>        0.000
@<TRIPOS>BOND
     1    1    2 1  
     2    2    3 2  
     3    2    4 1  
     4    2    5 1  
     5    4    6 1  
     6    4    7 1  
     7    5    8 1  
     8    5    9 1  
