#      Rotatable Fragment
#      Build by yxyuan
#
# Name:          frag5-635-83/138278
# Creation time: Sat Jun  5 12:53:49 2010


@<TRIPOS>MOLECULE
frag5-635-83/138278
   16    17     1     1     1
SMALL
USER_CHARGES


@<TRIPOS>ATOM
      1 C1          2.3808   -1.2751    0.0000 C.ar       1 <1>        0.000
      2 C2          3.5746   -0.5633    0.0000 C.ar       1 <1>        0.000
      3 C3          1.1545   -0.6261    0.0002 C.ar       1 <1>        0.000
      4 O1          2.5760   -2.6315   -0.0000 O.3        1 <1>        0.000
      5 C4          3.5840    0.8264   -0.0000 C.ar       1 <1>        0.000
      6 O2          4.6764   -1.3779   -0.0000 O.3        1 <1>        0.000
      7 C5          1.1334    0.7780    0.0004 C.ar       1 <1>        0.000
      8 C6          4.0323   -2.6852    0.0000 C.3        1 <1>        0.000
      9 C7          2.3542    1.4818   -0.0002 C.ar       1 <1>        0.000
     10 O3         -0.0580    1.4844    0.0004 O.3        1 <1>        0.000
     11 H           0.2250   -1.1954    0.0002 H.spc      1 <1>        0.000
     12 H           4.5205    1.3842    0.0002 H.spc      1 <1>        0.000
     13 H           4.3361   -3.1942   -0.9148 H.spc      1 <1>        0.000
     14 H           4.3361   -3.1942    0.9148 H.spc      1 <1>        0.000
     15 H           2.3360    2.5716   -0.0008 H.spc      1 <1>        0.000
     16 H          -0.7941    0.8682    0.0008 H.spc      1 <1>        0.000
@<TRIPOS>BOND
     1    7    9 ar 
     2    7   10 1  
     3    1    2 ar 
     4    1    3 ar 
     5    2    5 ar 
     6    1    4 1  
     7    2    6 1  
     8    3    7 ar 
     9    4    8 1  
    10    5    9 ar 
    11    6    8 1  
    12    3   11 1  
    13    5   12 1  
    14    8   13 1  
    15    8   14 1  
    16    9   15 1  
    17   10   16 1  
# Name:          frag5-635-83/138278 -- energy: -0.572135
# Creation time: Sat Jun  5 12:53:49 2010


@<TRIPOS>MOLECULE
frag5-635-83/138278 -- energy: -0.572135
   16    17     1     1     1
SMALL
USER_CHARGES


@<TRIPOS>ATOM
      1 C1          2.3808   -1.2751    0.0000 C.ar       1 <1>        0.000
      2 C2          3.5746   -0.5633    0.0000 C.ar       1 <1>        0.000
      3 C3          1.1545   -0.6261    0.0002 C.ar       1 <1>        0.000
      4 O1          2.5760   -2.6315   -0.0000 O.3        1 <1>        0.000
      5 C4          3.5840    0.8264   -0.0000 C.ar       1 <1>        0.000
      6 O2          4.6764   -1.3779   -0.0000 O.3        1 <1>        0.000
      7 C5          1.1334    0.7780    0.0004 C.ar       1 <1>        0.000
      8 C6          4.0323   -2.6852    0.0000 C.3        1 <1>        0.000
      9 C7          2.3542    1.4818   -0.0002 C.ar       1 <1>        0.000
     10 O3         -0.0580    1.4844    0.0004 O.3        1 <1>        0.000
     11 H           0.2250   -1.1954    0.0002 H.spc      1 <1>        0.000
     12 H           4.5205    1.3842    0.0002 H.spc      1 <1>        0.000
     13 H           4.3361   -3.1942   -0.9148 H.spc      1 <1>        0.000
     14 H           4.3361   -3.1942    0.9148 H.spc      1 <1>        0.000
     15 H           2.3360    2.5716   -0.0008 H.spc      1 <1>        0.000
     16 H          -0.7941    0.8682    0.0008 H.spc      1 <1>        0.000
@<TRIPOS>BOND
     1    7    9 ar 
     2    7   10 1  
     3    1    2 ar 
     4    1    3 ar 
     5    2    5 ar 
     6    1    4 1  
     7    2    6 1  
     8    3    7 ar 
     9    4    8 1  
    10    5    9 ar 
    11    6    8 1  
    12    3   11 1  
    13    5   12 1  
    14    8   13 1  
    15    8   14 1  
    16    9   15 1  
    17   10   16 1  
