#      Rotatable Fragment
#      Build by yxyuan
#
# Name:          frag4-321-271/48856
# Creation time: Sat Jun  5 12:51:57 2010


@<TRIPOS>MOLECULE
frag4-321-271/48856
   17    18     1     1     1
SMALL
USER_CHARGES


@<TRIPOS>ATOM
      1 C1          2.5233   -0.3562    0.1064 C.ar       1 <1>        0.000
      2 C2          2.3427    1.0145   -0.0281 C.ar       1 <1>        0.000
      3 C3          1.0436    1.5301   -0.1057 C.ar       1 <1>        0.000
      4 C4         -0.0914    0.6952   -0.0669 C.ar       1 <1>        0.000
      5 C5          0.0767   -0.7377    0.0717 C.ar       1 <1>        0.000
      6 C6          1.4094   -1.2120    0.1581 C.ar       1 <1>        0.000
      7 C7         -1.1235   -1.5729    0.1127 C.ar       1 <1>        0.000
      8 C8         -2.3132   -1.0347    0.0246 C.ar       1 <1>        0.000
      9 C9         -2.4536    0.4219   -0.1112 C.ar       1 <1>        0.000
     10 N1         -1.4272    1.1842   -0.1533 N.ar       1 <1>        0.000
     11 H           3.5301   -0.7687    0.1719 H.spc      1 <1>        0.000
     12 H           3.2035    1.6816   -0.0728 H.spc      1 <1>        0.000
     13 H           0.9059    2.6074   -0.1987 H.spc      1 <1>        0.000
     14 H           1.5773   -2.2833    0.2691 H.spc      1 <1>        0.000
     15 H          -1.0261   -2.6535    0.2176 H.spc      1 <1>        0.000
     16 H          -3.2005   -1.6672    0.0520 H.spc      1 <1>        0.000
     17 H          -3.4494    0.8602   -0.1772 H.spc      1 <1>        0.000
@<TRIPOS>BOND
     1    5    6 ar 
     2    7    8 ar 
     3    5    7 ar 
     4    8    9 ar 
     5    9   10 ar 
     6    4   10 ar 
     7    1    6 ar 
     8    1    2 ar 
     9    2    3 ar 
    10    3    4 ar 
    11    4    5 ar 
    12    1   11 1  
    13    2   12 1  
    14    3   13 1  
    15    6   14 1  
    16    7   15 1  
    17    8   16 1  
    18    9   17 1  
# Name:          frag4-321-271/48856 -- energy: -0.309684
# Creation time: Sat Jun  5 12:51:57 2010


@<TRIPOS>MOLECULE
frag4-321-271/48856 -- energy: -0.309684
   17    18     1     1     1
SMALL
USER_CHARGES


@<TRIPOS>ATOM
      1 C1          2.5233   -0.3562    0.1064 C.ar       1 <1>        0.000
      2 C2          2.3427    1.0145   -0.0281 C.ar       1 <1>        0.000
      3 C3          1.0436    1.5301   -0.1057 C.ar       1 <1>        0.000
      4 C4         -0.0914    0.6952   -0.0669 C.ar       1 <1>        0.000
      5 C5          0.0767   -0.7377    0.0717 C.ar       1 <1>        0.000
      6 C6          1.4094   -1.2120    0.1581 C.ar       1 <1>        0.000
      7 C7         -1.1235   -1.5729    0.1127 C.ar       1 <1>        0.000
      8 C8         -2.3132   -1.0347    0.0246 C.ar       1 <1>        0.000
      9 C9         -2.4536    0.4219   -0.1112 C.ar       1 <1>        0.000
     10 N1         -1.4272    1.1842   -0.1533 N.ar       1 <1>        0.000
     11 H           3.5301   -0.7687    0.1719 H.spc      1 <1>        0.000
     12 H           3.2035    1.6816   -0.0728 H.spc      1 <1>        0.000
     13 H           0.9059    2.6074   -0.1987 H.spc      1 <1>        0.000
     14 H           1.5773   -2.2833    0.2691 H.spc      1 <1>        0.000
     15 H          -1.0261   -2.6535    0.2176 H.spc      1 <1>        0.000
     16 H          -3.2005   -1.6672    0.0520 H.spc      1 <1>        0.000
     17 H          -3.4494    0.8602   -0.1772 H.spc      1 <1>        0.000
@<TRIPOS>BOND
     1    5    6 ar 
     2    7    8 ar 
     3    5    7 ar 
     4    8    9 ar 
     5    9   10 ar 
     6    4   10 ar 
     7    1    6 ar 
     8    1    2 ar 
     9    2    3 ar 
    10    3    4 ar 
    11    4    5 ar 
    12    1   11 1  
    13    2   12 1  
    14    3   13 1  
    15    6   14 1  
    16    7   15 1  
    17    8   16 1  
    18    9   17 1  
