#      Rotatable Fragment
#      Build by yxyuan
#
# Name:          frag4-377-264/150395
# Creation time: Sat Jun  5 12:53:32 2010


@<TRIPOS>MOLECULE
frag4-377-264/150395
   12    12     1     1     1
SMALL
USER_CHARGES


@<TRIPOS>ATOM
      1 C1         -1.6903    0.3774    0.0025 C.3        1 <1>        0.000
      2 N1         -0.9532   -0.6456   -0.6661 N.3        1 <1>        0.000
      3 S1         -0.7005    1.2847    1.1032 S.3        1 <1>        0.000
      4 C5          0.3436   -0.8962   -0.1016 C.3        1 <1>        0.000
      5 C7          0.5493    0.0126    1.1657 C.3        1 <1>        0.000
      6 H          -2.4872   -0.0973    0.5750 H.spc      1 <1>        0.000
      7 H          -2.0778    1.0638   -0.7503 H.spc      1 <1>        0.000
      8 H          -0.8098   -0.3358   -1.6273 H.spc      1 <1>        0.000
      9 H           1.1115   -0.6678   -0.8406 H.spc      1 <1>        0.000
     10 H           0.4172   -1.9445    0.1876 H.spc      1 <1>        0.000
     11 H           0.4576   -0.5738    2.0800 H.spc      1 <1>        0.000
     12 H           1.5470    0.4517    1.1678 H.spc      1 <1>        0.000
@<TRIPOS>BOND
     1    1    2 1  
     2    1    3 1  
     3    2    4 1  
     4    3    5 1  
     5    4    5 1  
     6    1    6 1  
     7    1    7 1  
     8    2    8 1  
     9    4    9 1  
    10    4   10 1  
    11    5   11 1  
    12    5   12 1  
# Name:          frag4-377-264/150395 -- energy: -0.540504
# Creation time: Sat Jun  5 12:53:32 2010


@<TRIPOS>MOLECULE
frag4-377-264/150395 -- energy: -0.540504
   12    12     1     1     1
SMALL
USER_CHARGES


@<TRIPOS>ATOM
      1 C1         -1.6903    0.3774    0.0025 C.3        1 <1>        0.000
      2 N1         -0.9532   -0.6456   -0.6661 N.3        1 <1>        0.000
      3 S1         -0.7005    1.2847    1.1032 S.3        1 <1>        0.000
      4 C5          0.3436   -0.8962   -0.1016 C.3        1 <1>        0.000
      5 C7          0.5493    0.0126    1.1657 C.3        1 <1>        0.000
      6 H          -2.4872   -0.0973    0.5750 H.spc      1 <1>        0.000
      7 H          -2.0778    1.0638   -0.7503 H.spc      1 <1>        0.000
      8 H          -0.8098   -0.3358   -1.6273 H.spc      1 <1>        0.000
      9 H           1.1115   -0.6678   -0.8406 H.spc      1 <1>        0.000
     10 H           0.4172   -1.9445    0.1876 H.spc      1 <1>        0.000
     11 H           0.4576   -0.5738    2.0800 H.spc      1 <1>        0.000
     12 H           1.5470    0.4517    1.1678 H.spc      1 <1>        0.000
@<TRIPOS>BOND
     1    1    2 1  
     2    1    3 1  
     3    2    4 1  
     4    3    5 1  
     5    4    5 1  
     6    1    6 1  
     7    1    7 1  
     8    2    8 1  
     9    4    9 1  
    10    4   10 1  
    11    5   11 1  
    12    5   12 1  
