#      Rotatable Fragment
#      Build by yxyuan
#
# Name:          frag3-123-44/31924
# Creation time: Sat Jun  5 12:52:02 2010


@<TRIPOS>MOLECULE
frag3-123-44/31924
   13    12     1     1     1
SMALL
USER_CHARGES


@<TRIPOS>ATOM
      1 O11         2.0282    0.5097    1.5842 O.3        1 <1>        0.000
      2 C20         2.1287    0.0480    0.3390 C.2        1 <1>        0.000
      3 O12         3.2147   -0.2059   -0.1716 O.2        1 <1>        0.000
      4 C21         0.8749   -0.1942   -0.3952 C.2        1 <1>        0.000
      5 C22        -0.3363    0.0146    0.1441 C.2        1 <1>        0.000
      6 C23        -1.6413   -0.1884   -0.3734 C.2        1 <1>        0.000
      7 C24        -2.8238   -0.1209    0.2576 C.2        1 <1>        0.000
      8 H           1.1028    0.6459    1.8001 H.spc      1 <1>        0.000
      9 H           0.9333   -0.5587   -1.4208 H.spc      1 <1>        0.000
     10 H          -0.3130    0.4102    1.1595 H.spc      1 <1>        0.000
     11 H          -1.6907   -0.4341   -1.4342 H.spc      1 <1>        0.000
     12 H          -2.8616    0.1195    1.3201 H.spc      1 <1>        0.000
     13 H          -3.7464   -0.3065   -0.2924 H.spc      1 <1>        0.000
@<TRIPOS>BOND
     1    1    2 1  
     2    2    3 2  
     3    2    4 1  
     4    4    5 2  
     5    5    6 1  
     6    6    7 2  
     7    1    8 1  
     8    4    9 1  
     9    5   10 1  
    10    6   11 1  
    11    7   12 1  
    12    7   13 1  
# Name:          frag3-123-44/31924
# Creation time: Sat Jun  5 12:52:02 2010


@<TRIPOS>MOLECULE
frag3-123-44/31924
   13    12     1     1     1
SMALL
USER_CHARGES


@<TRIPOS>ATOM
      1 O11         2.5817    0.4985    1.6565 O.3        1 <1>        0.000
      2 C20         2.0307    0.0575    0.5279 C.2        1 <1>        0.000
      3 O12         2.6939   -0.1139   -0.4812 O.2        1 <1>        0.000
      4 C21         0.5835   -0.1606    0.5842 C.2        1 <1>        0.000
      5 C22        -0.2131   -0.0660   -0.4940 C.2        1 <1>        0.000
      6 C23        -1.6258   -0.2376   -0.6570 C.2        1 <1>        0.000
      7 C24        -2.6057   -0.1150    0.2484 C.2        1 <1>        0.000
      8 H           1.9060    0.5694    2.3348 H.spc      1 <1>        0.000
      9 H           0.1321   -0.4110    1.5442 H.spc      1 <1>        0.000
     10 H           0.3128    0.1882   -1.4142 H.spc      1 <1>        0.000
     11 H          -1.9503   -0.5066   -1.6622 H.spc      1 <1>        0.000
     12 H          -2.3663    0.1517    1.2778 H.spc      1 <1>        0.000
     13 H          -3.6423   -0.2820   -0.0444 H.spc      1 <1>        0.000
@<TRIPOS>BOND
     1    1    2 1  
     2    2    3 2  
     3    2    4 1  
     4    4    5 2  
     5    5    6 1  
     6    6    7 2  
     7    1    8 1  
     8    4    9 1  
     9    5   10 1  
    10    6   11 1  
    11    7   12 1  
    12    7   13 1  
# Name:          frag3-123-44/31924
# Creation time: Sat Jun  5 12:52:02 2010


@<TRIPOS>MOLECULE
frag3-123-44/31924
   13    12     1     1     1
SMALL
USER_CHARGES


@<TRIPOS>ATOM
      1 O11         2.2120    0.5684    1.4781 O.3        1 <1>        0.000
      2 C20         2.0791    0.0177    0.2755 C.2        1 <1>        0.000
      3 O12         3.0562   -0.3054   -0.3820 O.2        1 <1>        0.000
      4 C21         0.7099   -0.1273   -0.2164 C.2        1 <1>        0.000
      5 C22        -0.3592    0.0577    0.5756 C.2        1 <1>        0.000
      6 C23        -1.7725    0.0231    0.3591 C.2        1 <1>        0.000
      7 C24        -2.4802   -0.3713   -0.7051 C.2        1 <1>        0.000
      8 H           1.3431    0.7539    1.8416 H.spc      1 <1>        0.000
      9 H           0.5513   -0.3946   -1.2612 H.spc      1 <1>        0.000
     10 H          -0.0913    0.2833    1.6078 H.spc      1 <1>        0.000
     11 H          -2.3709    0.3760    1.1990 H.spc      1 <1>        0.000
     12 H          -1.9682   -0.7403   -1.5938 H.spc      1 <1>        0.000
     13 H          -3.5689   -0.3237   -0.6837 H.spc      1 <1>        0.000
@<TRIPOS>BOND
     1    1    2 1  
     2    2    3 2  
     3    2    4 1  
     4    4    5 2  
     5    5    6 1  
     6    6    7 2  
     7    1    8 1  
     8    4    9 1  
     9    5   10 1  
    10    6   11 1  
    11    7   12 1  
    12    7   13 1  
# Name:          frag3-123-44/31924
# Creation time: Sat Jun  5 12:52:02 2010


@<TRIPOS>MOLECULE
frag3-123-44/31924
   13    12     1     1     1
SMALL
USER_CHARGES


@<TRIPOS>ATOM
      1 O11         2.6143    0.7206    1.4697 O.3        1 <1>        0.000
      2 C20         2.1048    0.0997    0.4112 C.2        1 <1>        0.000
      3 O12         2.7094   -0.7774   -0.1844 O.2        1 <1>        0.000
      4 C21         0.7821    0.5704   -0.0013 C.2        1 <1>        0.000
      5 C22        -0.3133   -0.1983    0.0680 C.2        1 <1>        0.000
      6 C23        -1.6631    0.0596   -0.3125 C.2        1 <1>        0.000
      7 C24        -2.7890   -0.6117   -0.0660 C.2        1 <1>        0.000
      8 H           1.9861    1.3719    1.7903 H.spc      1 <1>        0.000
      9 H           0.6839    1.5876   -0.3803 H.spc      1 <1>        0.000
     10 H          -0.1435   -1.1902    0.4868 H.spc      1 <1>        0.000
     11 H          -1.7983    0.9622   -0.9084 H.spc      1 <1>        0.000
     12 H          -2.7590   -1.5289    0.5222 H.spc      1 <1>        0.000
     13 H          -3.7391   -0.2431   -0.4528 H.spc      1 <1>        0.000
@<TRIPOS>BOND
     1    1    2 1  
     2    2    3 2  
     3    2    4 1  
     4    4    5 2  
     5    5    6 1  
     6    6    7 2  
     7    1    8 1  
     8    4    9 1  
     9    5   10 1  
    10    6   11 1  
    11    7   12 1  
    12    7   13 1  
# Name:          frag3-123-44/31924
# Creation time: Sat Jun  5 12:52:02 2010


@<TRIPOS>MOLECULE
frag3-123-44/31924
   13    12     1     1     1
SMALL
USER_CHARGES


@<TRIPOS>ATOM
      1 O11         2.8818    0.3967    1.5098 O.3        1 <1>        0.000
      2 C20         2.0792    0.1318    0.4621 C.2        1 <1>        0.000
      3 O12         2.5596   -0.0218   -0.6488 O.2        1 <1>        0.000
      4 C21         0.6522   -0.0724    0.7953 C.2        1 <1>        0.000
      5 C22        -0.3055   -0.2142   -0.1427 C.2        1 <1>        0.000
      6 C23        -1.7067   -0.3998    0.0795 C.2        1 <1>        0.000
      7 C24        -2.7154    0.0425   -0.6705 C.2        1 <1>        0.000
      8 H           2.3500    0.4885    2.3037 H.spc      1 <1>        0.000
      9 H           0.3626   -0.1098    1.8454 H.spc      1 <1>        0.000
     10 H           0.0227   -0.1843   -1.1817 H.spc      1 <1>        0.000
     11 H          -1.9814   -0.9702    0.9668 H.spc      1 <1>        0.000
     12 H          -2.5117    0.6198   -1.5723 H.spc      1 <1>        0.000
     13 H          -3.7442   -0.1730   -0.3822 H.spc      1 <1>        0.000
@<TRIPOS>BOND
     1    1    2 1  
     2    2    3 2  
     3    2    4 1  
     4    4    5 2  
     5    5    6 1  
     6    6    7 2  
     7    1    8 1  
     8    4    9 1  
     9    5   10 1  
    10    6   11 1  
    11    7   12 1  
    12    7   13 1  
# Name:          frag3-123-44/31924 -- energy: -0.633556
# Creation time: Sat Jun  5 12:52:02 2010


@<TRIPOS>MOLECULE
frag3-123-44/31924 -- energy: -0.633556
   13    12     1     1     1
SMALL
USER_CHARGES


@<TRIPOS>ATOM
      1 O11         2.5817    0.4985    1.6565 O.3        1 <1>        0.000
      2 C20         2.0307    0.0575    0.5279 C.2        1 <1>        0.000
      3 O12         2.6939   -0.1139   -0.4812 O.2        1 <1>        0.000
      4 C21         0.5835   -0.1606    0.5842 C.2        1 <1>        0.000
      5 C22        -0.2131   -0.0660   -0.4940 C.2        1 <1>        0.000
      6 C23        -1.6258   -0.2376   -0.6570 C.2        1 <1>        0.000
      7 C24        -2.6057   -0.1150    0.2484 C.2        1 <1>        0.000
      8 H           1.9060    0.5694    2.3348 H.spc      1 <1>        0.000
      9 H           0.1321   -0.4110    1.5442 H.spc      1 <1>        0.000
     10 H           0.3128    0.1882   -1.4142 H.spc      1 <1>        0.000
     11 H          -1.9503   -0.5066   -1.6622 H.spc      1 <1>        0.000
     12 H          -2.3663    0.1517    1.2778 H.spc      1 <1>        0.000
     13 H          -3.6423   -0.2820   -0.0444 H.spc      1 <1>        0.000
@<TRIPOS>BOND
     1    1    2 1  
     2    2    3 2  
     3    2    4 1  
     4    4    5 2  
     5    5    6 1  
     6    6    7 2  
     7    1    8 1  
     8    4    9 1  
     9    5   10 1  
    10    6   11 1  
    11    7   12 1  
    12    7   13 1  
# Name:          frag3-123-44/31924 -- energy: -0.628893
# Creation time: Sat Jun  5 12:52:02 2010


@<TRIPOS>MOLECULE
frag3-123-44/31924 -- energy: -0.628893
   13    12     1     1     1
SMALL
USER_CHARGES


@<TRIPOS>ATOM
      1 O11         2.6143    0.7206    1.4697 O.3        1 <1>        0.000
      2 C20         2.1048    0.0997    0.4112 C.2        1 <1>        0.000
      3 O12         2.7094   -0.7774   -0.1844 O.2        1 <1>        0.000
      4 C21         0.7821    0.5704   -0.0013 C.2        1 <1>        0.000
      5 C22        -0.3133   -0.1983    0.0680 C.2        1 <1>        0.000
      6 C23        -1.6631    0.0596   -0.3125 C.2        1 <1>        0.000
      7 C24        -2.7890   -0.6117   -0.0660 C.2        1 <1>        0.000
      8 H           1.9861    1.3719    1.7903 H.spc      1 <1>        0.000
      9 H           0.6839    1.5876   -0.3803 H.spc      1 <1>        0.000
     10 H          -0.1435   -1.1902    0.4868 H.spc      1 <1>        0.000
     11 H          -1.7983    0.9622   -0.9084 H.spc      1 <1>        0.000
     12 H          -2.7590   -1.5289    0.5222 H.spc      1 <1>        0.000
     13 H          -3.7391   -0.2431   -0.4528 H.spc      1 <1>        0.000
@<TRIPOS>BOND
     1    1    2 1  
     2    2    3 2  
     3    2    4 1  
     4    4    5 2  
     5    5    6 1  
     6    6    7 2  
     7    1    8 1  
     8    4    9 1  
     9    5   10 1  
    10    6   11 1  
    11    7   12 1  
    12    7   13 1  
# Name:          frag3-123-44/31924 -- energy: -0.578603
# Creation time: Sat Jun  5 12:52:02 2010


@<TRIPOS>MOLECULE
frag3-123-44/31924 -- energy: -0.578603
   13    12     1     1     1
SMALL
USER_CHARGES


@<TRIPOS>ATOM
      1 O11         2.8818    0.3967    1.5098 O.3        1 <1>        0.000
      2 C20         2.0792    0.1318    0.4621 C.2        1 <1>        0.000
      3 O12         2.5596   -0.0218   -0.6488 O.2        1 <1>        0.000
      4 C21         0.6522   -0.0724    0.7953 C.2        1 <1>        0.000
      5 C22        -0.3055   -0.2142   -0.1427 C.2        1 <1>        0.000
      6 C23        -1.7067   -0.3998    0.0795 C.2        1 <1>        0.000
      7 C24        -2.7154    0.0425   -0.6705 C.2        1 <1>        0.000
      8 H           2.3500    0.4885    2.3037 H.spc      1 <1>        0.000
      9 H           0.3626   -0.1098    1.8454 H.spc      1 <1>        0.000
     10 H           0.0227   -0.1843   -1.1817 H.spc      1 <1>        0.000
     11 H          -1.9814   -0.9702    0.9668 H.spc      1 <1>        0.000
     12 H          -2.5117    0.6198   -1.5723 H.spc      1 <1>        0.000
     13 H          -3.7442   -0.1730   -0.3822 H.spc      1 <1>        0.000
@<TRIPOS>BOND
     1    1    2 1  
     2    2    3 2  
     3    2    4 1  
     4    4    5 2  
     5    5    6 1  
     6    6    7 2  
     7    1    8 1  
     8    4    9 1  
     9    5   10 1  
    10    6   11 1  
    11    7   12 1  
    12    7   13 1  
