#      Rotatable Fragment
#      Build by yxyuan
#
# Name:          frag5-543-69/41815
# Creation time: Sat Jun  5 12:52:52 2010


@<TRIPOS>MOLECULE
frag5-543-69/41815
   28    29     1     1     1
SMALL
USER_CHARGES


@<TRIPOS>ATOM
      1 N2         -1.3445   -1.2412   -2.4366 N.4        1 <1>        0.000
      2 C18        -2.4772   -1.5865   -3.3288 C.3        1 <1>        0.000
      3 C19        -3.5318   -2.4313   -2.6019 C.3        1 <1>        0.000
      4 N3         -3.8964   -1.8172   -1.3407 N.pl3      1 <1>        0.000
      5 C20        -2.7889   -1.6185   -0.4337 C.3        1 <1>        0.000
      6 C21        -1.7146   -0.7408   -1.0869 C.3        1 <1>        0.000
      7 C22        -5.1123   -1.3305   -1.0353 C.ar       1 <1>        0.000
      8 C23        -5.6777   -0.2929   -1.8232 C.ar       1 <1>        0.000
      9 C24        -6.9453    0.1895   -1.4838 C.ar       1 <1>        0.000
     10 C25        -7.6492   -0.3234   -0.4007 C.ar       1 <1>        0.000
     11 C26        -7.0894   -1.3402    0.3746 C.ar       1 <1>        0.000
     12 C27        -5.8353   -1.8288    0.0563 C.ar       1 <1>        0.000
     13 O1         -4.9524    0.1943   -2.8864 O.3        1 <1>        0.000
     14 H          -0.8194   -2.1033   -2.2905 H.spc      1 <1>        0.000
     15 H          -0.8364   -0.4849   -2.8952 H.spc      1 <1>        0.000
     16 H          -2.0907   -2.1654   -4.1676 H.spc      1 <1>        0.000
     17 H          -2.9472   -0.6613   -3.6623 H.spc      1 <1>        0.000
     18 H          -4.4201   -2.5038   -3.2294 H.spc      1 <1>        0.000
     19 H          -3.1184   -3.4208   -2.4065 H.spc      1 <1>        0.000
     20 H          -2.3542   -2.5870   -0.1863 H.spc      1 <1>        0.000
     21 H          -3.1520   -1.1241    0.4673 H.spc      1 <1>        0.000
     22 H          -2.1118    0.2689   -1.1912 H.spc      1 <1>        0.000
     23 H          -0.8252   -0.7596   -0.4571 H.spc      1 <1>        0.000
     24 H          -7.3910    0.9847   -2.0813 H.spc      1 <1>        0.000
     25 H          -8.6370    0.0678   -0.1570 H.spc      1 <1>        0.000
     26 H          -7.6369   -1.7464    1.2251 H.spc      1 <1>        0.000
     27 H          -5.3999   -2.6189    0.6681 H.spc      1 <1>        0.000
     28 H          -5.4539    0.8859   -3.3243 H.spc      1 <1>        0.000
@<TRIPOS>BOND
     1    8   13 1  
     2    3    4 1  
     3   11   12 ar 
     4   10   11 ar 
     5    9   10 ar 
     6    4    5 1  
     7    1    6 1  
     8    1    2 1  
     9    4    7 1  
    10    5    6 1  
    11    7   12 ar 
    12    7    8 ar 
    13    2    3 1  
    14    8    9 ar 
    15    1   14 1  
    16    1   15 1  
    17    2   16 1  
    18    2   17 1  
    19    3   18 1  
    20    3   19 1  
    21    5   20 1  
    22    5   21 1  
    23    6   22 1  
    24    6   23 1  
    25    9   24 1  
    26   10   25 1  
    27   11   26 1  
    28   12   27 1  
    29   13   28 1  
# Name:          frag5-543-69/41815
# Creation time: Sat Jun  5 12:52:52 2010


@<TRIPOS>MOLECULE
frag5-543-69/41815
   28    29     1     1     1
SMALL
USER_CHARGES


@<TRIPOS>ATOM
      1 N2         -1.4738   -1.6292   -2.7861 N.4        1 <1>        0.000
      2 C18        -2.6198   -2.5352   -3.0291 C.3        1 <1>        0.000
      3 C19        -3.3762   -2.8526   -1.7323 C.3        1 <1>        0.000
      4 N3         -3.7856   -1.5995   -1.1384 N.pl3      1 <1>        0.000
      5 C20        -2.7429   -0.6422   -0.8231 C.3        1 <1>        0.000
      6 C21        -1.8536   -0.3967   -2.0497 C.3        1 <1>        0.000
      7 C22        -5.0798   -1.2657   -0.9917 C.ar       1 <1>        0.000
      8 C23        -5.5122    0.0399   -1.3441 C.ar       1 <1>        0.000
      9 C24        -6.8610    0.3648   -1.1829 C.ar       1 <1>        0.000
     10 C25        -7.7721   -0.5603   -0.6856 C.ar       1 <1>        0.000
     11 C26        -7.3431   -1.8423   -0.3369 C.ar       1 <1>        0.000
     12 C27        -6.0109   -2.1820   -0.4912 C.ar       1 <1>        0.000
     13 O1         -4.5838    0.9333   -1.8360 O.3        1 <1>        0.000
     14 H          -0.7942   -2.1339   -2.2171 H.spc      1 <1>        0.000
     15 H          -1.1032   -1.3470   -3.6935 H.spc      1 <1>        0.000
     16 H          -2.2382   -3.4691   -3.4418 H.spc      1 <1>        0.000
     17 H          -3.3076   -2.0427   -3.7164 H.spc      1 <1>        0.000
     18 H          -4.2476   -3.4718   -1.9455 H.spc      1 <1>        0.000
     19 H          -2.7335   -3.4036   -1.0457 H.spc      1 <1>        0.000
     20 H          -2.1299   -1.0386   -0.0137 H.spc      1 <1>        0.000
     21 H          -3.2038    0.2993   -0.5245 H.spc      1 <1>        0.000
     22 H          -2.4234    0.2261   -2.7393 H.spc      1 <1>        0.000
     23 H          -0.9310    0.0594   -1.6907 H.spc      1 <1>        0.000
     24 H          -7.2061    1.3630   -1.4522 H.spc      1 <1>        0.000
     25 H          -8.8202   -0.2849   -0.5681 H.spc      1 <1>        0.000
     26 H          -8.0532   -2.5708    0.0544 H.spc      1 <1>        0.000
     27 H          -5.6801   -3.1838   -0.2173 H.spc      1 <1>        0.000
     28 H          -5.0161    1.7683   -2.0295 H.spc      1 <1>        0.000
@<TRIPOS>BOND
     1    8   13 1  
     2    3    4 1  
     3   11   12 ar 
     4   10   11 ar 
     5    9   10 ar 
     6    4    5 1  
     7    1    6 1  
     8    1    2 1  
     9    4    7 1  
    10    5    6 1  
    11    7   12 ar 
    12    7    8 ar 
    13    2    3 1  
    14    8    9 ar 
    15    1   14 1  
    16    1   15 1  
    17    2   16 1  
    18    2   17 1  
    19    3   18 1  
    20    3   19 1  
    21    5   20 1  
    22    5   21 1  
    23    6   22 1  
    24    6   23 1  
    25    9   24 1  
    26   10   25 1  
    27   11   26 1  
    28   12   27 1  
    29   13   28 1  
# Name:          frag5-543-69/41815
# Creation time: Sat Jun  5 12:52:52 2010


@<TRIPOS>MOLECULE
frag5-543-69/41815
   28    29     1     1     1
SMALL
USER_CHARGES


@<TRIPOS>ATOM
      1 N2         -1.2580   -2.2364   -1.8161 N.4        1 <1>        0.000
      2 C18        -1.5666   -1.0679   -0.9562 C.3        1 <1>        0.000
      3 C19        -2.7425   -0.2136   -1.4662 C.3        1 <1>        0.000
      4 N3         -3.8419   -1.0704   -1.8731 N.pl3      1 <1>        0.000
      5 C20        -3.5362   -2.1165   -2.8269 C.3        1 <1>        0.000
      6 C21        -2.4607   -3.0185   -2.2016 C.3        1 <1>        0.000
      7 C22        -5.0696   -0.9924   -1.3273 C.ar       1 <1>        0.000
      8 C23        -5.9348    0.0534   -1.7224 C.ar       1 <1>        0.000
      9 C24        -7.2123    0.1205   -1.1561 C.ar       1 <1>        0.000
     10 C25        -7.6320   -0.8180   -0.2175 C.ar       1 <1>        0.000
     11 C26        -6.7722   -1.8477    0.1724 C.ar       1 <1>        0.000
     12 C27        -5.5030   -1.9282   -0.3808 C.ar       1 <1>        0.000
     13 O1         -5.4850    0.9680   -2.6552 O.3        1 <1>        0.000
     14 H          -0.8326   -1.8837   -2.6734 H.spc      1 <1>        0.000
     15 H          -0.6454   -2.8557   -1.2854 H.spc      1 <1>        0.000
     16 H          -0.6826   -0.4303   -0.9449 H.spc      1 <1>        0.000
     17 H          -1.8453   -1.4514    0.0253 H.spc      1 <1>        0.000
     18 H          -3.0796    0.4452   -0.6659 H.spc      1 <1>        0.000
     19 H          -2.4122    0.3753   -2.3219 H.spc      1 <1>        0.000
     20 H          -3.1740   -1.6852   -3.7601 H.spc      1 <1>        0.000
     21 H          -4.4312   -2.6953   -3.0551 H.spc      1 <1>        0.000
     22 H          -2.8745   -3.4826   -1.3063 H.spc      1 <1>        0.000
     23 H          -2.1664   -3.7681   -2.9362 H.spc      1 <1>        0.000
     24 H          -7.8899    0.9204   -1.4546 H.spc      1 <1>        0.000
     25 H          -8.6310   -0.7494    0.2130 H.spc      1 <1>        0.000
     26 H          -7.0971   -2.5840    0.9075 H.spc      1 <1>        0.000
     27 H          -4.8333   -2.7317   -0.0742 H.spc      1 <1>        0.000
     28 H          -6.1735    1.6151   -2.8251 H.spc      1 <1>        0.000
@<TRIPOS>BOND
     1    8   13 1  
     2    3    4 1  
     3   11   12 ar 
     4   10   11 ar 
     5    9   10 ar 
     6    4    5 1  
     7    1    6 1  
     8    1    2 1  
     9    4    7 1  
    10    5    6 1  
    11    7   12 ar 
    12    7    8 ar 
    13    2    3 1  
    14    8    9 ar 
    15    1   14 1  
    16    1   15 1  
    17    2   16 1  
    18    2   17 1  
    19    3   18 1  
    20    3   19 1  
    21    5   20 1  
    22    5   21 1  
    23    6   22 1  
    24    6   23 1  
    25    9   24 1  
    26   10   25 1  
    27   11   26 1  
    28   12   27 1  
    29   13   28 1  
# Name:          frag5-543-69/41815 -- energy: -3.425644
# Creation time: Sat Jun  5 12:52:52 2010


@<TRIPOS>MOLECULE
frag5-543-69/41815 -- energy: -3.425644
   28    29     1     1     1
SMALL
USER_CHARGES


@<TRIPOS>ATOM
      1 N2         -1.3445   -1.2412   -2.4366 N.4        1 <1>        0.000
      2 C18        -2.4772   -1.5865   -3.3288 C.3        1 <1>        0.000
      3 C19        -3.5318   -2.4313   -2.6019 C.3        1 <1>        0.000
      4 N3         -3.8964   -1.8172   -1.3407 N.pl3      1 <1>        0.000
      5 C20        -2.7889   -1.6185   -0.4337 C.3        1 <1>        0.000
      6 C21        -1.7146   -0.7408   -1.0869 C.3        1 <1>        0.000
      7 C22        -5.1123   -1.3305   -1.0353 C.ar       1 <1>        0.000
      8 C23        -5.6777   -0.2929   -1.8232 C.ar       1 <1>        0.000
      9 C24        -6.9453    0.1895   -1.4838 C.ar       1 <1>        0.000
     10 C25        -7.6492   -0.3234   -0.4007 C.ar       1 <1>        0.000
     11 C26        -7.0894   -1.3402    0.3746 C.ar       1 <1>        0.000
     12 C27        -5.8353   -1.8288    0.0563 C.ar       1 <1>        0.000
     13 O1         -4.9524    0.1943   -2.8864 O.3        1 <1>        0.000
     14 H          -0.8194   -2.1033   -2.2905 H.spc      1 <1>        0.000
     15 H          -0.8364   -0.4849   -2.8952 H.spc      1 <1>        0.000
     16 H          -2.0907   -2.1654   -4.1676 H.spc      1 <1>        0.000
     17 H          -2.9472   -0.6613   -3.6623 H.spc      1 <1>        0.000
     18 H          -4.4201   -2.5038   -3.2294 H.spc      1 <1>        0.000
     19 H          -3.1184   -3.4208   -2.4065 H.spc      1 <1>        0.000
     20 H          -2.3542   -2.5870   -0.1863 H.spc      1 <1>        0.000
     21 H          -3.1520   -1.1241    0.4673 H.spc      1 <1>        0.000
     22 H          -2.1118    0.2689   -1.1912 H.spc      1 <1>        0.000
     23 H          -0.8252   -0.7596   -0.4571 H.spc      1 <1>        0.000
     24 H          -7.3910    0.9847   -2.0813 H.spc      1 <1>        0.000
     25 H          -8.6370    0.0678   -0.1570 H.spc      1 <1>        0.000
     26 H          -7.6369   -1.7464    1.2251 H.spc      1 <1>        0.000
     27 H          -5.3999   -2.6189    0.6681 H.spc      1 <1>        0.000
     28 H          -5.4539    0.8859   -3.3243 H.spc      1 <1>        0.000
@<TRIPOS>BOND
     1    8   13 1  
     2    3    4 1  
     3   11   12 ar 
     4   10   11 ar 
     5    9   10 ar 
     6    4    5 1  
     7    1    6 1  
     8    1    2 1  
     9    4    7 1  
    10    5    6 1  
    11    7   12 ar 
    12    7    8 ar 
    13    2    3 1  
    14    8    9 ar 
    15    1   14 1  
    16    1   15 1  
    17    2   16 1  
    18    2   17 1  
    19    3   18 1  
    20    3   19 1  
    21    5   20 1  
    22    5   21 1  
    23    6   22 1  
    24    6   23 1  
    25    9   24 1  
    26   10   25 1  
    27   11   26 1  
    28   12   27 1  
    29   13   28 1  
# Name:          frag5-543-69/41815 -- energy: -0.609975
# Creation time: Sat Jun  5 12:52:52 2010


@<TRIPOS>MOLECULE
frag5-543-69/41815 -- energy: -0.609975
   28    29     1     1     1
SMALL
USER_CHARGES


@<TRIPOS>ATOM
      1 N2         -1.4738   -1.6292   -2.7861 N.4        1 <1>        0.000
      2 C18        -2.6198   -2.5352   -3.0291 C.3        1 <1>        0.000
      3 C19        -3.3762   -2.8526   -1.7323 C.3        1 <1>        0.000
      4 N3         -3.7856   -1.5995   -1.1384 N.pl3      1 <1>        0.000
      5 C20        -2.7429   -0.6422   -0.8231 C.3        1 <1>        0.000
      6 C21        -1.8536   -0.3967   -2.0497 C.3        1 <1>        0.000
      7 C22        -5.0798   -1.2657   -0.9917 C.ar       1 <1>        0.000
      8 C23        -5.5122    0.0399   -1.3441 C.ar       1 <1>        0.000
      9 C24        -6.8610    0.3648   -1.1829 C.ar       1 <1>        0.000
     10 C25        -7.7721   -0.5603   -0.6856 C.ar       1 <1>        0.000
     11 C26        -7.3431   -1.8423   -0.3369 C.ar       1 <1>        0.000
     12 C27        -6.0109   -2.1820   -0.4912 C.ar       1 <1>        0.000
     13 O1         -4.5838    0.9333   -1.8360 O.3        1 <1>        0.000
     14 H          -0.7942   -2.1339   -2.2171 H.spc      1 <1>        0.000
     15 H          -1.1032   -1.3470   -3.6935 H.spc      1 <1>        0.000
     16 H          -2.2382   -3.4691   -3.4418 H.spc      1 <1>        0.000
     17 H          -3.3076   -2.0427   -3.7164 H.spc      1 <1>        0.000
     18 H          -4.2476   -3.4718   -1.9455 H.spc      1 <1>        0.000
     19 H          -2.7335   -3.4036   -1.0457 H.spc      1 <1>        0.000
     20 H          -2.1299   -1.0386   -0.0137 H.spc      1 <1>        0.000
     21 H          -3.2038    0.2993   -0.5245 H.spc      1 <1>        0.000
     22 H          -2.4234    0.2261   -2.7393 H.spc      1 <1>        0.000
     23 H          -0.9310    0.0594   -1.6907 H.spc      1 <1>        0.000
     24 H          -7.2061    1.3630   -1.4522 H.spc      1 <1>        0.000
     25 H          -8.8202   -0.2849   -0.5681 H.spc      1 <1>        0.000
     26 H          -8.0532   -2.5708    0.0544 H.spc      1 <1>        0.000
     27 H          -5.6801   -3.1838   -0.2173 H.spc      1 <1>        0.000
     28 H          -5.0161    1.7683   -2.0295 H.spc      1 <1>        0.000
@<TRIPOS>BOND
     1    8   13 1  
     2    3    4 1  
     3   11   12 ar 
     4   10   11 ar 
     5    9   10 ar 
     6    4    5 1  
     7    1    6 1  
     8    1    2 1  
     9    4    7 1  
    10    5    6 1  
    11    7   12 ar 
    12    7    8 ar 
    13    2    3 1  
    14    8    9 ar 
    15    1   14 1  
    16    1   15 1  
    17    2   16 1  
    18    2   17 1  
    19    3   18 1  
    20    3   19 1  
    21    5   20 1  
    22    5   21 1  
    23    6   22 1  
    24    6   23 1  
    25    9   24 1  
    26   10   25 1  
    27   11   26 1  
    28   12   27 1  
    29   13   28 1  
# Name:          frag5-543-69/41815 -- energy: -3.502903
# Creation time: Sat Jun  5 12:52:52 2010


@<TRIPOS>MOLECULE
frag5-543-69/41815 -- energy: -3.502903
   28    29     1     1     1
SMALL
USER_CHARGES


@<TRIPOS>ATOM
      1 N2         -1.2580   -2.2364   -1.8161 N.4        1 <1>        0.000
      2 C18        -1.5666   -1.0679   -0.9562 C.3        1 <1>        0.000
      3 C19        -2.7425   -0.2136   -1.4662 C.3        1 <1>        0.000
      4 N3         -3.8419   -1.0704   -1.8731 N.pl3      1 <1>        0.000
      5 C20        -3.5362   -2.1165   -2.8269 C.3        1 <1>        0.000
      6 C21        -2.4607   -3.0185   -2.2016 C.3        1 <1>        0.000
      7 C22        -5.0696   -0.9924   -1.3273 C.ar       1 <1>        0.000
      8 C23        -5.9348    0.0534   -1.7224 C.ar       1 <1>        0.000
      9 C24        -7.2123    0.1205   -1.1561 C.ar       1 <1>        0.000
     10 C25        -7.6320   -0.8180   -0.2175 C.ar       1 <1>        0.000
     11 C26        -6.7722   -1.8477    0.1724 C.ar       1 <1>        0.000
     12 C27        -5.5030   -1.9282   -0.3808 C.ar       1 <1>        0.000
     13 O1         -5.4850    0.9680   -2.6552 O.3        1 <1>        0.000
     14 H          -0.8326   -1.8837   -2.6734 H.spc      1 <1>        0.000
     15 H          -0.6454   -2.8557   -1.2854 H.spc      1 <1>        0.000
     16 H          -0.6826   -0.4303   -0.9449 H.spc      1 <1>        0.000
     17 H          -1.8453   -1.4514    0.0253 H.spc      1 <1>        0.000
     18 H          -3.0796    0.4452   -0.6659 H.spc      1 <1>        0.000
     19 H          -2.4122    0.3753   -2.3219 H.spc      1 <1>        0.000
     20 H          -3.1740   -1.6852   -3.7601 H.spc      1 <1>        0.000
     21 H          -4.4312   -2.6953   -3.0551 H.spc      1 <1>        0.000
     22 H          -2.8745   -3.4826   -1.3063 H.spc      1 <1>        0.000
     23 H          -2.1664   -3.7681   -2.9362 H.spc      1 <1>        0.000
     24 H          -7.8899    0.9204   -1.4546 H.spc      1 <1>        0.000
     25 H          -8.6310   -0.7494    0.2130 H.spc      1 <1>        0.000
     26 H          -7.0971   -2.5840    0.9075 H.spc      1 <1>        0.000
     27 H          -4.8333   -2.7317   -0.0742 H.spc      1 <1>        0.000
     28 H          -6.1735    1.6151   -2.8251 H.spc      1 <1>        0.000
@<TRIPOS>BOND
     1    8   13 1  
     2    3    4 1  
     3   11   12 ar 
     4   10   11 ar 
     5    9   10 ar 
     6    4    5 1  
     7    1    6 1  
     8    1    2 1  
     9    4    7 1  
    10    5    6 1  
    11    7   12 ar 
    12    7    8 ar 
    13    2    3 1  
    14    8    9 ar 
    15    1   14 1  
    16    1   15 1  
    17    2   16 1  
    18    2   17 1  
    19    3   18 1  
    20    3   19 1  
    21    5   20 1  
    22    5   21 1  
    23    6   22 1  
    24    6   23 1  
    25    9   24 1  
    26   10   25 1  
    27   11   26 1  
    28   12   27 1  
    29   13   28 1  
