#      Rotatable Fragment
#      Build by yxyuan
#
# Name:          frag3-276-2/31924
# Creation time: Sat Jun  5 12:52:44 2010


@<TRIPOS>MOLECULE
frag3-276-2/31924
   18    17     1     1     1
SMALL
USER_CHARGES


@<TRIPOS>ATOM
      1 C8         -8.0778    1.7456    3.7420 C.2        1 <1>        0.000
      2 C9         -7.1487    2.6808    3.8351 C.2        1 <1>        0.000
      3 N2         -5.9388    2.5529    3.3032 N.am       1 <1>        0.000
      4 C10        -5.1277    1.5216    3.1330 C.2        1 <1>        0.000
      5 O4         -5.3041    0.3024    3.3601 O.2        1 <1>        0.000
      6 C11        -3.7571    1.9110    2.7122 C.2        1 <1>        0.000
      7 C12        -3.1768    2.9732    2.1454 C.2        1 <1>        0.000
      8 C14        -2.1877    2.5246    1.1031 C.2        1 <1>        0.000
      9 C15        -0.9379    2.4078    1.5428 C.2        1 <1>        0.000
     10 H          -7.8662    0.8182    3.2097 H.spc      1 <1>        0.000
     11 H          -9.0557    1.9016    4.1975 H.spc      1 <1>        0.000
     12 H          -7.3863    3.5987    4.3728 H.spc      1 <1>        0.000
     13 H          -5.5555    3.4311    2.9536 H.spc      1 <1>        0.000
     14 H          -3.0341    1.1224    2.9207 H.spc      1 <1>        0.000
     15 H          -3.3886    4.0116    2.4004 H.spc      1 <1>        0.000
     16 H          -2.4724    2.3128    0.0725 H.spc      1 <1>        0.000
     17 H          -0.7032    2.6313    2.5835 H.spc      1 <1>        0.000
     18 H          -0.1484    2.0886    0.8625 H.spc      1 <1>        0.000
@<TRIPOS>BOND
     1    8    9 2  
     2    6    7 2  
     3    7    8 1  
     4    4    6 1  
     5    1    2 2  
     6    2    3 1  
     7    3    4 am 
     8    4    5 2  
     9    1   10 1  
    10    1   11 1  
    11    2   12 1  
    12    3   13 1  
    13    6   14 1  
    14    7   15 1  
    15    8   16 1  
    16    9   17 1  
    17    9   18 1  
# Name:          frag3-276-2/31924 -- energy: -1.319252
# Creation time: Sat Jun  5 12:52:44 2010


@<TRIPOS>MOLECULE
frag3-276-2/31924 -- energy: -1.319252
   18    17     1     1     1
SMALL
USER_CHARGES


@<TRIPOS>ATOM
      1 C8         -8.0778    1.7456    3.7420 C.2        1 <1>        0.000
      2 C9         -7.1487    2.6808    3.8351 C.2        1 <1>        0.000
      3 N2         -5.9388    2.5529    3.3032 N.am       1 <1>        0.000
      4 C10        -5.1277    1.5216    3.1330 C.2        1 <1>        0.000
      5 O4         -5.3041    0.3024    3.3601 O.2        1 <1>        0.000
      6 C11        -3.7571    1.9110    2.7122 C.2        1 <1>        0.000
      7 C12        -3.1768    2.9732    2.1454 C.2        1 <1>        0.000
      8 C14        -2.1877    2.5246    1.1031 C.2        1 <1>        0.000
      9 C15        -0.9379    2.4078    1.5428 C.2        1 <1>        0.000
     10 H          -7.8662    0.8182    3.2097 H.spc      1 <1>        0.000
     11 H          -9.0557    1.9016    4.1975 H.spc      1 <1>        0.000
     12 H          -7.3863    3.5987    4.3728 H.spc      1 <1>        0.000
     13 H          -5.5555    3.4311    2.9536 H.spc      1 <1>        0.000
     14 H          -3.0341    1.1224    2.9207 H.spc      1 <1>        0.000
     15 H          -3.3886    4.0116    2.4004 H.spc      1 <1>        0.000
     16 H          -2.4724    2.3128    0.0725 H.spc      1 <1>        0.000
     17 H          -0.7032    2.6313    2.5835 H.spc      1 <1>        0.000
     18 H          -0.1484    2.0886    0.8625 H.spc      1 <1>        0.000
@<TRIPOS>BOND
     1    8    9 2  
     2    6    7 2  
     3    7    8 1  
     4    4    6 1  
     5    1    2 2  
     6    2    3 1  
     7    3    4 am 
     8    4    5 2  
     9    1   10 1  
    10    1   11 1  
    11    2   12 1  
    12    3   13 1  
    13    6   14 1  
    14    7   15 1  
    15    8   16 1  
    16    9   17 1  
    17    9   18 1  
