#      Rotatable Fragment
#      Build by yxyuan
#
# Name:          frag4-434-47/48856
# Creation time: Sat Jun  5 12:52:47 2010


@<TRIPOS>MOLECULE
frag4-434-47/48856
   21    23     1     1     1
SMALL
USER_CHARGES


@<TRIPOS>ATOM
      1 O1         -2.7640   -1.4372   -0.6798 O.3        1 <1>        0.000
      2 C1         -1.5508   -0.9339   -0.4610 C.2        1 <1>        0.000
      3 C2         -1.6732    0.3597    0.1658 C.2        1 <1>        0.000
      4 C3         -0.4749    1.0785    0.5135 C.2        1 <1>        0.000
      5 C4          0.7749    0.6213    0.2947 C.2        1 <1>        0.000
      6 C5          0.8563   -0.7572   -0.3948 C.2        1 <1>        0.000
      7 C6         -0.3935   -1.4928   -0.7409 C.2        1 <1>        0.000
      8 O3          2.0179   -1.2647   -0.6619 O.3        1 <1>        0.000
      9 C7          3.2166   -0.7112   -0.3832 C.3        1 <1>        0.000
     10 C8          3.1984    0.6031    0.2963 C.2        1 <1>        0.000
     11 C9          2.0486    1.2267    0.6128 C.2        1 <1>        0.000
     12 C15        -2.9854    0.6561    0.3228 C.2        1 <1>        0.000
     13 C16        -3.6141   -0.5690   -0.2394 C.2        1 <1>        0.000
     14 H          -0.5851    2.0555    0.9841 H.spc      1 <1>        0.000
     15 H          -0.3491   -2.4729   -1.2158 H.spc      1 <1>        0.000
     16 H           3.7125   -1.3977    0.3030 H.spc      1 <1>        0.000
     17 H           3.7023   -0.5458   -1.3449 H.spc      1 <1>        0.000
     18 H           4.1452    1.0808    0.5482 H.spc      1 <1>        0.000
     19 H           2.0779    2.1950    1.1125 H.spc      1 <1>        0.000
     20 H          -3.4518    1.5464    0.7446 H.spc      1 <1>        0.000
     21 H          -4.6929   -0.7207   -0.2766 H.spc      1 <1>        0.000
@<TRIPOS>BOND
     1    3   12 2  
     2    9   10 1  
     3   12   13 1  
     4    5   11 1  
     5    8    9 1  
     6    6    8 2  
     7    4    5 2  
     8    5    6 1  
     9    6    7 1  
    10   10   11 2  
    11    1    2 1  
    12    1   13 2  
    13    2    3 1  
    14    2    7 2  
    15    3    4 1  
    16    4   14 1  
    17    7   15 1  
    18    9   16 1  
    19    9   17 1  
    20   10   18 1  
    21   11   19 1  
    22   12   20 1  
    23   13   21 1  
# Name:          frag4-434-47/48856 -- energy: -1.410489
# Creation time: Sat Jun  5 12:52:47 2010


@<TRIPOS>MOLECULE
frag4-434-47/48856 -- energy: -1.410489
   21    23     1     1     1
SMALL
USER_CHARGES


@<TRIPOS>ATOM
      1 O1         -2.7640   -1.4372   -0.6798 O.3        1 <1>        0.000
      2 C1         -1.5508   -0.9339   -0.4610 C.2        1 <1>        0.000
      3 C2         -1.6732    0.3597    0.1658 C.2        1 <1>        0.000
      4 C3         -0.4749    1.0785    0.5135 C.2        1 <1>        0.000
      5 C4          0.7749    0.6213    0.2947 C.2        1 <1>        0.000
      6 C5          0.8563   -0.7572   -0.3948 C.2        1 <1>        0.000
      7 C6         -0.3935   -1.4928   -0.7409 C.2        1 <1>        0.000
      8 O3          2.0179   -1.2647   -0.6619 O.3        1 <1>        0.000
      9 C7          3.2166   -0.7112   -0.3832 C.3        1 <1>        0.000
     10 C8          3.1984    0.6031    0.2963 C.2        1 <1>        0.000
     11 C9          2.0486    1.2267    0.6128 C.2        1 <1>        0.000
     12 C15        -2.9854    0.6561    0.3228 C.2        1 <1>        0.000
     13 C16        -3.6141   -0.5690   -0.2394 C.2        1 <1>        0.000
     14 H          -0.5851    2.0555    0.9841 H.spc      1 <1>        0.000
     15 H          -0.3491   -2.4729   -1.2158 H.spc      1 <1>        0.000
     16 H           3.7125   -1.3977    0.3030 H.spc      1 <1>        0.000
     17 H           3.7023   -0.5458   -1.3449 H.spc      1 <1>        0.000
     18 H           4.1452    1.0808    0.5482 H.spc      1 <1>        0.000
     19 H           2.0779    2.1950    1.1125 H.spc      1 <1>        0.000
     20 H          -3.4518    1.5464    0.7446 H.spc      1 <1>        0.000
     21 H          -4.6929   -0.7207   -0.2766 H.spc      1 <1>        0.000
@<TRIPOS>BOND
     1    3   12 2  
     2    9   10 1  
     3   12   13 1  
     4    5   11 1  
     5    8    9 1  
     6    6    8 2  
     7    4    5 2  
     8    5    6 1  
     9    6    7 1  
    10   10   11 2  
    11    1    2 1  
    12    1   13 2  
    13    2    3 1  
    14    2    7 2  
    15    3    4 1  
    16    4   14 1  
    17    7   15 1  
    18    9   16 1  
    19    9   17 1  
    20   10   18 1  
    21   11   19 1  
    22   12   20 1  
    23   13   21 1  
