#      Rotatable Fragment
#      Build by yxyuan
#
# Name:          frag3-101-373/96164
# Creation time: Sat Jun  5 12:52:51 2010


@<TRIPOS>MOLECULE
frag3-101-373/96164
    5     4     1     1     1
SMALL
USER_CHARGES


@<TRIPOS>ATOM
      1 S1          1.0171   -0.6714   -0.1286 S.3        1 <1>        0.000
      2 C13        -0.5527   -0.0196   -0.0997 C.2        1 <1>        0.000
      3 O5         -1.1226    0.4398    0.8753 O.2        1 <1>        0.000
      4 H           1.3053   -1.0749   -1.3627 H.spc      1 <1>        0.000
      5 H          -1.1014   -0.0116   -1.0415 H.spc      1 <1>        0.000
@<TRIPOS>BOND
     1    1    2 1  
     2    2    3 2  
     3    1    4 1  
     4    2    5 1  
# Name:          frag3-101-373/96164 -- energy: -0.027980
# Creation time: Sat Jun  5 12:52:51 2010


@<TRIPOS>MOLECULE
frag3-101-373/96164 -- energy: -0.027980
    5     4     1     1     1
SMALL
USER_CHARGES


@<TRIPOS>ATOM
      1 S1          1.0171   -0.6714   -0.1286 S.3        1 <1>        0.000
      2 C13        -0.5527   -0.0196   -0.0997 C.2        1 <1>        0.000
      3 O5         -1.1226    0.4398    0.8753 O.2        1 <1>        0.000
      4 H           1.3053   -1.0749   -1.3627 H.spc      1 <1>        0.000
      5 H          -1.1014   -0.0116   -1.0415 H.spc      1 <1>        0.000
@<TRIPOS>BOND
     1    1    2 1  
     2    2    3 2  
     3    1    4 1  
     4    2    5 1  
