#      Rotatable Fragment
#      Build by yxyuan
#
# Name:          frag3-268-3/96164
# Creation time: Sat Jun  5 12:53:22 2010


@<TRIPOS>MOLECULE
frag3-268-3/96164
   10     9     1     1     1
SMALL
USER_CHARGES


@<TRIPOS>ATOM
      1 N1          1.2299   -0.3225    0.1061 N.am       1 <1>        0.000
      2 C1          1.8884    0.7847    0.4521 C.2        1 <1>        0.000
      3 O1          1.4270   -1.2233   -0.9133 O.3        1 <1>        0.000
      4 O2          1.5951    1.7953    1.0612 O.2        1 <1>        0.000
      5 C5          2.0685   -0.7896   -2.0273 C.2        1 <1>        0.000
      6 O3          2.4739   -1.8354   -2.7405 O.3        1 <1>        0.000
      7 O4          2.3320    0.3565   -2.3412 O.2        1 <1>        0.000
      8 H           0.4354   -0.5404    0.7075 H.spc      1 <1>        0.000
      9 H           2.9239    0.7831    0.1117 H.spc      1 <1>        0.000
     10 H           2.1633   -2.6437   -2.3260 H.spc      1 <1>        0.000
@<TRIPOS>BOND
     1    1    2 am 
     2    1    3 1  
     3    2    4 2  
     4    3    5 1  
     5    5    6 1  
     6    5    7 2  
     7    1    8 1  
     8    2    9 1  
     9    6   10 1  
# Name:          frag3-268-3/96164
# Creation time: Sat Jun  5 12:53:22 2010


@<TRIPOS>MOLECULE
frag3-268-3/96164
   10     9     1     1     1
SMALL
USER_CHARGES


@<TRIPOS>ATOM
      1 N1          0.9779    0.2116   -0.3229 N.am       1 <1>        0.000
      2 C1          1.3355    1.0868    0.6081 C.2        1 <1>        0.000
      3 O1          1.6675   -0.8640   -0.8337 O.3        1 <1>        0.000
      4 O2          2.2099    0.9759    1.4558 O.2        1 <1>        0.000
      5 C5          2.0948   -0.8111   -2.1065 C.2        1 <1>        0.000
      6 O3          2.8633   -1.8811   -2.2828 O.3        1 <1>        0.000
      7 O4          1.8659    0.0476   -2.9210 O.2        1 <1>        0.000
      8 H           0.0502    0.3586   -0.7206 H.spc      1 <1>        0.000
      9 H           0.7790    2.0240    0.6187 H.spc      1 <1>        0.000
     10 H           2.8751   -2.4016   -1.4762 H.spc      1 <1>        0.000
@<TRIPOS>BOND
     1    1    2 am 
     2    1    3 1  
     3    2    4 2  
     4    3    5 1  
     5    5    6 1  
     6    5    7 2  
     7    1    8 1  
     8    2    9 1  
     9    6   10 1  
# Name:          frag3-268-3/96164 -- energy: -0.186249
# Creation time: Sat Jun  5 12:53:22 2010


@<TRIPOS>MOLECULE
frag3-268-3/96164 -- energy: -0.186249
   10     9     1     1     1
SMALL
USER_CHARGES


@<TRIPOS>ATOM
      1 N1          1.2299   -0.3225    0.1061 N.am       1 <1>        0.000
      2 C1          1.8884    0.7847    0.4521 C.2        1 <1>        0.000
      3 O1          1.4270   -1.2233   -0.9133 O.3        1 <1>        0.000
      4 O2          1.5951    1.7953    1.0612 O.2        1 <1>        0.000
      5 C5          2.0685   -0.7896   -2.0273 C.2        1 <1>        0.000
      6 O3          2.4739   -1.8354   -2.7405 O.3        1 <1>        0.000
      7 O4          2.3320    0.3565   -2.3412 O.2        1 <1>        0.000
      8 H           0.4354   -0.5404    0.7075 H.spc      1 <1>        0.000
      9 H           2.9239    0.7831    0.1117 H.spc      1 <1>        0.000
     10 H           2.1633   -2.6437   -2.3260 H.spc      1 <1>        0.000
@<TRIPOS>BOND
     1    1    2 am 
     2    1    3 1  
     3    2    4 2  
     4    3    5 1  
     5    5    6 1  
     6    5    7 2  
     7    1    8 1  
     8    2    9 1  
     9    6   10 1  
# Name:          frag3-268-3/96164 -- energy: -0.003519
# Creation time: Sat Jun  5 12:53:22 2010


@<TRIPOS>MOLECULE
frag3-268-3/96164 -- energy: -0.003519
   10     9     1     1     1
SMALL
USER_CHARGES


@<TRIPOS>ATOM
      1 N1          0.9779    0.2116   -0.3229 N.am       1 <1>        0.000
      2 C1          1.3355    1.0868    0.6081 C.2        1 <1>        0.000
      3 O1          1.6675   -0.8640   -0.8337 O.3        1 <1>        0.000
      4 O2          2.2099    0.9759    1.4558 O.2        1 <1>        0.000
      5 C5          2.0948   -0.8111   -2.1065 C.2        1 <1>        0.000
      6 O3          2.8633   -1.8811   -2.2828 O.3        1 <1>        0.000
      7 O4          1.8659    0.0476   -2.9210 O.2        1 <1>        0.000
      8 H           0.0502    0.3586   -0.7206 H.spc      1 <1>        0.000
      9 H           0.7790    2.0240    0.6187 H.spc      1 <1>        0.000
     10 H           2.8751   -2.4016   -1.4762 H.spc      1 <1>        0.000
@<TRIPOS>BOND
     1    1    2 am 
     2    1    3 1  
     3    2    4 2  
     4    3    5 1  
     5    5    6 1  
     6    5    7 2  
     7    1    8 1  
     8    2    9 1  
     9    6   10 1  
