#      Rotatable Fragment
#      Build by yxyuan
#
# Name:          frag4-420-146/150395
# Creation time: Sat Jun  5 12:53:35 2010


@<TRIPOS>MOLECULE
frag4-420-146/150395
   22    24     1     1     1
SMALL
USER_CHARGES


@<TRIPOS>ATOM
      1 C1         -0.0156    0.0450    0.0161 C.ar       1 <1>        0.000
      2 C2          1.4681    0.2438   -0.0175 C.ar       1 <1>        0.000
      3 C3         -0.7925    1.1830   -0.0154 C.ar       1 <1>        0.000
      4 C4         -0.6171   -1.3252    0.0783 C.ar       1 <1>        0.000
      5 C5          1.8981    1.4913   -0.0521 C.ar       1 <1>        0.000
      6 C6          2.3011   -0.9567   -0.0237 C.ar       1 <1>        0.000
      7 C7         -0.1338    2.4581   -0.0502 C.ar       1 <1>        0.000
      8 C8         -2.2538    0.9122   -0.0196 C.3        1 <1>        0.000
      9 C9          0.2848   -2.3358    0.0875 C.ar       1 <1>        0.000
     10 C10        -2.0381   -1.5084    0.0740 C.2        1 <1>        0.000
     11 N1          1.1168    2.6043   -0.0602 N.ar       1 <1>        0.000
     12 C11         1.7127   -2.1727    0.0149 C.ar       1 <1>        0.000
     13 C12        -2.8432   -0.4365    0.0051 C.2        1 <1>        0.000
     14 H           2.9772    1.6431   -0.0764 H.spc      1 <1>        0.000
     15 H           3.3872   -0.8722   -0.0591 H.spc      1 <1>        0.000
     16 H          -0.7540    3.3542   -0.0691 H.spc      1 <1>        0.000
     17 H          -2.5649    1.2917   -0.9929 H.spc      1 <1>        0.000
     18 H          -2.5780    1.3327    0.9323 H.spc      1 <1>        0.000
     19 H          -0.1015   -3.3528    0.1552 H.spc      1 <1>        0.000
     20 H          -2.4624   -2.5111    0.1263 H.spc      1 <1>        0.000
     21 H           2.3424   -3.0620   -0.0099 H.spc      1 <1>        0.000
     22 H          -3.9251   -0.5638   -0.0323 H.spc      1 <1>        0.000
@<TRIPOS>BOND
     1    6   12 ar 
     2    2    5 ar 
     3   10   13 2  
     4    7   11 ar 
     5    5   11 ar 
     6    3    8 1  
     7    9   12 ar 
     8    8   13 1  
     9    4   10 1  
    10    3    7 ar 
    11    1    4 ar 
    12    4    9 ar 
    13    2    6 ar 
    14    1    2 ar 
    15    1    3 ar 
    16    5   14 1  
    17    6   15 1  
    18    7   16 1  
    19    8   17 1  
    20    8   18 1  
    21    9   19 1  
    22   10   20 1  
    23   12   21 1  
    24   13   22 1  
# Name:          frag4-420-146/150395 -- energy: -0.955136
# Creation time: Sat Jun  5 12:53:35 2010


@<TRIPOS>MOLECULE
frag4-420-146/150395 -- energy: -0.955136
   22    24     1     1     1
SMALL
USER_CHARGES


@<TRIPOS>ATOM
      1 C1         -0.0156    0.0450    0.0161 C.ar       1 <1>        0.000
      2 C2          1.4681    0.2438   -0.0175 C.ar       1 <1>        0.000
      3 C3         -0.7925    1.1830   -0.0154 C.ar       1 <1>        0.000
      4 C4         -0.6171   -1.3252    0.0783 C.ar       1 <1>        0.000
      5 C5          1.8981    1.4913   -0.0521 C.ar       1 <1>        0.000
      6 C6          2.3011   -0.9567   -0.0237 C.ar       1 <1>        0.000
      7 C7         -0.1338    2.4581   -0.0502 C.ar       1 <1>        0.000
      8 C8         -2.2538    0.9122   -0.0196 C.3        1 <1>        0.000
      9 C9          0.2848   -2.3358    0.0875 C.ar       1 <1>        0.000
     10 C10        -2.0381   -1.5084    0.0740 C.2        1 <1>        0.000
     11 N1          1.1168    2.6043   -0.0602 N.ar       1 <1>        0.000
     12 C11         1.7127   -2.1727    0.0149 C.ar       1 <1>        0.000
     13 C12        -2.8432   -0.4365    0.0051 C.2        1 <1>        0.000
     14 H           2.9772    1.6431   -0.0764 H.spc      1 <1>        0.000
     15 H           3.3872   -0.8722   -0.0591 H.spc      1 <1>        0.000
     16 H          -0.7540    3.3542   -0.0691 H.spc      1 <1>        0.000
     17 H          -2.5649    1.2917   -0.9929 H.spc      1 <1>        0.000
     18 H          -2.5780    1.3327    0.9323 H.spc      1 <1>        0.000
     19 H          -0.1015   -3.3528    0.1552 H.spc      1 <1>        0.000
     20 H          -2.4624   -2.5111    0.1263 H.spc      1 <1>        0.000
     21 H           2.3424   -3.0620   -0.0099 H.spc      1 <1>        0.000
     22 H          -3.9251   -0.5638   -0.0323 H.spc      1 <1>        0.000
@<TRIPOS>BOND
     1    6   12 ar 
     2    2    5 ar 
     3   10   13 2  
     4    7   11 ar 
     5    5   11 ar 
     6    3    8 1  
     7    9   12 ar 
     8    8   13 1  
     9    4   10 1  
    10    3    7 ar 
    11    1    4 ar 
    12    4    9 ar 
    13    2    6 ar 
    14    1    2 ar 
    15    1    3 ar 
    16    5   14 1  
    17    6   15 1  
    18    7   16 1  
    19    8   17 1  
    20    8   18 1  
    21    9   19 1  
    22   10   20 1  
    23   12   21 1  
    24   13   22 1  
