#      Rotatable Fragment
#      Build by yxyuan
#
# Name:          frag3-251-3/31924
# Creation time: Sat Jun  5 12:52:39 2010


@<TRIPOS>MOLECULE
frag3-251-3/31924
   14    13     1     1     1
SMALL
USER_CHARGES


@<TRIPOS>ATOM
      1 S1         -0.1919    1.6770    1.5270 S.2        1 <1>        0.000
      2 C1          0.4047    0.5088    0.4154 C.2        1 <1>        0.000
      3 N1         -0.4407   -0.2526   -0.3191 N.am       1 <1>        0.000
      4 N2         -0.0138   -1.2636   -1.2681 N.am       1 <1>        0.000
      5 C2          0.1114   -2.5798   -0.9753 C.2        1 <1>        0.000
      6 S2          0.6352   -3.7071   -2.1635 S.2        1 <1>        0.000
      7 N3         -0.1684   -3.0554    0.2509 N.am       1 <1>        0.000
      8 N4          1.7387    0.3806    0.3056 N.am       1 <1>        0.000
      9 H          -1.4427   -0.1058   -0.1972 H.spc      1 <1>        0.000
     10 H           0.2064   -0.9634   -2.2177 H.spc      1 <1>        0.000
     11 H          -0.0669   -4.0512    0.4471 H.spc      1 <1>        0.000
     12 H          -0.4822   -2.4204    0.9849 H.spc      1 <1>        0.000
     13 H           2.3554    0.9648    0.8703 H.spc      1 <1>        0.000
     14 H           2.1339   -0.3008   -0.3424 H.spc      1 <1>        0.000
@<TRIPOS>BOND
     1    1    2 2  
     2    2    3 am 
     3    2    8 am 
     4    3    4 1  
     5    4    5 am 
     6    5    6 2  
     7    5    7 am 
     8    3    9 1  
     9    4   10 1  
    10    7   11 1  
    11    7   12 1  
    12    8   13 1  
    13    8   14 1  
# Name:          frag3-251-3/31924
# Creation time: Sat Jun  5 12:52:39 2010


@<TRIPOS>MOLECULE
frag3-251-3/31924
   14    13     1     1     1
SMALL
USER_CHARGES


@<TRIPOS>ATOM
      1 S1          0.6742   -3.8013   -2.0095 S.2        1 <1>        0.000
      2 C1          0.1703   -2.5183   -0.9822 C.2        1 <1>        0.000
      3 N1          1.0643   -1.8330   -0.2304 N.am       1 <1>        0.000
      4 N2          0.7057   -0.8173    0.7406 N.am       1 <1>        0.000
      5 C2          0.3444    0.4478    0.4210 C.2        1 <1>        0.000
      6 S2          0.0640    1.6258    1.6414 S.2        1 <1>        0.000
      7 N3          0.1940    0.8330   -0.8583 N.am       1 <1>        0.000
      8 N4         -1.1418   -2.2288   -0.9497 N.am       1 <1>        0.000
      9 H           2.0542   -2.0450   -0.3552 H.spc      1 <1>        0.000
     10 H           0.7270   -1.0724    1.7280 H.spc      1 <1>        0.000
     11 H          -0.0767    1.7926   -1.0735 H.spc      1 <1>        0.000
     12 H           0.3506    0.1657   -1.6136 H.spc      1 <1>        0.000
     13 H          -1.7963   -2.7631   -1.5212 H.spc      1 <1>        0.000
     14 H          -1.4831   -1.4748   -0.3535 H.spc      1 <1>        0.000
@<TRIPOS>BOND
     1    1    2 2  
     2    2    3 am 
     3    2    8 am 
     4    3    4 1  
     5    4    5 am 
     6    5    6 2  
     7    5    7 am 
     8    3    9 1  
     9    4   10 1  
    10    7   11 1  
    11    7   12 1  
    12    8   13 1  
    13    8   14 1  
# Name:          frag3-251-3/31924
# Creation time: Sat Jun  5 12:52:39 2010


@<TRIPOS>MOLECULE
frag3-251-3/31924
   14    13     1     1     1
SMALL
USER_CHARGES


@<TRIPOS>ATOM
      1 S1          0.6010   -3.7192   -2.2843 S.2        1 <1>        0.000
      2 C1          0.0590   -2.7466   -0.9747 C.2        1 <1>        0.000
      3 N1          0.4931   -1.4741   -0.8228 N.am       1 <1>        0.000
      4 N2         -0.1020   -0.5052    0.0778 N.am       1 <1>        0.000
      5 C2          0.4704    0.6697    0.4258 C.2        1 <1>        0.000
      6 S2         -0.2736    1.7165    1.5688 S.2        1 <1>        0.000
      7 N3          1.6421    1.0619   -0.1054 N.am       1 <1>        0.000
      8 N4         -0.8148   -3.2951   -0.1122 N.am       1 <1>        0.000
      9 H           1.2938   -1.1757   -1.3798 H.spc      1 <1>        0.000
     10 H          -1.0149   -0.7251    0.4760 H.spc      1 <1>        0.000
     11 H           2.0563    1.9513    0.1736 H.spc      1 <1>        0.000
     12 H           2.1165    0.4700   -0.7873 H.spc      1 <1>        0.000
     13 H          -1.1316   -4.2550   -0.2485 H.spc      1 <1>        0.000
     14 H          -1.1608   -2.7512    0.6783 H.spc      1 <1>        0.000
@<TRIPOS>BOND
     1    1    2 2  
     2    2    3 am 
     3    2    8 am 
     4    3    4 1  
     5    4    5 am 
     6    5    6 2  
     7    5    7 am 
     8    3    9 1  
     9    4   10 1  
    10    7   11 1  
    11    7   12 1  
    12    8   13 1  
    13    8   14 1  
# Name:          frag3-251-3/31924
# Creation time: Sat Jun  5 12:52:39 2010


@<TRIPOS>MOLECULE
frag3-251-3/31924
   14    13     1     1     1
SMALL
USER_CHARGES


@<TRIPOS>ATOM
      1 S1         -1.0109   -2.7234   -2.0734 S.2        1 <1>        0.000
      2 C1          0.2717   -2.8105   -0.9342 C.2        1 <1>        0.000
      3 N1          0.5642   -1.7628   -0.1212 N.am       1 <1>        0.000
      4 N2         -0.0515   -0.4383   -0.2510 N.am       1 <1>        0.000
      5 C2          0.3419    0.6508    0.4590 C.2        1 <1>        0.000
      6 S2         -0.2094    2.2248    0.0425 S.2        1 <1>        0.000
      7 N3          1.1792    0.5268    1.5178 N.am       1 <1>        0.000
      8 N4          0.9898   -3.9597   -0.8668 N.am       1 <1>        0.000
      9 H           1.2498   -1.9050    0.6205 H.spc      1 <1>        0.000
     10 H          -0.8198   -0.3284   -0.9129 H.spc      1 <1>        0.000
     11 H           1.4645    1.3540    2.0420 H.spc      1 <1>        0.000
     12 H           1.5240   -0.3937    1.7903 H.spc      1 <1>        0.000
     13 H           0.7616   -4.7405   -1.4822 H.spc      1 <1>        0.000
     14 H           1.7578   -4.0429   -0.2007 H.spc      1 <1>        0.000
@<TRIPOS>BOND
     1    1    2 2  
     2    2    3 am 
     3    2    8 am 
     4    3    4 1  
     5    4    5 am 
     6    5    6 2  
     7    5    7 am 
     8    3    9 1  
     9    4   10 1  
    10    7   11 1  
    11    7   12 1  
    12    8   13 1  
    13    8   14 1  
# Name:          frag3-251-3/31924 -- energy: -1.525339
# Creation time: Sat Jun  5 12:52:39 2010


@<TRIPOS>MOLECULE
frag3-251-3/31924 -- energy: -1.525339
   14    13     1     1     1
SMALL
USER_CHARGES


@<TRIPOS>ATOM
      1 S1         -0.1919    1.6770    1.5270 S.2        1 <1>        0.000
      2 C1          0.4047    0.5088    0.4154 C.2        1 <1>        0.000
      3 N1         -0.4407   -0.2526   -0.3191 N.am       1 <1>        0.000
      4 N2         -0.0138   -1.2636   -1.2681 N.am       1 <1>        0.000
      5 C2          0.1114   -2.5798   -0.9753 C.2        1 <1>        0.000
      6 S2          0.6352   -3.7071   -2.1635 S.2        1 <1>        0.000
      7 N3         -0.1684   -3.0554    0.2509 N.am       1 <1>        0.000
      8 N4          1.7387    0.3806    0.3056 N.am       1 <1>        0.000
      9 H          -1.4427   -0.1058   -0.1972 H.spc      1 <1>        0.000
     10 H           0.2064   -0.9634   -2.2177 H.spc      1 <1>        0.000
     11 H          -0.0669   -4.0512    0.4471 H.spc      1 <1>        0.000
     12 H          -0.4822   -2.4204    0.9849 H.spc      1 <1>        0.000
     13 H           2.3554    0.9648    0.8703 H.spc      1 <1>        0.000
     14 H           2.1339   -0.3008   -0.3424 H.spc      1 <1>        0.000
@<TRIPOS>BOND
     1    1    2 2  
     2    2    3 am 
     3    2    8 am 
     4    3    4 1  
     5    4    5 am 
     6    5    6 2  
     7    5    7 am 
     8    3    9 1  
     9    4   10 1  
    10    7   11 1  
    11    7   12 1  
    12    8   13 1  
    13    8   14 1  
# Name:          frag3-251-3/31924 -- energy: -1.710023
# Creation time: Sat Jun  5 12:52:39 2010


@<TRIPOS>MOLECULE
frag3-251-3/31924 -- energy: -1.710023
   14    13     1     1     1
SMALL
USER_CHARGES


@<TRIPOS>ATOM
      1 S1          0.6742   -3.8013   -2.0095 S.2        1 <1>        0.000
      2 C1          0.1703   -2.5183   -0.9822 C.2        1 <1>        0.000
      3 N1          1.0643   -1.8330   -0.2304 N.am       1 <1>        0.000
      4 N2          0.7057   -0.8173    0.7406 N.am       1 <1>        0.000
      5 C2          0.3444    0.4478    0.4210 C.2        1 <1>        0.000
      6 S2          0.0640    1.6258    1.6414 S.2        1 <1>        0.000
      7 N3          0.1940    0.8330   -0.8583 N.am       1 <1>        0.000
      8 N4         -1.1418   -2.2288   -0.9497 N.am       1 <1>        0.000
      9 H           2.0542   -2.0450   -0.3552 H.spc      1 <1>        0.000
     10 H           0.7270   -1.0724    1.7280 H.spc      1 <1>        0.000
     11 H          -0.0767    1.7926   -1.0735 H.spc      1 <1>        0.000
     12 H           0.3506    0.1657   -1.6136 H.spc      1 <1>        0.000
     13 H          -1.7963   -2.7631   -1.5212 H.spc      1 <1>        0.000
     14 H          -1.4831   -1.4748   -0.3535 H.spc      1 <1>        0.000
@<TRIPOS>BOND
     1    1    2 2  
     2    2    3 am 
     3    2    8 am 
     4    3    4 1  
     5    4    5 am 
     6    5    6 2  
     7    5    7 am 
     8    3    9 1  
     9    4   10 1  
    10    7   11 1  
    11    7   12 1  
    12    8   13 1  
    13    8   14 1  
# Name:          frag3-251-3/31924 -- energy: -0.862993
# Creation time: Sat Jun  5 12:52:39 2010


@<TRIPOS>MOLECULE
frag3-251-3/31924 -- energy: -0.862993
   14    13     1     1     1
SMALL
USER_CHARGES


@<TRIPOS>ATOM
      1 S1          0.6010   -3.7192   -2.2843 S.2        1 <1>        0.000
      2 C1          0.0590   -2.7466   -0.9747 C.2        1 <1>        0.000
      3 N1          0.4931   -1.4741   -0.8228 N.am       1 <1>        0.000
      4 N2         -0.1020   -0.5052    0.0778 N.am       1 <1>        0.000
      5 C2          0.4704    0.6697    0.4258 C.2        1 <1>        0.000
      6 S2         -0.2736    1.7165    1.5688 S.2        1 <1>        0.000
      7 N3          1.6421    1.0619   -0.1054 N.am       1 <1>        0.000
      8 N4         -0.8148   -3.2951   -0.1122 N.am       1 <1>        0.000
      9 H           1.2938   -1.1757   -1.3798 H.spc      1 <1>        0.000
     10 H          -1.0149   -0.7251    0.4760 H.spc      1 <1>        0.000
     11 H           2.0563    1.9513    0.1736 H.spc      1 <1>        0.000
     12 H           2.1165    0.4700   -0.7873 H.spc      1 <1>        0.000
     13 H          -1.1316   -4.2550   -0.2485 H.spc      1 <1>        0.000
     14 H          -1.1608   -2.7512    0.6783 H.spc      1 <1>        0.000
@<TRIPOS>BOND
     1    1    2 2  
     2    2    3 am 
     3    2    8 am 
     4    3    4 1  
     5    4    5 am 
     6    5    6 2  
     7    5    7 am 
     8    3    9 1  
     9    4   10 1  
    10    7   11 1  
    11    7   12 1  
    12    8   13 1  
    13    8   14 1  
# Name:          frag3-251-3/31924 -- energy: -0.859887
# Creation time: Sat Jun  5 12:52:39 2010


@<TRIPOS>MOLECULE
frag3-251-3/31924 -- energy: -0.859887
   14    13     1     1     1
SMALL
USER_CHARGES


@<TRIPOS>ATOM
      1 S1         -1.0109   -2.7234   -2.0734 S.2        1 <1>        0.000
      2 C1          0.2717   -2.8105   -0.9342 C.2        1 <1>        0.000
      3 N1          0.5642   -1.7628   -0.1212 N.am       1 <1>        0.000
      4 N2         -0.0515   -0.4383   -0.2510 N.am       1 <1>        0.000
      5 C2          0.3419    0.6508    0.4590 C.2        1 <1>        0.000
      6 S2         -0.2094    2.2248    0.0425 S.2        1 <1>        0.000
      7 N3          1.1792    0.5268    1.5178 N.am       1 <1>        0.000
      8 N4          0.9898   -3.9597   -0.8668 N.am       1 <1>        0.000
      9 H           1.2498   -1.9050    0.6205 H.spc      1 <1>        0.000
     10 H          -0.8198   -0.3284   -0.9129 H.spc      1 <1>        0.000
     11 H           1.4645    1.3540    2.0420 H.spc      1 <1>        0.000
     12 H           1.5240   -0.3937    1.7903 H.spc      1 <1>        0.000
     13 H           0.7616   -4.7405   -1.4822 H.spc      1 <1>        0.000
     14 H           1.7578   -4.0429   -0.2007 H.spc      1 <1>        0.000
@<TRIPOS>BOND
     1    1    2 2  
     2    2    3 am 
     3    2    8 am 
     4    3    4 1  
     5    4    5 am 
     6    5    6 2  
     7    5    7 am 
     8    3    9 1  
     9    4   10 1  
    10    7   11 1  
    11    7   12 1  
    12    8   13 1  
    13    8   14 1  
