#      Rotatable Fragment
#      Build by yxyuan
#
# Name:          frag4-339-486/150395
# Creation time: Sat Jun  5 12:53:31 2010


@<TRIPOS>MOLECULE
frag4-339-486/150395
   10    10     1     1     1
SMALL
USER_CHARGES


@<TRIPOS>ATOM
      1 N1         -1.2468   -0.3163   -0.0889 N.ar       1 <1>        0.000
      2 C3         -1.1180    0.8932    0.2573 C.ar       1 <1>        0.000
      3 C4         -0.0763   -1.0621   -0.2595 C.ar       1 <1>        0.000
      4 N2          0.0920    1.4556    0.4404 N.ar       1 <1>        0.000
      5 C7          1.1975   -0.6324   -0.1395 C.ar       1 <1>        0.000
      6 C9          1.1862    0.8073    0.2172 C.ar       1 <1>        0.000
      7 H          -2.0117    1.4977    0.4119 H.spc      1 <1>        0.000
      8 H          -0.2079   -2.1124   -0.5196 H.spc      1 <1>        0.000
      9 H           2.0889   -1.2435   -0.2815 H.spc      1 <1>        0.000
     10 H           2.1357    1.3371    0.2937 H.spc      1 <1>        0.000
@<TRIPOS>BOND
     1    1    2 ar 
     2    1    3 ar 
     3    2    4 ar 
     4    3    5 ar 
     5    4    6 ar 
     6    5    6 ar 
     7    2    7 1  
     8    3    8 1  
     9    5    9 1  
    10    6   10 1  
# Name:          frag4-339-486/150395 -- energy: 0.373654
# Creation time: Sat Jun  5 12:53:31 2010


@<TRIPOS>MOLECULE
frag4-339-486/150395 -- energy: 0.373654
   10    10     1     1     1
SMALL
USER_CHARGES


@<TRIPOS>ATOM
      1 N1         -1.2468   -0.3163   -0.0889 N.ar       1 <1>        0.000
      2 C3         -1.1180    0.8932    0.2573 C.ar       1 <1>        0.000
      3 C4         -0.0763   -1.0621   -0.2595 C.ar       1 <1>        0.000
      4 N2          0.0920    1.4556    0.4404 N.ar       1 <1>        0.000
      5 C7          1.1975   -0.6324   -0.1395 C.ar       1 <1>        0.000
      6 C9          1.1862    0.8073    0.2172 C.ar       1 <1>        0.000
      7 H          -2.0117    1.4977    0.4119 H.spc      1 <1>        0.000
      8 H          -0.2079   -2.1124   -0.5196 H.spc      1 <1>        0.000
      9 H           2.0889   -1.2435   -0.2815 H.spc      1 <1>        0.000
     10 H           2.1357    1.3371    0.2937 H.spc      1 <1>        0.000
@<TRIPOS>BOND
     1    1    2 ar 
     2    1    3 ar 
     3    2    4 ar 
     4    3    5 ar 
     5    4    6 ar 
     6    5    6 ar 
     7    2    7 1  
     8    3    8 1  
     9    5    9 1  
    10    6   10 1  
