#      Rotatable Fragment
#      Build by yxyuan
#
# Name:          frag4-392-233/150395
# Creation time: Sat Jun  5 12:53:34 2010


@<TRIPOS>MOLECULE
frag4-392-233/150395
   13    13     1     1     1
SMALL
USER_CHARGES


@<TRIPOS>ATOM
      1 N1          2.1633    0.0219    0.0001 N.3        1 <1>        0.000
      2 C2          1.0139    0.7603   -0.0005 C.3        1 <1>        0.000
      3 C3          1.8261   -1.3735    0.0005 C.3        1 <1>        0.000
      4 N2         -0.1055   -0.0228   -0.0004 N.3        1 <1>        0.000
      5 C6          0.2864   -1.4038    0.0003 C.3        1 <1>        0.000
      6 H           2.7119    0.2423    0.8313 H.spc      1 <1>        0.000
      7 H           1.0021    1.3669   -0.9061 H.spc      1 <1>        0.000
      8 H           1.0017    1.3677    0.9045 H.spc      1 <1>        0.000
      9 H           2.2429   -1.8923    0.8638 H.spc      1 <1>        0.000
     10 H           2.2431   -1.8928   -0.8624 H.spc      1 <1>        0.000
     11 H          -0.6624    0.1751   -0.8317 H.spc      1 <1>        0.000
     12 H          -0.1098   -1.9384    0.8636 H.spc      1 <1>        0.000
     13 H          -0.1096   -1.9392   -0.8626 H.spc      1 <1>        0.000
@<TRIPOS>BOND
     1    1    2 1  
     2    1    3 1  
     3    2    4 1  
     4    3    5 1  
     5    4    5 1  
     6    1    6 1  
     7    2    7 1  
     8    2    8 1  
     9    3    9 1  
    10    3   10 1  
    11    4   11 1  
    12    5   12 1  
    13    5   13 1  
# Name:          frag4-392-233/150395 -- energy: -0.620999
# Creation time: Sat Jun  5 12:53:34 2010


@<TRIPOS>MOLECULE
frag4-392-233/150395 -- energy: -0.620999
   13    13     1     1     1
SMALL
USER_CHARGES


@<TRIPOS>ATOM
      1 N1          2.1633    0.0219    0.0001 N.3        1 <1>        0.000
      2 C2          1.0139    0.7603   -0.0005 C.3        1 <1>        0.000
      3 C3          1.8261   -1.3735    0.0005 C.3        1 <1>        0.000
      4 N2         -0.1055   -0.0228   -0.0004 N.3        1 <1>        0.000
      5 C6          0.2864   -1.4038    0.0003 C.3        1 <1>        0.000
      6 H           2.7119    0.2423    0.8313 H.spc      1 <1>        0.000
      7 H           1.0021    1.3669   -0.9061 H.spc      1 <1>        0.000
      8 H           1.0017    1.3677    0.9045 H.spc      1 <1>        0.000
      9 H           2.2429   -1.8923    0.8638 H.spc      1 <1>        0.000
     10 H           2.2431   -1.8928   -0.8624 H.spc      1 <1>        0.000
     11 H          -0.6624    0.1751   -0.8317 H.spc      1 <1>        0.000
     12 H          -0.1098   -1.9384    0.8636 H.spc      1 <1>        0.000
     13 H          -0.1096   -1.9392   -0.8626 H.spc      1 <1>        0.000
@<TRIPOS>BOND
     1    1    2 1  
     2    1    3 1  
     3    2    4 1  
     4    3    5 1  
     5    4    5 1  
     6    1    6 1  
     7    2    7 1  
     8    2    8 1  
     9    3    9 1  
    10    3   10 1  
    11    4   11 1  
    12    5   12 1  
    13    5   13 1  
