#      Rotatable Fragment
#      Build by yxyuan
#
# Name:          frag5-615-33/41815
# Creation time: Sat Jun  5 12:52:59 2010


@<TRIPOS>MOLECULE
frag5-615-33/41815
   17    17     1     1     1
SMALL
USER_CHARGES


@<TRIPOS>ATOM
      1 C7          0.3446    1.7610   -1.2242 C.ar       1 <1>        0.000
      2 C8          1.5831    1.2651   -1.6375 C.ar       1 <1>        0.000
      3 C9          2.7307    1.4683   -0.8643 C.ar       1 <1>        0.000
      4 C10         2.6386    2.1877    0.3417 C.ar       1 <1>        0.000
      5 C11         1.3837    2.6761    0.7489 C.ar       1 <1>        0.000
      6 C12         0.2441    2.4671   -0.0250 C.ar       1 <1>        0.000
      7 O2          3.7731    2.4050    1.1057 O.3        1 <1>        0.000
      8 C13         4.0599    0.9072   -1.3440 C.2        1 <1>        0.000
      9 O3          4.0413   -0.1035   -2.0308 O.2        1 <1>        0.000
     10 N2          5.2300    1.5001   -1.0274 N.am       1 <1>        0.000
     11 H          -0.5416    1.5967   -1.8372 H.spc      1 <1>        0.000
     12 H           1.6562    0.7128   -2.5744 H.spc      1 <1>        0.000
     13 H           1.3015    3.2273    1.6857 H.spc      1 <1>        0.000
     14 H          -0.7205    2.8531    0.3046 H.spc      1 <1>        0.000
     15 H           3.5384    2.9074    1.8893 H.spc      1 <1>        0.000
     16 H           6.1089    1.1050   -1.3619 H.spc      1 <1>        0.000
     17 H           5.2356    2.3434   -0.4536 H.spc      1 <1>        0.000
@<TRIPOS>BOND
     1    8   10 am 
     2    8    9 2  
     3    1    2 ar 
     4    1    6 ar 
     5    2    3 ar 
     6    3    4 ar 
     7    3    8 1  
     8    4    5 ar 
     9    4    7 1  
    10    5    6 ar 
    11    1   11 1  
    12    2   12 1  
    13    5   13 1  
    14    6   14 1  
    15    7   15 1  
    16   10   16 1  
    17   10   17 1  
# Name:          frag5-615-33/41815
# Creation time: Sat Jun  5 12:52:59 2010


@<TRIPOS>MOLECULE
frag5-615-33/41815
   17    17     1     1     1
SMALL
USER_CHARGES


@<TRIPOS>ATOM
      1 C7          0.3064    1.5083   -1.0486 C.ar       1 <1>        0.000
      2 C8          1.5481    1.0280   -1.4711 C.ar       1 <1>        0.000
      3 C9          2.7269    1.4399   -0.8428 C.ar       1 <1>        0.000
      4 C10         2.6662    2.3567    0.2248 C.ar       1 <1>        0.000
      5 C11         1.4059    2.8266    0.6422 C.ar       1 <1>        0.000
      6 C12         0.2352    2.4096    0.0140 C.ar       1 <1>        0.000
      7 O2          3.8278    2.7791    0.8415 O.3        1 <1>        0.000
      8 C13         4.0600    0.8898   -1.3263 C.2        1 <1>        0.000
      9 O3          4.3055    0.9514   -2.5219 O.2        1 <1>        0.000
     10 N2          4.9471    0.3445   -0.4688 N.am       1 <1>        0.000
     11 H          -0.6050    1.1797   -1.5480 H.spc      1 <1>        0.000
     12 H           1.5985    0.3232   -2.3011 H.spc      1 <1>        0.000
     13 H           1.3457    3.5300    1.4727 H.spc      1 <1>        0.000
     14 H          -0.7312    2.7851    0.3505 H.spc      1 <1>        0.000
     15 H           3.6098    3.3973    1.5428 H.spc      1 <1>        0.000
     16 H           5.8334   -0.0217   -0.8163 H.spc      1 <1>        0.000
     17 H           4.7316    0.2984    0.5271 H.spc      1 <1>        0.000
@<TRIPOS>BOND
     1    8   10 am 
     2    8    9 2  
     3    1    2 ar 
     4    1    6 ar 
     5    2    3 ar 
     6    3    4 ar 
     7    3    8 1  
     8    4    5 ar 
     9    4    7 1  
    10    5    6 ar 
    11    1   11 1  
    12    2   12 1  
    13    5   13 1  
    14    6   14 1  
    15    7   15 1  
    16   10   16 1  
    17   10   17 1  
# Name:          frag5-615-33/41815
# Creation time: Sat Jun  5 12:52:59 2010


@<TRIPOS>MOLECULE
frag5-615-33/41815
   17    17     1     1     1
SMALL
USER_CHARGES


@<TRIPOS>ATOM
      1 C7          0.3351    1.6339   -1.1681 C.ar       1 <1>        0.000
      2 C8          1.5844    1.1621   -1.5774 C.ar       1 <1>        0.000
      3 C9          2.7379    1.4673   -0.8509 C.ar       1 <1>        0.000
      4 C10         2.6472    2.2673    0.3068 C.ar       1 <1>        0.000
      5 C11         1.3766    2.7279    0.7076 C.ar       1 <1>        0.000
      6 C12         0.2310    2.4180   -0.0190 C.ar       1 <1>        0.000
      7 O2          3.7816    2.5834    1.0222 O.3        1 <1>        0.000
      8 C13         4.0814    0.9311   -1.3228 C.2        1 <1>        0.000
      9 O3          5.0244    1.7053   -1.3773 O.2        1 <1>        0.000
     10 N2          4.2295   -0.3622   -1.6779 N.am       1 <1>        0.000
     11 H          -0.5567    1.3899   -1.7454 H.spc      1 <1>        0.000
     12 H           1.6603    0.5481   -2.4748 H.spc      1 <1>        0.000
     13 H           1.2897    3.3397    1.6055 H.spc      1 <1>        0.000
     14 H          -0.7417    2.7857    0.3077 H.spc      1 <1>        0.000
     15 H           3.5423    3.1301    1.7742 H.spc      1 <1>        0.000
     16 H           5.1367   -0.7030   -1.9962 H.spc      1 <1>        0.000
     17 H           3.4343   -0.9990   -1.6280 H.spc      1 <1>        0.000
@<TRIPOS>BOND
     1    8   10 am 
     2    8    9 2  
     3    1    2 ar 
     4    1    6 ar 
     5    2    3 ar 
     6    3    4 ar 
     7    3    8 1  
     8    4    5 ar 
     9    4    7 1  
    10    5    6 ar 
    11    1   11 1  
    12    2   12 1  
    13    5   13 1  
    14    6   14 1  
    15    7   15 1  
    16   10   16 1  
    17   10   17 1  
# Name:          frag5-615-33/41815
# Creation time: Sat Jun  5 12:52:59 2010


@<TRIPOS>MOLECULE
frag5-615-33/41815
   17    17     1     1     1
SMALL
USER_CHARGES


@<TRIPOS>ATOM
      1 C7          0.4209    2.0032   -1.3590 C.ar       1 <1>        0.000
      2 C8          1.6675    1.5145   -1.7549 C.ar       1 <1>        0.000
      3 C9          2.7497    1.5130   -0.8715 C.ar       1 <1>        0.000
      4 C10         2.5891    2.0185    0.4356 C.ar       1 <1>        0.000
      5 C11         1.3216    2.5011    0.8184 C.ar       1 <1>        0.000
      6 C12         0.2470    2.4966   -0.0658 C.ar       1 <1>        0.000
      7 O2          3.6547    2.0343    1.3090 O.3        1 <1>        0.000
      8 C13         4.0921    0.9663   -1.3347 C.2        1 <1>        0.000
      9 O3          4.8803    0.5755   -0.4879 O.2        1 <1>        0.000
     10 N2          4.4062    0.9110   -2.6460 N.am       1 <1>        0.000
     11 H          -0.4147    1.9992   -2.0589 H.spc      1 <1>        0.000
     12 H           1.7979    1.1292   -2.7662 H.spc      1 <1>        0.000
     13 H           1.1800    2.8860    1.8283 H.spc      1 <1>        0.000
     14 H          -0.7247    2.8763    0.2502 H.spc      1 <1>        0.000
     15 H           3.3740    2.4075    2.1478 H.spc      1 <1>        0.000
     16 H           5.3101    0.5398   -2.9387 H.spc      1 <1>        0.000
     17 H           3.7397    1.2404   -3.3444 H.spc      1 <1>        0.000
@<TRIPOS>BOND
     1    8   10 am 
     2    8    9 2  
     3    1    2 ar 
     4    1    6 ar 
     5    2    3 ar 
     6    3    4 ar 
     7    3    8 1  
     8    4    5 ar 
     9    4    7 1  
    10    5    6 ar 
    11    1   11 1  
    12    2   12 1  
    13    5   13 1  
    14    6   14 1  
    15    7   15 1  
    16   10   16 1  
    17   10   17 1  
# Name:          frag5-615-33/41815 -- energy: -0.077119
# Creation time: Sat Jun  5 12:52:59 2010


@<TRIPOS>MOLECULE
frag5-615-33/41815 -- energy: -0.077119
   17    17     1     1     1
SMALL
USER_CHARGES


@<TRIPOS>ATOM
      1 C7          0.3446    1.7610   -1.2242 C.ar       1 <1>        0.000
      2 C8          1.5831    1.2651   -1.6375 C.ar       1 <1>        0.000
      3 C9          2.7307    1.4683   -0.8643 C.ar       1 <1>        0.000
      4 C10         2.6386    2.1877    0.3417 C.ar       1 <1>        0.000
      5 C11         1.3837    2.6761    0.7489 C.ar       1 <1>        0.000
      6 C12         0.2441    2.4671   -0.0250 C.ar       1 <1>        0.000
      7 O2          3.7731    2.4050    1.1057 O.3        1 <1>        0.000
      8 C13         4.0599    0.9072   -1.3440 C.2        1 <1>        0.000
      9 O3          4.0413   -0.1035   -2.0308 O.2        1 <1>        0.000
     10 N2          5.2300    1.5001   -1.0274 N.am       1 <1>        0.000
     11 H          -0.5416    1.5967   -1.8372 H.spc      1 <1>        0.000
     12 H           1.6562    0.7128   -2.5744 H.spc      1 <1>        0.000
     13 H           1.3015    3.2273    1.6857 H.spc      1 <1>        0.000
     14 H          -0.7205    2.8531    0.3046 H.spc      1 <1>        0.000
     15 H           3.5384    2.9074    1.8893 H.spc      1 <1>        0.000
     16 H           6.1089    1.1050   -1.3619 H.spc      1 <1>        0.000
     17 H           5.2356    2.3434   -0.4536 H.spc      1 <1>        0.000
@<TRIPOS>BOND
     1    8   10 am 
     2    8    9 2  
     3    1    2 ar 
     4    1    6 ar 
     5    2    3 ar 
     6    3    4 ar 
     7    3    8 1  
     8    4    5 ar 
     9    4    7 1  
    10    5    6 ar 
    11    1   11 1  
    12    2   12 1  
    13    5   13 1  
    14    6   14 1  
    15    7   15 1  
    16   10   16 1  
    17   10   17 1  
# Name:          frag5-615-33/41815 -- energy: -0.982423
# Creation time: Sat Jun  5 12:52:59 2010


@<TRIPOS>MOLECULE
frag5-615-33/41815 -- energy: -0.982423
   17    17     1     1     1
SMALL
USER_CHARGES


@<TRIPOS>ATOM
      1 C7          0.3064    1.5083   -1.0486 C.ar       1 <1>        0.000
      2 C8          1.5481    1.0280   -1.4711 C.ar       1 <1>        0.000
      3 C9          2.7269    1.4399   -0.8428 C.ar       1 <1>        0.000
      4 C10         2.6662    2.3567    0.2248 C.ar       1 <1>        0.000
      5 C11         1.4059    2.8266    0.6422 C.ar       1 <1>        0.000
      6 C12         0.2352    2.4096    0.0140 C.ar       1 <1>        0.000
      7 O2          3.8278    2.7791    0.8415 O.3        1 <1>        0.000
      8 C13         4.0600    0.8898   -1.3263 C.2        1 <1>        0.000
      9 O3          4.3055    0.9514   -2.5219 O.2        1 <1>        0.000
     10 N2          4.9471    0.3445   -0.4688 N.am       1 <1>        0.000
     11 H          -0.6050    1.1797   -1.5480 H.spc      1 <1>        0.000
     12 H           1.5985    0.3232   -2.3011 H.spc      1 <1>        0.000
     13 H           1.3457    3.5300    1.4727 H.spc      1 <1>        0.000
     14 H          -0.7312    2.7851    0.3505 H.spc      1 <1>        0.000
     15 H           3.6098    3.3973    1.5428 H.spc      1 <1>        0.000
     16 H           5.8334   -0.0217   -0.8163 H.spc      1 <1>        0.000
     17 H           4.7316    0.2984    0.5271 H.spc      1 <1>        0.000
@<TRIPOS>BOND
     1    8   10 am 
     2    8    9 2  
     3    1    2 ar 
     4    1    6 ar 
     5    2    3 ar 
     6    3    4 ar 
     7    3    8 1  
     8    4    5 ar 
     9    4    7 1  
    10    5    6 ar 
    11    1   11 1  
    12    2   12 1  
    13    5   13 1  
    14    6   14 1  
    15    7   15 1  
    16   10   16 1  
    17   10   17 1  
# Name:          frag5-615-33/41815 -- energy: -0.911257
# Creation time: Sat Jun  5 12:52:59 2010


@<TRIPOS>MOLECULE
frag5-615-33/41815 -- energy: -0.911257
   17    17     1     1     1
SMALL
USER_CHARGES


@<TRIPOS>ATOM
      1 C7          0.3351    1.6339   -1.1681 C.ar       1 <1>        0.000
      2 C8          1.5844    1.1621   -1.5774 C.ar       1 <1>        0.000
      3 C9          2.7379    1.4673   -0.8509 C.ar       1 <1>        0.000
      4 C10         2.6472    2.2673    0.3068 C.ar       1 <1>        0.000
      5 C11         1.3766    2.7279    0.7076 C.ar       1 <1>        0.000
      6 C12         0.2310    2.4180   -0.0190 C.ar       1 <1>        0.000
      7 O2          3.7816    2.5834    1.0222 O.3        1 <1>        0.000
      8 C13         4.0814    0.9311   -1.3228 C.2        1 <1>        0.000
      9 O3          5.0244    1.7053   -1.3773 O.2        1 <1>        0.000
     10 N2          4.2295   -0.3622   -1.6779 N.am       1 <1>        0.000
     11 H          -0.5567    1.3899   -1.7454 H.spc      1 <1>        0.000
     12 H           1.6603    0.5481   -2.4748 H.spc      1 <1>        0.000
     13 H           1.2897    3.3397    1.6055 H.spc      1 <1>        0.000
     14 H          -0.7417    2.7857    0.3077 H.spc      1 <1>        0.000
     15 H           3.5423    3.1301    1.7742 H.spc      1 <1>        0.000
     16 H           5.1367   -0.7030   -1.9962 H.spc      1 <1>        0.000
     17 H           3.4343   -0.9990   -1.6280 H.spc      1 <1>        0.000
@<TRIPOS>BOND
     1    8   10 am 
     2    8    9 2  
     3    1    2 ar 
     4    1    6 ar 
     5    2    3 ar 
     6    3    4 ar 
     7    3    8 1  
     8    4    5 ar 
     9    4    7 1  
    10    5    6 ar 
    11    1   11 1  
    12    2   12 1  
    13    5   13 1  
    14    6   14 1  
    15    7   15 1  
    16   10   16 1  
    17   10   17 1  
# Name:          frag5-615-33/41815 -- energy: -0.454003
# Creation time: Sat Jun  5 12:52:59 2010


@<TRIPOS>MOLECULE
frag5-615-33/41815 -- energy: -0.454003
   17    17     1     1     1
SMALL
USER_CHARGES


@<TRIPOS>ATOM
      1 C7          0.4209    2.0032   -1.3590 C.ar       1 <1>        0.000
      2 C8          1.6675    1.5145   -1.7549 C.ar       1 <1>        0.000
      3 C9          2.7497    1.5130   -0.8715 C.ar       1 <1>        0.000
      4 C10         2.5891    2.0185    0.4356 C.ar       1 <1>        0.000
      5 C11         1.3216    2.5011    0.8184 C.ar       1 <1>        0.000
      6 C12         0.2470    2.4966   -0.0658 C.ar       1 <1>        0.000
      7 O2          3.6547    2.0343    1.3090 O.3        1 <1>        0.000
      8 C13         4.0921    0.9663   -1.3347 C.2        1 <1>        0.000
      9 O3          4.8803    0.5755   -0.4879 O.2        1 <1>        0.000
     10 N2          4.4062    0.9110   -2.6460 N.am       1 <1>        0.000
     11 H          -0.4147    1.9992   -2.0589 H.spc      1 <1>        0.000
     12 H           1.7979    1.1292   -2.7662 H.spc      1 <1>        0.000
     13 H           1.1800    2.8860    1.8283 H.spc      1 <1>        0.000
     14 H          -0.7247    2.8763    0.2502 H.spc      1 <1>        0.000
     15 H           3.3740    2.4075    2.1478 H.spc      1 <1>        0.000
     16 H           5.3101    0.5398   -2.9387 H.spc      1 <1>        0.000
     17 H           3.7397    1.2404   -3.3444 H.spc      1 <1>        0.000
@<TRIPOS>BOND
     1    8   10 am 
     2    8    9 2  
     3    1    2 ar 
     4    1    6 ar 
     5    2    3 ar 
     6    3    4 ar 
     7    3    8 1  
     8    4    5 ar 
     9    4    7 1  
    10    5    6 ar 
    11    1   11 1  
    12    2   12 1  
    13    5   13 1  
    14    6   14 1  
    15    7   15 1  
    16   10   16 1  
    17   10   17 1  
