#      Rotatable Fragment
#      Build by yxyuan
#
# Name:          frag5-524-306/138278
# Creation time: Sat Jun  5 12:53:41 2010


@<TRIPOS>MOLECULE
frag5-524-306/138278
   40    43     1     1     1
SMALL
USER_CHARGES


@<TRIPOS>ATOM
      1 C1          4.0645   -0.1540    0.8174 C.3        1 <1>        0.000
      2 C2          2.9230    0.3791   -0.0810 C.3        1 <1>        0.000
      3 C3          5.4194    0.6109    0.7191 C.3        1 <1>        0.000
      4 C4          4.8219   -1.3729    0.2128 C.3        1 <1>        0.000
      5 C5          1.6603   -0.5112    0.1927 C.3        1 <1>        0.000
      6 C6          2.7582    1.9373    0.1037 C.3        1 <1>        0.000
      7 O2          5.9011   -0.4860   -0.0458 O.3        1 <1>        0.000
      8 C7          5.3133    1.9781    0.0355 C.3        1 <1>        0.000
      9 C9          0.5123   -0.5636   -0.8675 C.3        1 <1>        0.000
     10 C10         4.0521    2.6748    0.5672 C.3        1 <1>        0.000
     11 C11         1.6209    2.3448    1.0181 C.2        1 <1>        0.000
     12 C14         0.0293    0.8359   -1.2841 C.3        1 <1>        0.000
     13 C15        -0.7469   -1.3413   -0.3630 C.3        1 <1>        0.000
     14 C17         0.2977    2.7584    0.4196 C.3        1 <1>        0.000
     15 O7          1.7555    2.3264    2.2411 O.2        1 <1>        0.000
     16 C18        -0.3778    1.4865    0.0113 C.2        1 <1>        0.000
     17 C21        -1.8454   -0.4497    0.3002 C.3        1 <1>        0.000
     18 C23        -1.3029    0.8705    0.7604 C.2        1 <1>        0.000
     19 H           3.5052   -0.2015    1.7517 H.spc      1 <1>        0.000
     20 H           3.1326    0.2866   -1.1467 H.spc      1 <1>        0.000
     21 H           5.9828    0.9587    1.5850 H.spc      1 <1>        0.000
     22 H           4.9627   -2.2951    0.7766 H.spc      1 <1>        0.000
     23 H           4.3833   -1.9844   -0.5757 H.spc      1 <1>        0.000
     24 H           2.0441   -1.5305    0.2361 H.spc      1 <1>        0.000
     25 H           1.1997   -0.0739    1.0785 H.spc      1 <1>        0.000
     26 H           2.5207    2.2557   -0.9113 H.spc      1 <1>        0.000
     27 H           5.2497    1.8557   -1.0457 H.spc      1 <1>        0.000
     28 H           6.1966    2.5786    0.2531 H.spc      1 <1>        0.000
     29 H           0.9598   -1.0819   -1.7155 H.spc      1 <1>        0.000
     30 H           4.0846    2.6664    1.6567 H.spc      1 <1>        0.000
     31 H           4.0287    3.6931    0.1790 H.spc      1 <1>        0.000
     32 H           0.8038    1.4010   -1.8027 H.spc      1 <1>        0.000
     33 H          -0.7928    0.7917   -1.9985 H.spc      1 <1>        0.000
     34 H          -1.2024   -1.8071   -1.2369 H.spc      1 <1>        0.000
     35 H          -0.4029   -2.0396    0.4000 H.spc      1 <1>        0.000
     36 H          -0.3053    3.3165    1.1358 H.spc      1 <1>        0.000
     37 H           0.4375    3.4251   -0.4314 H.spc      1 <1>        0.000
     38 H          -2.6198   -0.2575   -0.4424 H.spc      1 <1>        0.000
     39 H          -2.2316   -0.9795    1.1710 H.spc      1 <1>        0.000
     40 H          -1.6549    1.3214    1.6882 H.spc      1 <1>        0.000
@<TRIPOS>BOND
     1    1    2 1  
     2    5    9 1  
     3    6   11 1  
     4    3    8 1  
     5    4    7 1  
     6    3    7 1  
     7    1    3 1  
     8    1    4 1  
     9    2    6 1  
    10    2    5 1  
    11    6   10 1  
    12   17   18 1  
    13   16   18 2  
    14   14   16 1  
    15   13   17 1  
    16   11   15 2  
    17   12   16 1  
    18   11   14 1  
    19    9   13 1  
    20    9   12 1  
    21    8   10 1  
    22    1   19 1  
    23    2   20 1  
    24    3   21 1  
    25    4   22 1  
    26    4   23 1  
    27    5   24 1  
    28    5   25 1  
    29    6   26 1  
    30    8   27 1  
    31    8   28 1  
    32    9   29 1  
    33   10   30 1  
    34   10   31 1  
    35   12   32 1  
    36   12   33 1  
    37   13   34 1  
    38   13   35 1  
    39   14   36 1  
    40   14   37 1  
    41   17   38 1  
    42   17   39 1  
    43   18   40 1  
# Name:          frag5-524-306/138278 -- energy: -7.605896
# Creation time: Sat Jun  5 12:53:41 2010


@<TRIPOS>MOLECULE
frag5-524-306/138278 -- energy: -7.605896
   40    43     1     1     1
SMALL
USER_CHARGES


@<TRIPOS>ATOM
      1 C1          4.0645   -0.1540    0.8174 C.3        1 <1>        0.000
      2 C2          2.9230    0.3791   -0.0810 C.3        1 <1>        0.000
      3 C3          5.4194    0.6109    0.7191 C.3        1 <1>        0.000
      4 C4          4.8219   -1.3729    0.2128 C.3        1 <1>        0.000
      5 C5          1.6603   -0.5112    0.1927 C.3        1 <1>        0.000
      6 C6          2.7582    1.9373    0.1037 C.3        1 <1>        0.000
      7 O2          5.9011   -0.4860   -0.0458 O.3        1 <1>        0.000
      8 C7          5.3133    1.9781    0.0355 C.3        1 <1>        0.000
      9 C9          0.5123   -0.5636   -0.8675 C.3        1 <1>        0.000
     10 C10         4.0521    2.6748    0.5672 C.3        1 <1>        0.000
     11 C11         1.6209    2.3448    1.0181 C.2        1 <1>        0.000
     12 C14         0.0293    0.8359   -1.2841 C.3        1 <1>        0.000
     13 C15        -0.7469   -1.3413   -0.3630 C.3        1 <1>        0.000
     14 C17         0.2977    2.7584    0.4196 C.3        1 <1>        0.000
     15 O7          1.7555    2.3264    2.2411 O.2        1 <1>        0.000
     16 C18        -0.3778    1.4865    0.0113 C.2        1 <1>        0.000
     17 C21        -1.8454   -0.4497    0.3002 C.3        1 <1>        0.000
     18 C23        -1.3029    0.8705    0.7604 C.2        1 <1>        0.000
     19 H           3.5052   -0.2015    1.7517 H.spc      1 <1>        0.000
     20 H           3.1326    0.2866   -1.1467 H.spc      1 <1>        0.000
     21 H           5.9828    0.9587    1.5850 H.spc      1 <1>        0.000
     22 H           4.9627   -2.2951    0.7766 H.spc      1 <1>        0.000
     23 H           4.3833   -1.9844   -0.5757 H.spc      1 <1>        0.000
     24 H           2.0441   -1.5305    0.2361 H.spc      1 <1>        0.000
     25 H           1.1997   -0.0739    1.0785 H.spc      1 <1>        0.000
     26 H           2.5207    2.2557   -0.9113 H.spc      1 <1>        0.000
     27 H           5.2497    1.8557   -1.0457 H.spc      1 <1>        0.000
     28 H           6.1966    2.5786    0.2531 H.spc      1 <1>        0.000
     29 H           0.9598   -1.0819   -1.7155 H.spc      1 <1>        0.000
     30 H           4.0846    2.6664    1.6567 H.spc      1 <1>        0.000
     31 H           4.0287    3.6931    0.1790 H.spc      1 <1>        0.000
     32 H           0.8038    1.4010   -1.8027 H.spc      1 <1>        0.000
     33 H          -0.7928    0.7917   -1.9985 H.spc      1 <1>        0.000
     34 H          -1.2024   -1.8071   -1.2369 H.spc      1 <1>        0.000
     35 H          -0.4029   -2.0396    0.4000 H.spc      1 <1>        0.000
     36 H          -0.3053    3.3165    1.1358 H.spc      1 <1>        0.000
     37 H           0.4375    3.4251   -0.4314 H.spc      1 <1>        0.000
     38 H          -2.6198   -0.2575   -0.4424 H.spc      1 <1>        0.000
     39 H          -2.2316   -0.9795    1.1710 H.spc      1 <1>        0.000
     40 H          -1.6549    1.3214    1.6882 H.spc      1 <1>        0.000
@<TRIPOS>BOND
     1    1    2 1  
     2    5    9 1  
     3    6   11 1  
     4    3    8 1  
     5    4    7 1  
     6    3    7 1  
     7    1    3 1  
     8    1    4 1  
     9    2    6 1  
    10    2    5 1  
    11    6   10 1  
    12   17   18 1  
    13   16   18 2  
    14   14   16 1  
    15   13   17 1  
    16   11   15 2  
    17   12   16 1  
    18   11   14 1  
    19    9   13 1  
    20    9   12 1  
    21    8   10 1  
    22    1   19 1  
    23    2   20 1  
    24    3   21 1  
    25    4   22 1  
    26    4   23 1  
    27    5   24 1  
    28    5   25 1  
    29    6   26 1  
    30    8   27 1  
    31    8   28 1  
    32    9   29 1  
    33   10   30 1  
    34   10   31 1  
    35   12   32 1  
    36   12   33 1  
    37   13   34 1  
    38   13   35 1  
    39   14   36 1  
    40   14   37 1  
    41   17   38 1  
    42   17   39 1  
    43   18   40 1  
