#      Rotatable Fragment
#      Build by yxyuan
#
# Name:          frag4-456-38/48856
# Creation time: Sat Jun  5 12:52:48 2010


@<TRIPOS>MOLECULE
frag4-456-38/48856
   13    13     1     1     1
SMALL
USER_CHARGES


@<TRIPOS>ATOM
      1 N1         -2.0470   -1.4869   -1.3889 N.3        1 <1>        0.000
      2 C1         -3.2269   -2.2988   -1.5134 C.3        1 <1>        0.000
      3 C2         -4.3069   -1.2937   -1.9368 C.3        1 <1>        0.000
      4 N2         -3.5954   -0.0459   -1.9960 N.3        1 <1>        0.000
      5 C3         -2.2631   -0.1585   -1.6731 C.3        1 <1>        0.000
      6 H          -1.3620   -1.8365   -2.0590 H.spc      1 <1>        0.000
      7 H          -3.4775   -2.8180   -0.5883 H.spc      1 <1>        0.000
      8 H          -3.1039   -3.1089   -2.2322 H.spc      1 <1>        0.000
      9 H          -5.1469   -1.2644   -1.2428 H.spc      1 <1>        0.000
     10 H          -4.7733   -1.5554   -2.8866 H.spc      1 <1>        0.000
     11 H          -4.0234    0.5837   -1.3171 H.spc      1 <1>        0.000
     12 H          -1.6303    0.1750   -2.4956 H.spc      1 <1>        0.000
     13 H          -2.0114    0.4715   -0.8199 H.spc      1 <1>        0.000
@<TRIPOS>BOND
     1    1    2 1  
     2    1    5 1  
     3    2    3 1  
     4    3    4 1  
     5    4    5 1  
     6    1    6 1  
     7    2    7 1  
     8    2    8 1  
     9    3    9 1  
    10    3   10 1  
    11    4   11 1  
    12    5   12 1  
    13    5   13 1  
# Name:          frag4-456-38/48856 -- energy: -0.622529
# Creation time: Sat Jun  5 12:52:48 2010


@<TRIPOS>MOLECULE
frag4-456-38/48856 -- energy: -0.622529
   13    13     1     1     1
SMALL
USER_CHARGES


@<TRIPOS>ATOM
      1 N1         -2.0470   -1.4869   -1.3889 N.3        1 <1>        0.000
      2 C1         -3.2269   -2.2988   -1.5134 C.3        1 <1>        0.000
      3 C2         -4.3069   -1.2937   -1.9368 C.3        1 <1>        0.000
      4 N2         -3.5954   -0.0459   -1.9960 N.3        1 <1>        0.000
      5 C3         -2.2631   -0.1585   -1.6731 C.3        1 <1>        0.000
      6 H          -1.3620   -1.8365   -2.0590 H.spc      1 <1>        0.000
      7 H          -3.4775   -2.8180   -0.5883 H.spc      1 <1>        0.000
      8 H          -3.1039   -3.1089   -2.2322 H.spc      1 <1>        0.000
      9 H          -5.1469   -1.2644   -1.2428 H.spc      1 <1>        0.000
     10 H          -4.7733   -1.5554   -2.8866 H.spc      1 <1>        0.000
     11 H          -4.0234    0.5837   -1.3171 H.spc      1 <1>        0.000
     12 H          -1.6303    0.1750   -2.4956 H.spc      1 <1>        0.000
     13 H          -2.0114    0.4715   -0.8199 H.spc      1 <1>        0.000
@<TRIPOS>BOND
     1    1    2 1  
     2    1    5 1  
     3    2    3 1  
     4    3    4 1  
     5    4    5 1  
     6    1    6 1  
     7    2    7 1  
     8    2    8 1  
     9    3    9 1  
    10    3   10 1  
    11    4   11 1  
    12    5   12 1  
    13    5   13 1  
