#      Rotatable Fragment
#      Build by yxyuan
#
# Name:          frag3-226-4/31924
# Creation time: Sat Jun  5 12:52:24 2010


@<TRIPOS>MOLECULE
frag3-226-4/31924
    6     5     1     1     1
SMALL
USER_CHARGES


@<TRIPOS>ATOM
      1 N1          1.1511    1.1032    0.6223 N.3        1 <1>        0.000
      2 O1          2.4775    1.4437    0.2545 O.3        1 <1>        0.000
      3 O4          0.4350    2.3099    0.5298 O.3        1 <1>        0.000
      4 H           0.7611    0.3815    0.0161 H.spc      1 <1>        0.000
      5 H           3.0307    0.6602    0.2948 H.spc      1 <1>        0.000
      6 H          -0.4823    2.1554    0.7672 H.spc      1 <1>        0.000
@<TRIPOS>BOND
     1    1    3 1  
     2    1    2 1  
     3    1    4 1  
     4    2    5 1  
     5    3    6 1  
# Name:          frag3-226-4/31924 -- energy: -0.093204
# Creation time: Sat Jun  5 12:52:24 2010


@<TRIPOS>MOLECULE
frag3-226-4/31924 -- energy: -0.093204
    6     5     1     1     1
SMALL
USER_CHARGES


@<TRIPOS>ATOM
      1 N1          1.1511    1.1032    0.6223 N.3        1 <1>        0.000
      2 O1          2.4775    1.4437    0.2545 O.3        1 <1>        0.000
      3 O4          0.4350    2.3099    0.5298 O.3        1 <1>        0.000
      4 H           0.7611    0.3815    0.0161 H.spc      1 <1>        0.000
      5 H           3.0307    0.6602    0.2948 H.spc      1 <1>        0.000
      6 H          -0.4823    2.1554    0.7672 H.spc      1 <1>        0.000
@<TRIPOS>BOND
     1    1    3 1  
     2    1    2 1  
     3    1    4 1  
     4    2    5 1  
     5    3    6 1  
