#      Rotatable Fragment
#      Build by yxyuan
#
# Name:          frag3-099-456/96164
# Creation time: Sat Jun  5 12:52:47 2010


@<TRIPOS>MOLECULE
frag3-099-456/96164
    8     7     1     1     1
SMALL
USER_CHARGES


@<TRIPOS>ATOM
      1 O5          1.2395   -0.0557    0.4781 O.3        1 <1>        0.000
      2 P1          0.0561   -0.6369   -0.3855 P.3        1 <1>        0.000
      3 O7          0.4849   -2.0698   -0.8401 O.3        1 <1>        0.000
      4 O8         -0.1763    0.3189   -1.6245 O.3        1 <1>        0.000
      5 O9         -1.1528   -0.6763    0.3819 O.2        1 <1>        0.000
      6 H           2.0405   -0.0364   -0.0506 H.spc      1 <1>        0.000
      7 H           1.2957   -2.0130   -1.3510 H.spc      1 <1>        0.000
      8 H           0.6250    0.3580   -2.1518 H.spc      1 <1>        0.000
@<TRIPOS>BOND
     1    1    2 1  
     2    2    3 1  
     3    2    4 1  
     4    2    5 2  
     5    1    6 1  
     6    3    7 1  
     7    4    8 1  
# Name:          frag3-099-456/96164 -- energy: -0.379682
# Creation time: Sat Jun  5 12:52:47 2010


@<TRIPOS>MOLECULE
frag3-099-456/96164 -- energy: -0.379682
    8     7     1     1     1
SMALL
USER_CHARGES


@<TRIPOS>ATOM
      1 O5          1.2395   -0.0557    0.4781 O.3        1 <1>        0.000
      2 P1          0.0561   -0.6369   -0.3855 P.3        1 <1>        0.000
      3 O7          0.4849   -2.0698   -0.8401 O.3        1 <1>        0.000
      4 O8         -0.1763    0.3189   -1.6245 O.3        1 <1>        0.000
      5 O9         -1.1528   -0.6763    0.3819 O.2        1 <1>        0.000
      6 H           2.0405   -0.0364   -0.0506 H.spc      1 <1>        0.000
      7 H           1.2957   -2.0130   -1.3510 H.spc      1 <1>        0.000
      8 H           0.6250    0.3580   -2.1518 H.spc      1 <1>        0.000
@<TRIPOS>BOND
     1    1    2 1  
     2    2    3 1  
     3    2    4 1  
     4    2    5 2  
     5    1    6 1  
     6    3    7 1  
     7    4    8 1  
