#      Rotatable Fragment
#      Build by yxyuan
#
# Name:          frag4-356-368/150395
# Creation time: Sat Jun  5 12:53:32 2010


@<TRIPOS>MOLECULE
frag4-356-368/150395
   17    18     1     1     1
SMALL
USER_CHARGES


@<TRIPOS>ATOM
      1 C1          0.6362   -0.4823   -0.0319 C.2        1 <1>        0.000
      2 C2          0.5398    0.9601    0.0775 C.2        1 <1>        0.000
      3 N1          1.9182   -0.8303   -0.0394 N.2        1 <1>        0.000
      4 N2         -0.4336   -1.2370   -0.0735 N.pl3      1 <1>        0.000
      5 C3         -0.7947    1.5740    0.1869 C.3        1 <1>        0.000
      6 N3          1.7223    1.4508    0.1063 N.2        1 <1>        0.000
      7 C4          2.6825    0.3843    0.0401 C.3        1 <1>        0.000
      8 C6         -1.7009   -0.7150    0.3822 C.3        1 <1>        0.000
      9 N4         -1.8813    0.6941    0.2717 N.3        1 <1>        0.000
     10 H          -0.3718   -2.1917   -0.4271 H.spc      1 <1>        0.000
     11 H          -0.9401    2.1464   -0.7293 H.spc      1 <1>        0.000
     12 H          -0.7913    2.1406    1.1180 H.spc      1 <1>        0.000
     13 H           3.3385    0.4959   -0.8232 H.spc      1 <1>        0.000
     14 H           3.3347    0.3846    0.9135 H.spc      1 <1>        0.000
     15 H          -2.4616   -1.1686   -0.2532 H.spc      1 <1>        0.000
     16 H          -1.7586   -0.9454    1.4460 H.spc      1 <1>        0.000
     17 H          -2.3298    0.9493    1.1516 H.spc      1 <1>        0.000
@<TRIPOS>BOND
     1    8    9 1  
     2    1    2 1  
     3    1    3 2  
     4    2    5 1  
     5    1    4 1  
     6    3    7 1  
     7    2    6 2  
     8    4    8 1  
     9    5    9 1  
    10    6    7 1  
    11    4   10 1  
    12    5   11 1  
    13    5   12 1  
    14    7   13 1  
    15    7   14 1  
    16    8   15 1  
    17    8   16 1  
    18    9   17 1  
# Name:          frag4-356-368/150395 -- energy: -0.970513
# Creation time: Sat Jun  5 12:53:32 2010


@<TRIPOS>MOLECULE
frag4-356-368/150395 -- energy: -0.970513
   17    18     1     1     1
SMALL
USER_CHARGES


@<TRIPOS>ATOM
      1 C1          0.6362   -0.4823   -0.0319 C.2        1 <1>        0.000
      2 C2          0.5398    0.9601    0.0775 C.2        1 <1>        0.000
      3 N1          1.9182   -0.8303   -0.0394 N.2        1 <1>        0.000
      4 N2         -0.4336   -1.2370   -0.0735 N.pl3      1 <1>        0.000
      5 C3         -0.7947    1.5740    0.1869 C.3        1 <1>        0.000
      6 N3          1.7223    1.4508    0.1063 N.2        1 <1>        0.000
      7 C4          2.6825    0.3843    0.0401 C.3        1 <1>        0.000
      8 C6         -1.7009   -0.7150    0.3822 C.3        1 <1>        0.000
      9 N4         -1.8813    0.6941    0.2717 N.3        1 <1>        0.000
     10 H          -0.3718   -2.1917   -0.4271 H.spc      1 <1>        0.000
     11 H          -0.9401    2.1464   -0.7293 H.spc      1 <1>        0.000
     12 H          -0.7913    2.1406    1.1180 H.spc      1 <1>        0.000
     13 H           3.3385    0.4959   -0.8232 H.spc      1 <1>        0.000
     14 H           3.3347    0.3846    0.9135 H.spc      1 <1>        0.000
     15 H          -2.4616   -1.1686   -0.2532 H.spc      1 <1>        0.000
     16 H          -1.7586   -0.9454    1.4460 H.spc      1 <1>        0.000
     17 H          -2.3298    0.9493    1.1516 H.spc      1 <1>        0.000
@<TRIPOS>BOND
     1    8    9 1  
     2    1    2 1  
     3    1    3 2  
     4    2    5 1  
     5    1    4 1  
     6    3    7 1  
     7    2    6 2  
     8    4    8 1  
     9    5    9 1  
    10    6    7 1  
    11    4   10 1  
    12    5   11 1  
    13    5   12 1  
    14    7   13 1  
    15    7   14 1  
    16    8   15 1  
    17    8   16 1  
    18    9   17 1  
