#      Rotatable Fragment
#      Build by yxyuan
#
# Name:          frag3-141-32/96164
# Creation time: Sat Jun  5 12:53:05 2010


@<TRIPOS>MOLECULE
frag3-141-32/96164
   10     9     1     1     1
SMALL
USER_CHARGES


@<TRIPOS>ATOM
      1 N1          0.6650   -0.3972    0.4434 N.am       1 <1>        0.000
      2 N2         -0.5641   -0.7247   -0.0158 N.am       1 <1>        0.000
      3 C6          1.5534    0.5108   -0.1187 C.2        1 <1>        0.000
      4 C10        -1.3817   -1.7191    0.4162 C.2        1 <1>        0.000
      5 O3          1.5062    1.2573   -1.0879 O.2        1 <1>        0.000
      6 O4         -1.2711   -2.5285    1.3306 O.2        1 <1>        0.000
      7 H           0.9730   -0.8677    1.2944 H.spc      1 <1>        0.000
      8 H          -0.9214   -0.1538   -0.7818 H.spc      1 <1>        0.000
      9 H           2.4986    0.5720    0.4207 H.spc      1 <1>        0.000
     10 H          -2.3054   -1.8154   -0.1544 H.spc      1 <1>        0.000
@<TRIPOS>BOND
     1    1    2 1  
     2    1    3 am 
     3    2    4 am 
     4    3    5 2  
     5    4    6 2  
     6    1    7 1  
     7    2    8 1  
     8    3    9 1  
     9    4   10 1  
# Name:          frag3-141-32/96164
# Creation time: Sat Jun  5 12:53:05 2010


@<TRIPOS>MOLECULE
frag3-141-32/96164
   10     9     1     1     1
SMALL
USER_CHARGES


@<TRIPOS>ATOM
      1 N1         -0.8774   -0.2816    0.5287 N.am       1 <1>        0.000
      2 N2          0.3618    0.2108    0.8161 N.am       1 <1>        0.000
      3 C6         -1.2628   -1.5796    0.3993 C.2        1 <1>        0.000
      4 C10         1.3944    0.4003   -0.0468 C.2        1 <1>        0.000
      5 O3         -0.6026   -2.5979    0.5275 O.2        1 <1>        0.000
      6 O4          1.4942    0.2467   -1.2571 O.2        1 <1>        0.000
      7 H          -1.6107    0.4144    0.3931 H.spc      1 <1>        0.000
      8 H           0.5327    0.4656    1.7888 H.spc      1 <1>        0.000
      9 H          -2.3116   -1.7321    0.1446 H.spc      1 <1>        0.000
     10 H           2.3076    0.7570    0.4295 H.spc      1 <1>        0.000
@<TRIPOS>BOND
     1    1    2 1  
     2    1    3 am 
     3    2    4 am 
     4    3    5 2  
     5    4    6 2  
     6    1    7 1  
     7    2    8 1  
     8    3    9 1  
     9    4   10 1  
# Name:          frag3-141-32/96164
# Creation time: Sat Jun  5 12:53:05 2010


@<TRIPOS>MOLECULE
frag3-141-32/96164
   10     9     1     1     1
SMALL
USER_CHARGES


@<TRIPOS>ATOM
      1 N1          0.4330   -0.2809    0.0856 N.am       1 <1>        0.000
      2 N2         -0.8211   -0.7878   -0.0974 N.am       1 <1>        0.000
      3 C6          1.1570    0.5724   -0.6839 C.2        1 <1>        0.000
      4 C10        -1.3856   -1.8576    0.5368 C.2        1 <1>        0.000
      5 O3          2.1642    1.2411   -0.4042 O.2        1 <1>        0.000
      6 O4         -1.0398   -2.4885    1.5308 O.2        1 <1>        0.000
      7 H           0.9013   -0.5929    0.9364 H.spc      1 <1>        0.000
      8 H          -1.4036   -0.3130   -0.7871 H.spc      1 <1>        0.000
      9 H           0.7974    0.6878   -1.7064 H.spc      1 <1>        0.000
     10 H          -2.3077   -2.2146    0.0782 H.spc      1 <1>        0.000
@<TRIPOS>BOND
     1    1    2 1  
     2    1    3 am 
     3    2    4 am 
     4    3    5 2  
     5    4    6 2  
     6    1    7 1  
     7    2    8 1  
     8    3    9 1  
     9    4   10 1  
# Name:          frag3-141-32/96164
# Creation time: Sat Jun  5 12:53:05 2010


@<TRIPOS>MOLECULE
frag3-141-32/96164
   10     9     1     1     1
SMALL
USER_CHARGES


@<TRIPOS>ATOM
      1 N1          0.3297   -0.1582   -0.2774 N.am       1 <1>        0.000
      2 N2         -0.0568   -1.1725    0.5679 N.am       1 <1>        0.000
      3 C6          1.3809    0.6960   -0.1887 C.2        1 <1>        0.000
      4 C10        -1.3193   -1.6843    0.6844 C.2        1 <1>        0.000
      5 O3          1.8855    1.4364   -1.0518 O.2        1 <1>        0.000
      6 O4         -1.7123   -2.7186    1.2333 O.2        1 <1>        0.000
      7 H          -0.2646   -0.0282   -1.0961 H.spc      1 <1>        0.000
      8 H           0.6649   -1.5802    1.1624 H.spc      1 <1>        0.000
      9 H           1.8569    0.7401    0.7909 H.spc      1 <1>        0.000
     10 H          -2.1023   -1.0851    0.2196 H.spc      1 <1>        0.000
@<TRIPOS>BOND
     1    1    2 1  
     2    1    3 am 
     3    2    4 am 
     4    3    5 2  
     5    4    6 2  
     6    1    7 1  
     7    2    8 1  
     8    3    9 1  
     9    4   10 1  
# Name:          frag3-141-32/96164
# Creation time: Sat Jun  5 12:53:05 2010


@<TRIPOS>MOLECULE
frag3-141-32/96164
   10     9     1     1     1
SMALL
USER_CHARGES


@<TRIPOS>ATOM
      1 N1         -0.5371   -0.6349    0.9092 N.am       1 <1>        0.000
      2 N2          0.3454    0.3194    0.4748 N.am       1 <1>        0.000
      3 C6         -0.8387   -1.8586    0.4171 C.2        1 <1>        0.000
      4 C10         1.1415    0.2588   -0.6311 C.2        1 <1>        0.000
      5 O3         -1.5534   -2.7563    0.8831 O.2        1 <1>        0.000
      6 O4          1.9500    1.0704   -1.0854 O.2        1 <1>        0.000
      7 H          -1.0564   -0.3782    1.7488 H.spc      1 <1>        0.000
      8 H           0.4143    1.1662    1.0393 H.spc      1 <1>        0.000
      9 H          -0.3790   -2.0917   -0.5433 H.spc      1 <1>        0.000
     10 H           1.0468   -0.6604   -1.2092 H.spc      1 <1>        0.000
@<TRIPOS>BOND
     1    1    2 1  
     2    1    3 am 
     3    2    4 am 
     4    3    5 2  
     5    4    6 2  
     6    1    7 1  
     7    2    8 1  
     8    3    9 1  
     9    4   10 1  
# Name:          frag3-141-32/96164
# Creation time: Sat Jun  5 12:53:05 2010


@<TRIPOS>MOLECULE
frag3-141-32/96164
   10     9     1     1     1
SMALL
USER_CHARGES


@<TRIPOS>ATOM
      1 N1          0.2652   -1.3156    0.8103 N.am       1 <1>        0.000
      2 N2          1.1456   -0.2723    0.7705 N.am       1 <1>        0.000
      3 C6         -1.0247   -1.3200    0.3854 C.2        1 <1>        0.000
      4 C10         1.2764    0.6640   -0.2078 C.2        1 <1>        0.000
      5 O3         -1.8858   -2.1899    0.4996 O.2        1 <1>        0.000
      6 O4          0.7310    0.8325   -1.2903 O.2        1 <1>        0.000
      7 H           0.6157   -2.1893    1.2031 H.spc      1 <1>        0.000
      8 H           1.7780   -0.1850    1.5660 H.spc      1 <1>        0.000
      9 H          -1.3443   -0.4170   -0.1348 H.spc      1 <1>        0.000
     10 H           2.0240    1.4237    0.0205 H.spc      1 <1>        0.000
@<TRIPOS>BOND
     1    1    2 1  
     2    1    3 am 
     3    2    4 am 
     4    3    5 2  
     5    4    6 2  
     6    1    7 1  
     7    2    8 1  
     8    3    9 1  
     9    4   10 1  
# Name:          frag3-141-32/96164 -- energy: -0.545704
# Creation time: Sat Jun  5 12:53:05 2010


@<TRIPOS>MOLECULE
frag3-141-32/96164 -- energy: -0.545704
   10     9     1     1     1
SMALL
USER_CHARGES


@<TRIPOS>ATOM
      1 N1          0.6650   -0.3972    0.4434 N.am       1 <1>        0.000
      2 N2         -0.5641   -0.7247   -0.0158 N.am       1 <1>        0.000
      3 C6          1.5534    0.5108   -0.1187 C.2        1 <1>        0.000
      4 C10        -1.3817   -1.7191    0.4162 C.2        1 <1>        0.000
      5 O3          1.5062    1.2573   -1.0879 O.2        1 <1>        0.000
      6 O4         -1.2711   -2.5285    1.3306 O.2        1 <1>        0.000
      7 H           0.9730   -0.8677    1.2944 H.spc      1 <1>        0.000
      8 H          -0.9214   -0.1538   -0.7818 H.spc      1 <1>        0.000
      9 H           2.4986    0.5720    0.4207 H.spc      1 <1>        0.000
     10 H          -2.3054   -1.8154   -0.1544 H.spc      1 <1>        0.000
@<TRIPOS>BOND
     1    1    2 1  
     2    1    3 am 
     3    2    4 am 
     4    3    5 2  
     5    4    6 2  
     6    1    7 1  
     7    2    8 1  
     8    3    9 1  
     9    4   10 1  
# Name:          frag3-141-32/96164 -- energy: -0.647387
# Creation time: Sat Jun  5 12:53:05 2010


@<TRIPOS>MOLECULE
frag3-141-32/96164 -- energy: -0.647387
   10     9     1     1     1
SMALL
USER_CHARGES


@<TRIPOS>ATOM
      1 N1         -0.8774   -0.2816    0.5287 N.am       1 <1>        0.000
      2 N2          0.3618    0.2108    0.8161 N.am       1 <1>        0.000
      3 C6         -1.2628   -1.5796    0.3993 C.2        1 <1>        0.000
      4 C10         1.3944    0.4003   -0.0468 C.2        1 <1>        0.000
      5 O3         -0.6026   -2.5979    0.5275 O.2        1 <1>        0.000
      6 O4          1.4942    0.2467   -1.2571 O.2        1 <1>        0.000
      7 H          -1.6107    0.4144    0.3931 H.spc      1 <1>        0.000
      8 H           0.5327    0.4656    1.7888 H.spc      1 <1>        0.000
      9 H          -2.3116   -1.7321    0.1446 H.spc      1 <1>        0.000
     10 H           2.3076    0.7570    0.4295 H.spc      1 <1>        0.000
@<TRIPOS>BOND
     1    1    2 1  
     2    1    3 am 
     3    2    4 am 
     4    3    5 2  
     5    4    6 2  
     6    1    7 1  
     7    2    8 1  
     8    3    9 1  
     9    4   10 1  
# Name:          frag3-141-32/96164 -- energy: -0.529071
# Creation time: Sat Jun  5 12:53:05 2010


@<TRIPOS>MOLECULE
frag3-141-32/96164 -- energy: -0.529071
   10     9     1     1     1
SMALL
USER_CHARGES


@<TRIPOS>ATOM
      1 N1          0.4330   -0.2809    0.0856 N.am       1 <1>        0.000
      2 N2         -0.8211   -0.7878   -0.0974 N.am       1 <1>        0.000
      3 C6          1.1570    0.5724   -0.6839 C.2        1 <1>        0.000
      4 C10        -1.3856   -1.8576    0.5368 C.2        1 <1>        0.000
      5 O3          2.1642    1.2411   -0.4042 O.2        1 <1>        0.000
      6 O4         -1.0398   -2.4885    1.5308 O.2        1 <1>        0.000
      7 H           0.9013   -0.5929    0.9364 H.spc      1 <1>        0.000
      8 H          -1.4036   -0.3130   -0.7871 H.spc      1 <1>        0.000
      9 H           0.7974    0.6878   -1.7064 H.spc      1 <1>        0.000
     10 H          -2.3077   -2.2146    0.0782 H.spc      1 <1>        0.000
@<TRIPOS>BOND
     1    1    2 1  
     2    1    3 am 
     3    2    4 am 
     4    3    5 2  
     5    4    6 2  
     6    1    7 1  
     7    2    8 1  
     8    3    9 1  
     9    4   10 1  
# Name:          frag3-141-32/96164 -- energy: -0.506739
# Creation time: Sat Jun  5 12:53:05 2010


@<TRIPOS>MOLECULE
frag3-141-32/96164 -- energy: -0.506739
   10     9     1     1     1
SMALL
USER_CHARGES


@<TRIPOS>ATOM
      1 N1          0.3297   -0.1582   -0.2774 N.am       1 <1>        0.000
      2 N2         -0.0568   -1.1725    0.5679 N.am       1 <1>        0.000
      3 C6          1.3809    0.6960   -0.1887 C.2        1 <1>        0.000
      4 C10        -1.3193   -1.6843    0.6844 C.2        1 <1>        0.000
      5 O3          1.8855    1.4364   -1.0518 O.2        1 <1>        0.000
      6 O4         -1.7123   -2.7186    1.2333 O.2        1 <1>        0.000
      7 H          -0.2646   -0.0282   -1.0961 H.spc      1 <1>        0.000
      8 H           0.6649   -1.5802    1.1624 H.spc      1 <1>        0.000
      9 H           1.8569    0.7401    0.7909 H.spc      1 <1>        0.000
     10 H          -2.1023   -1.0851    0.2196 H.spc      1 <1>        0.000
@<TRIPOS>BOND
     1    1    2 1  
     2    1    3 am 
     3    2    4 am 
     4    3    5 2  
     5    4    6 2  
     6    1    7 1  
     7    2    8 1  
     8    3    9 1  
     9    4   10 1  
# Name:          frag3-141-32/96164 -- energy: -0.539210
# Creation time: Sat Jun  5 12:53:05 2010


@<TRIPOS>MOLECULE
frag3-141-32/96164 -- energy: -0.539210
   10     9     1     1     1
SMALL
USER_CHARGES


@<TRIPOS>ATOM
      1 N1         -0.5371   -0.6349    0.9092 N.am       1 <1>        0.000
      2 N2          0.3454    0.3194    0.4748 N.am       1 <1>        0.000
      3 C6         -0.8387   -1.8586    0.4171 C.2        1 <1>        0.000
      4 C10         1.1415    0.2588   -0.6311 C.2        1 <1>        0.000
      5 O3         -1.5534   -2.7563    0.8831 O.2        1 <1>        0.000
      6 O4          1.9500    1.0704   -1.0854 O.2        1 <1>        0.000
      7 H          -1.0564   -0.3782    1.7488 H.spc      1 <1>        0.000
      8 H           0.4143    1.1662    1.0393 H.spc      1 <1>        0.000
      9 H          -0.3790   -2.0917   -0.5433 H.spc      1 <1>        0.000
     10 H           1.0468   -0.6604   -1.2092 H.spc      1 <1>        0.000
@<TRIPOS>BOND
     1    1    2 1  
     2    1    3 am 
     3    2    4 am 
     4    3    5 2  
     5    4    6 2  
     6    1    7 1  
     7    2    8 1  
     8    3    9 1  
     9    4   10 1  
# Name:          frag3-141-32/96164 -- energy: -0.666538
# Creation time: Sat Jun  5 12:53:05 2010


@<TRIPOS>MOLECULE
frag3-141-32/96164 -- energy: -0.666538
   10     9     1     1     1
SMALL
USER_CHARGES


@<TRIPOS>ATOM
      1 N1          0.2652   -1.3156    0.8103 N.am       1 <1>        0.000
      2 N2          1.1456   -0.2723    0.7705 N.am       1 <1>        0.000
      3 C6         -1.0247   -1.3200    0.3854 C.2        1 <1>        0.000
      4 C10         1.2764    0.6640   -0.2078 C.2        1 <1>        0.000
      5 O3         -1.8858   -2.1899    0.4996 O.2        1 <1>        0.000
      6 O4          0.7310    0.8325   -1.2903 O.2        1 <1>        0.000
      7 H           0.6157   -2.1893    1.2031 H.spc      1 <1>        0.000
      8 H           1.7780   -0.1850    1.5660 H.spc      1 <1>        0.000
      9 H          -1.3443   -0.4170   -0.1348 H.spc      1 <1>        0.000
     10 H           2.0240    1.4237    0.0205 H.spc      1 <1>        0.000
@<TRIPOS>BOND
     1    1    2 1  
     2    1    3 am 
     3    2    4 am 
     4    3    5 2  
     5    4    6 2  
     6    1    7 1  
     7    2    8 1  
     8    3    9 1  
     9    4   10 1  
