#      Rotatable Fragment
#      Build by yxyuan
#
# Name:          frag5-585-127/138278
# Creation time: Sat Jun  5 12:53:45 2010


@<TRIPOS>MOLECULE
frag5-585-127/138278
   26    27     1     1     1
SMALL
USER_CHARGES


@<TRIPOS>ATOM
      1 N1         -0.1732   -0.3470    0.0102 N.4        1 <1>        0.000
      2 C16         1.0126   -1.1169    0.4409 C.3        1 <1>        0.000
      3 C17        -0.0079    1.0710    0.4012 C.3        1 <1>        0.000
      4 C19         2.3913   -0.4888    0.1048 C.3        1 <1>        0.000
      5 C20         1.1934    1.6996   -0.3402 C.3        1 <1>        0.000
      6 N2          2.4302    0.9724   -0.0480 N.pl3      1 <1>        0.000
      7 C21         3.6055    1.6574   -0.0046 C.ar       1 <1>        0.000
      8 C22         4.8157    1.1677   -0.5183 C.ar       1 <1>        0.000
      9 N3          3.6131    2.8953    0.5480 N.ar       1 <1>        0.000
     10 C23         5.9667    1.9554   -0.4939 C.ar       1 <1>        0.000
     11 C24         4.7026    3.6901    0.5764 C.ar       1 <1>        0.000
     12 C25         5.9122    3.2412    0.0441 C.ar       1 <1>        0.000
     13 H          -0.2714   -0.4115   -1.0030 H.spc      1 <1>        0.000
     14 H          -1.0073   -0.7283    0.4567 H.spc      1 <1>        0.000
     15 H           0.9604   -1.1762    1.5280 H.spc      1 <1>        0.000
     16 H           0.9710   -2.0665   -0.0925 H.spc      1 <1>        0.000
     17 H          -0.9127    1.6189    0.1382 H.spc      1 <1>        0.000
     18 H           0.1713    1.1239    1.4751 H.spc      1 <1>        0.000
     19 H           3.0409   -0.7202    0.9490 H.spc      1 <1>        0.000
     20 H           2.6813   -0.9000   -0.8621 H.spc      1 <1>        0.000
     21 H           1.0055    1.6525   -1.4128 H.spc      1 <1>        0.000
     22 H           1.3079    2.7314   -0.0080 H.spc      1 <1>        0.000
     23 H           4.8569    0.1634   -0.9400 H.spc      1 <1>        0.000
     24 H           6.9040    1.5681   -0.8933 H.spc      1 <1>        0.000
     25 H           4.6382    4.6854    1.0161 H.spc      1 <1>        0.000
     26 H           6.7946    3.8811    0.0487 H.spc      1 <1>        0.000
@<TRIPOS>BOND
     1    7    8 ar 
     2    4    6 1  
     3   10   12 ar 
     4    9   11 ar 
     5   11   12 ar 
     6    5    6 1  
     7    3    5 1  
     8    8   10 ar 
     9    6    7 1  
    10    2    4 1  
    11    1    3 1  
    12    1    2 1  
    13    7    9 ar 
    14    1   13 1  
    15    1   14 1  
    16    2   15 1  
    17    2   16 1  
    18    3   17 1  
    19    3   18 1  
    20    4   19 1  
    21    4   20 1  
    22    5   21 1  
    23    5   22 1  
    24    8   23 1  
    25   10   24 1  
    26   11   25 1  
    27   12   26 1  
# Name:          frag5-585-127/138278
# Creation time: Sat Jun  5 12:53:45 2010


@<TRIPOS>MOLECULE
frag5-585-127/138278
   26    27     1     1     1
SMALL
USER_CHARGES


@<TRIPOS>ATOM
      1 N1         -0.1773   -0.2458    0.3456 N.4        1 <1>        0.000
      2 C16         0.0690    0.5163   -0.8977 C.3        1 <1>        0.000
      3 C17         1.0433   -0.9950    0.7176 C.3        1 <1>        0.000
      4 C19         1.2413    1.5256   -0.7273 C.3        1 <1>        0.000
      5 C20         2.1896   -0.0085    1.0634 C.3        1 <1>        0.000
      6 N2          2.3750    1.0804    0.0947 N.pl3      1 <1>        0.000
      7 C21         3.5863    1.7134    0.0438 C.ar       1 <1>        0.000
      8 C22         4.4440    1.6350   -1.0669 C.ar       1 <1>        0.000
      9 N3          3.9674    2.4658    1.0978 N.ar       1 <1>        0.000
     10 C23         5.6400    2.3605   -1.0765 C.ar       1 <1>        0.000
     11 C24         5.1094    3.1880    1.1103 C.ar       1 <1>        0.000
     12 C25         5.9744    3.1616    0.0156 C.ar       1 <1>        0.000
     13 H          -0.4211    0.3999    1.0966 H.spc      1 <1>        0.000
     14 H          -0.9448   -0.9007    0.1956 H.spc      1 <1>        0.000
     15 H           0.3323   -0.1877   -1.6871 H.spc      1 <1>        0.000
     16 H          -0.8339    1.0751   -1.1440 H.spc      1 <1>        0.000
     17 H           0.8307   -1.6157    1.5880 H.spc      1 <1>        0.000
     18 H           1.3496   -1.6193   -0.1218 H.spc      1 <1>        0.000
     19 H           1.6414    1.6953   -1.7269 H.spc      1 <1>        0.000
     20 H           0.8213    2.3930   -0.2181 H.spc      1 <1>        0.000
     21 H           1.9332    0.4546    2.0163 H.spc      1 <1>        0.000
     22 H           3.1138   -0.5863    1.0722 H.spc      1 <1>        0.000
     23 H           4.1777    1.0100   -1.9193 H.spc      1 <1>        0.000
     24 H           6.3089    2.3001   -1.9350 H.spc      1 <1>        0.000
     25 H           5.3566    3.7952    1.9811 H.spc      1 <1>        0.000
     26 H           6.8900    3.7531    0.0138 H.spc      1 <1>        0.000
@<TRIPOS>BOND
     1    7    8 ar 
     2    4    6 1  
     3   10   12 ar 
     4    9   11 ar 
     5   11   12 ar 
     6    5    6 1  
     7    3    5 1  
     8    8   10 ar 
     9    6    7 1  
    10    2    4 1  
    11    1    3 1  
    12    1    2 1  
    13    7    9 ar 
    14    1   13 1  
    15    1   14 1  
    16    2   15 1  
    17    2   16 1  
    18    3   17 1  
    19    3   18 1  
    20    4   19 1  
    21    4   20 1  
    22    5   21 1  
    23    5   22 1  
    24    8   23 1  
    25   10   24 1  
    26   11   25 1  
    27   12   26 1  
# Name:          frag5-585-127/138278 -- energy: -2.211098
# Creation time: Sat Jun  5 12:53:45 2010


@<TRIPOS>MOLECULE
frag5-585-127/138278 -- energy: -2.211098
   26    27     1     1     1
SMALL
USER_CHARGES


@<TRIPOS>ATOM
      1 N1         -0.1732   -0.3470    0.0102 N.4        1 <1>        0.000
      2 C16         1.0126   -1.1169    0.4409 C.3        1 <1>        0.000
      3 C17        -0.0079    1.0710    0.4012 C.3        1 <1>        0.000
      4 C19         2.3913   -0.4888    0.1048 C.3        1 <1>        0.000
      5 C20         1.1934    1.6996   -0.3402 C.3        1 <1>        0.000
      6 N2          2.4302    0.9724   -0.0480 N.pl3      1 <1>        0.000
      7 C21         3.6055    1.6574   -0.0046 C.ar       1 <1>        0.000
      8 C22         4.8157    1.1677   -0.5183 C.ar       1 <1>        0.000
      9 N3          3.6131    2.8953    0.5480 N.ar       1 <1>        0.000
     10 C23         5.9667    1.9554   -0.4939 C.ar       1 <1>        0.000
     11 C24         4.7026    3.6901    0.5764 C.ar       1 <1>        0.000
     12 C25         5.9122    3.2412    0.0441 C.ar       1 <1>        0.000
     13 H          -0.2714   -0.4115   -1.0030 H.spc      1 <1>        0.000
     14 H          -1.0073   -0.7283    0.4567 H.spc      1 <1>        0.000
     15 H           0.9604   -1.1762    1.5280 H.spc      1 <1>        0.000
     16 H           0.9710   -2.0665   -0.0925 H.spc      1 <1>        0.000
     17 H          -0.9127    1.6189    0.1382 H.spc      1 <1>        0.000
     18 H           0.1713    1.1239    1.4751 H.spc      1 <1>        0.000
     19 H           3.0409   -0.7202    0.9490 H.spc      1 <1>        0.000
     20 H           2.6813   -0.9000   -0.8621 H.spc      1 <1>        0.000
     21 H           1.0055    1.6525   -1.4128 H.spc      1 <1>        0.000
     22 H           1.3079    2.7314   -0.0080 H.spc      1 <1>        0.000
     23 H           4.8569    0.1634   -0.9400 H.spc      1 <1>        0.000
     24 H           6.9040    1.5681   -0.8933 H.spc      1 <1>        0.000
     25 H           4.6382    4.6854    1.0161 H.spc      1 <1>        0.000
     26 H           6.7946    3.8811    0.0487 H.spc      1 <1>        0.000
@<TRIPOS>BOND
     1    7    8 ar 
     2    4    6 1  
     3   10   12 ar 
     4    9   11 ar 
     5   11   12 ar 
     6    5    6 1  
     7    3    5 1  
     8    8   10 ar 
     9    6    7 1  
    10    2    4 1  
    11    1    3 1  
    12    1    2 1  
    13    7    9 ar 
    14    1   13 1  
    15    1   14 1  
    16    2   15 1  
    17    2   16 1  
    18    3   17 1  
    19    3   18 1  
    20    4   19 1  
    21    4   20 1  
    22    5   21 1  
    23    5   22 1  
    24    8   23 1  
    25   10   24 1  
    26   11   25 1  
    27   12   26 1  
# Name:          frag5-585-127/138278 -- energy: -2.458569
# Creation time: Sat Jun  5 12:53:45 2010


@<TRIPOS>MOLECULE
frag5-585-127/138278 -- energy: -2.458569
   26    27     1     1     1
SMALL
USER_CHARGES


@<TRIPOS>ATOM
      1 N1         -0.1773   -0.2458    0.3456 N.4        1 <1>        0.000
      2 C16         0.0690    0.5163   -0.8977 C.3        1 <1>        0.000
      3 C17         1.0433   -0.9950    0.7176 C.3        1 <1>        0.000
      4 C19         1.2413    1.5256   -0.7273 C.3        1 <1>        0.000
      5 C20         2.1896   -0.0085    1.0634 C.3        1 <1>        0.000
      6 N2          2.3750    1.0804    0.0947 N.pl3      1 <1>        0.000
      7 C21         3.5863    1.7134    0.0438 C.ar       1 <1>        0.000
      8 C22         4.4440    1.6350   -1.0669 C.ar       1 <1>        0.000
      9 N3          3.9674    2.4658    1.0978 N.ar       1 <1>        0.000
     10 C23         5.6400    2.3605   -1.0765 C.ar       1 <1>        0.000
     11 C24         5.1094    3.1880    1.1103 C.ar       1 <1>        0.000
     12 C25         5.9744    3.1616    0.0156 C.ar       1 <1>        0.000
     13 H          -0.4211    0.3999    1.0966 H.spc      1 <1>        0.000
     14 H          -0.9448   -0.9007    0.1956 H.spc      1 <1>        0.000
     15 H           0.3323   -0.1877   -1.6871 H.spc      1 <1>        0.000
     16 H          -0.8339    1.0751   -1.1440 H.spc      1 <1>        0.000
     17 H           0.8307   -1.6157    1.5880 H.spc      1 <1>        0.000
     18 H           1.3496   -1.6193   -0.1218 H.spc      1 <1>        0.000
     19 H           1.6414    1.6953   -1.7269 H.spc      1 <1>        0.000
     20 H           0.8213    2.3930   -0.2181 H.spc      1 <1>        0.000
     21 H           1.9332    0.4546    2.0163 H.spc      1 <1>        0.000
     22 H           3.1138   -0.5863    1.0722 H.spc      1 <1>        0.000
     23 H           4.1777    1.0100   -1.9193 H.spc      1 <1>        0.000
     24 H           6.3089    2.3001   -1.9350 H.spc      1 <1>        0.000
     25 H           5.3566    3.7952    1.9811 H.spc      1 <1>        0.000
     26 H           6.8900    3.7531    0.0138 H.spc      1 <1>        0.000
@<TRIPOS>BOND
     1    7    8 ar 
     2    4    6 1  
     3   10   12 ar 
     4    9   11 ar 
     5   11   12 ar 
     6    5    6 1  
     7    3    5 1  
     8    8   10 ar 
     9    6    7 1  
    10    2    4 1  
    11    1    3 1  
    12    1    2 1  
    13    7    9 ar 
    14    1   13 1  
    15    1   14 1  
    16    2   15 1  
    17    2   16 1  
    18    3   17 1  
    19    3   18 1  
    20    4   19 1  
    21    4   20 1  
    22    5   21 1  
    23    5   22 1  
    24    8   23 1  
    25   10   24 1  
    26   11   25 1  
    27   12   26 1  
