#      Rotatable Fragment
#      Build by yxyuan
#
# Name:          frag3-253-4/96164
# Creation time: Sat Jun  5 12:53:17 2010


@<TRIPOS>MOLECULE
frag3-253-4/96164
   23    22     1     1     1
SMALL
USER_CHARGES


@<TRIPOS>ATOM
      1 O4          4.4156   -0.3079   -0.9104 O.3        1 <1>        0.000
      2 P1          3.0150   -1.0426   -0.8717 P.3        1 <1>        0.000
      3 O5          2.1656   -0.5231   -2.0971 O.3        1 <1>        0.000
      4 O6          3.2484   -2.4705   -0.9928 O.2        1 <1>        0.000
      5 O7          2.2717   -0.6718    0.4419 O.3        1 <1>        0.000
      6 P2          2.5311   -0.7582   -3.6028 P.3        1 <1>        0.000
      7 O8          4.0631   -0.3990   -3.7777 O.3        1 <1>        0.000
      8 O15         3.4878    3.2868   -7.2623 O.3        1 <1>        0.000
      9 O9          1.7732    0.0487   -4.5424 O.2        1 <1>        0.000
     10 O10         2.3497   -2.2948   -3.8349 O.3        1 <1>        0.000
     11 P3          4.6007    1.0322   -4.0420 P.3        1 <1>        0.000
     12 O11         4.3038    1.5307   -5.5009 O.3        1 <1>        0.000
     13 O12         3.7902    1.9322   -3.1928 O.2        1 <1>        0.000
     14 O13         6.1314    1.1808   -3.8170 O.3        1 <1>        0.000
     15 P4          3.5763    2.9015   -5.7502 P.3        1 <1>        0.000
     16 O14         2.0927    2.6980   -5.2446 O.3        1 <1>        0.000
     17 O16         4.2376    3.8859   -4.9175 O.2        1 <1>        0.000
     18 H           4.2811    0.6393   -0.8314 H.spc      1 <1>        0.000
     19 H           2.1407    0.2786    0.4768 H.spc      1 <1>        0.000
     20 H           3.0390    2.5879   -7.7437 H.spc      1 <1>        0.000
     21 H           2.8702   -2.7784   -3.1893 H.spc      1 <1>        0.000
     22 H           6.5991    0.5730   -4.3945 H.spc      1 <1>        0.000
     23 H           1.6545    2.0458   -5.7962 H.spc      1 <1>        0.000
@<TRIPOS>BOND
     1    7   11 1  
     2   11   12 1  
     3    2    3 1  
     4   15   16 1  
     5    1    2 1  
     6   11   14 1  
     7    6    9 2  
     8   15   17 2  
     9    2    5 1  
    10   15    8 1  
    11    6   10 1  
    12   12   15 1  
    13    6    7 1  
    14    2    4 2  
    15    3    6 1  
    16   11   13 2  
    17    1   18 1  
    18    5   19 1  
    19    8   20 1  
    20   10   21 1  
    21   14   22 1  
    22   16   23 1  
# Name:          frag3-253-4/96164
# Creation time: Sat Jun  5 12:53:17 2010


@<TRIPOS>MOLECULE
frag3-253-4/96164
   23    22     1     1     1
SMALL
USER_CHARGES


@<TRIPOS>ATOM
      1 O4          4.1309    0.0699   -0.6807 O.3        1 <1>        0.000
      2 P1          3.0873   -1.1038   -0.8107 P.3        1 <1>        0.000
      3 O5          2.1116   -0.7828   -2.0113 O.3        1 <1>        0.000
      4 O6          3.8085   -2.3330   -1.0867 O.2        1 <1>        0.000
      5 O7          2.2511   -1.1949    0.4991 O.3        1 <1>        0.000
      6 P2          2.4644   -0.9881   -3.5281 P.3        1 <1>        0.000
      7 O8          3.9175   -0.4012   -3.7459 O.3        1 <1>        0.000
      8 O15         3.5549    3.3075   -7.3995 O.3        1 <1>        0.000
      9 O9          1.5665   -0.3249   -4.4440 O.2        1 <1>        0.000
     10 O10         2.5115   -2.5394   -3.7272 O.3        1 <1>        0.000
     11 P3          4.1997    1.0844   -4.0441 P.3        1 <1>        0.000
     12 O11         3.8599    1.5271   -5.5118 O.3        1 <1>        0.000
     13 O12         3.2962    1.8765   -3.1885 O.2        1 <1>        0.000
     14 O13         5.7112    1.4639   -3.8593 O.3        1 <1>        0.000
     15 P4          3.8491    3.0472   -5.8765 P.3        1 <1>        0.000
     16 O14         2.6439    3.7009   -5.0891 O.3        1 <1>        0.000
     17 O16         5.0899    3.6195   -5.4112 O.2        1 <1>        0.000
     18 H           3.6670    0.8903   -0.4978 H.spc      1 <1>        0.000
     19 H           1.7922   -0.3640    0.6429 H.spc      1 <1>        0.000
     20 H           2.7185    2.9004   -7.6368 H.spc      1 <1>        0.000
     21 H           3.1219   -2.9238   -3.0937 H.spc      1 <1>        0.000
     22 H           6.2498    0.9193   -4.4380 H.spc      1 <1>        0.000
     23 H           1.8180    3.3211   -5.3977 H.spc      1 <1>        0.000
@<TRIPOS>BOND
     1    7   11 1  
     2   11   12 1  
     3    2    3 1  
     4   15   16 1  
     5    1    2 1  
     6   11   14 1  
     7    6    9 2  
     8   15   17 2  
     9    2    5 1  
    10   15    8 1  
    11    6   10 1  
    12   12   15 1  
    13    6    7 1  
    14    2    4 2  
    15    3    6 1  
    16   11   13 2  
    17    1   18 1  
    18    5   19 1  
    19    8   20 1  
    20   10   21 1  
    21   14   22 1  
    22   16   23 1  
# Name:          frag3-253-4/96164
# Creation time: Sat Jun  5 12:53:18 2010


@<TRIPOS>MOLECULE
frag3-253-4/96164
   23    22     1     1     1
SMALL
USER_CHARGES


@<TRIPOS>ATOM
      1 O4          4.2177    0.0527   -0.7183 O.3        1 <1>        0.000
      2 P1          3.1363   -1.1016   -0.8161 P.3        1 <1>        0.000
      3 O5          2.1285   -0.7557   -1.9722 O.3        1 <1>        0.000
      4 O6          3.8336   -2.3460   -1.1121 O.2        1 <1>        0.000
      5 O7          2.3997   -1.1700    0.5557 O.3        1 <1>        0.000
      6 P2          2.4276   -0.9724   -3.4978 P.3        1 <1>        0.000
      7 O8          3.8792   -0.4187   -3.7722 O.3        1 <1>        0.000
      8 O15         2.3525    3.6465   -5.5868 O.3        1 <1>        0.000
      9 O9          1.5019   -0.2877   -4.3827 O.2        1 <1>        0.000
     10 O10         2.4310   -2.5237   -3.7033 O.3        1 <1>        0.000
     11 P3          4.1739    1.0616   -4.0877 P.3        1 <1>        0.000
     12 O11         3.7873    1.5154   -5.5402 O.3        1 <1>        0.000
     13 O12         3.3229    1.8871   -3.1993 O.2        1 <1>        0.000
     14 O13         5.7009    1.4212   -3.9536 O.3        1 <1>        0.000
     15 P4          3.7716    3.0237   -5.9291 P.3        1 <1>        0.000
     16 O14         4.7756    3.7336   -4.9153 O.3        1 <1>        0.000
     17 O16         4.2138    3.2626   -7.2843 O.2        1 <1>        0.000
     18 H           3.7796    0.8844   -0.5233 H.spc      1 <1>        0.000
     19 H           1.9521   -0.3366    0.7192 H.spc      1 <1>        0.000
     20 H           2.1284    3.4473   -4.6748 H.spc      1 <1>        0.000
     21 H           3.0574   -2.9244   -3.0961 H.spc      1 <1>        0.000
     22 H           6.2128    0.8642   -4.5447 H.spc      1 <1>        0.000
     23 H           4.4835    3.5760   -4.0145 H.spc      1 <1>        0.000
@<TRIPOS>BOND
     1    7   11 1  
     2   11   12 1  
     3    2    3 1  
     4   15   16 1  
     5    1    2 1  
     6   11   14 1  
     7    6    9 2  
     8   15   17 2  
     9    2    5 1  
    10   15    8 1  
    11    6   10 1  
    12   12   15 1  
    13    6    7 1  
    14    2    4 2  
    15    3    6 1  
    16   11   13 2  
    17    1   18 1  
    18    5   19 1  
    19    8   20 1  
    20   10   21 1  
    21   14   22 1  
    22   16   23 1  
# Name:          frag3-253-4/96164
# Creation time: Sat Jun  5 12:53:18 2010


@<TRIPOS>MOLECULE
frag3-253-4/96164
   23    22     1     1     1
SMALL
USER_CHARGES


@<TRIPOS>ATOM
      1 O4          2.6737   -0.6790    0.0225 O.3        1 <1>        0.000
      2 P1          2.8549    0.1218   -1.3162 P.3        1 <1>        0.000
      3 O5          3.7520   -0.6929   -2.3192 O.3        1 <1>        0.000
      4 O6          1.5477    0.3481   -1.9146 O.2        1 <1>        0.000
      5 O7          3.5717    1.4776   -0.9967 O.3        1 <1>        0.000
      6 P2          3.1826   -1.6195   -3.4715 P.3        1 <1>        0.000
      7 O8          2.4495   -0.6719   -4.4897 O.3        1 <1>        0.000
      8 O15         5.6708    2.3427   -3.8992 O.3        1 <1>        0.000
      9 O9          2.3288   -2.6323   -2.8877 O.2        1 <1>        0.000
     10 O10         4.3870   -2.2233   -4.2772 O.3        1 <1>        0.000
     11 P3          3.1027    0.6087   -5.0670 P.3        1 <1>        0.000
     12 O11         3.1644    1.8299   -4.0790 O.3        1 <1>        0.000
     13 O12         4.5400    0.2972   -5.3253 O.2        1 <1>        0.000
     14 O13         2.3788    1.1479   -6.3506 O.3        1 <1>        0.000
     15 P4          4.2377    2.9547   -4.2393 P.3        1 <1>        0.000
     16 O14         4.2871    3.2645   -5.7982 O.3        1 <1>        0.000
     17 O16         3.9245    4.1547   -3.5062 O.2        1 <1>        0.000
     18 H           3.5333   -0.8312    0.4219 H.spc      1 <1>        0.000
     19 H           4.4295    1.3000   -0.6039 H.spc      1 <1>        0.000
     20 H           5.8109    1.5494   -4.4214 H.spc      1 <1>        0.000
     21 H           4.9172   -1.5101   -4.6404 H.spc      1 <1>        0.000
     22 H           1.4604    1.3356   -6.1436 H.spc      1 <1>        0.000
     23 H           4.4963    2.4591   -6.2769 H.spc      1 <1>        0.000
@<TRIPOS>BOND
     1    7   11 1  
     2   11   12 1  
     3    2    3 1  
     4   15   16 1  
     5    1    2 1  
     6   11   14 1  
     7    6    9 2  
     8   15   17 2  
     9    2    5 1  
    10   15    8 1  
    11    6   10 1  
    12   12   15 1  
    13    6    7 1  
    14    2    4 2  
    15    3    6 1  
    16   11   13 2  
    17    1   18 1  
    18    5   19 1  
    19    8   20 1  
    20   10   21 1  
    21   14   22 1  
    22   16   23 1  
# Name:          frag3-253-4/96164
# Creation time: Sat Jun  5 12:53:18 2010


@<TRIPOS>MOLECULE
frag3-253-4/96164
   23    22     1     1     1
SMALL
USER_CHARGES


@<TRIPOS>ATOM
      1 O4          3.1979   -0.4305   -0.1682 O.3        1 <1>        0.000
      2 P1          4.1119   -1.1031   -1.2661 P.3        1 <1>        0.000
      3 O5          3.1804   -1.7136   -2.3642 O.3        1 <1>        0.000
      4 O6          4.9623   -0.0687   -1.8364 O.2        1 <1>        0.000
      5 O7          4.9355   -2.2465   -0.6034 O.3        1 <1>        0.000
      6 P2          2.2093   -0.9327   -3.3033 P.3        1 <1>        0.000
      7 O8          3.0084    0.1811   -4.0847 O.3        1 <1>        0.000
      8 O15         3.1242    2.4941   -6.6350 O.3        1 <1>        0.000
      9 O9          1.2335   -0.2216   -2.4634 O.2        1 <1>        0.000
     10 O10         1.5212   -1.8604   -4.3367 O.3        1 <1>        0.000
     11 P3          2.8957    1.7216   -3.7796 P.3        1 <1>        0.000
     12 O11         4.0968    2.5396   -4.3096 O.3        1 <1>        0.000
     13 O12         1.7001    2.2379   -4.4462 O.2        1 <1>        0.000
     14 O13         2.8447    1.8480   -2.2127 O.3        1 <1>        0.000
     15 P4          4.5012    2.5007   -5.7990 P.3        1 <1>        0.000
     16 O14         5.2486    3.7791   -6.2504 O.3        1 <1>        0.000
     17 O16         5.2821    1.3038   -6.0566 O.2        1 <1>        0.000
     18 H           2.6269   -1.0959    0.2227 H.spc      1 <1>        0.000
     19 H           4.3358   -2.9034   -0.2423 H.spc      1 <1>        0.000
     20 H           2.6315    3.2956   -6.4442 H.spc      1 <1>        0.000
     21 H           2.1908   -2.3040   -4.8626 H.spc      1 <1>        0.000
     22 H           3.6542    1.4935   -1.8377 H.spc      1 <1>        0.000
     23 H           4.7049    4.5484   -6.0656 H.spc      1 <1>        0.000
@<TRIPOS>BOND
     1    7   11 1  
     2   11   12 1  
     3    2    3 1  
     4   15   16 1  
     5    1    2 1  
     6   11   14 1  
     7    6    9 2  
     8   15   17 2  
     9    2    5 1  
    10   15    8 1  
    11    6   10 1  
    12   12   15 1  
    13    6    7 1  
    14    2    4 2  
    15    3    6 1  
    16   11   13 2  
    17    1   18 1  
    18    5   19 1  
    19    8   20 1  
    20   10   21 1  
    21   14   22 1  
    22   16   23 1  
# Name:          frag3-253-4/96164
# Creation time: Sat Jun  5 12:53:18 2010


@<TRIPOS>MOLECULE
frag3-253-4/96164
   23    22     1     1     1
SMALL
USER_CHARGES


@<TRIPOS>ATOM
      1 O4          3.8498    0.6369   -1.3637 O.3        1 <1>        0.000
      2 P1          2.7065   -0.4354   -1.1371 P.3        1 <1>        0.000
      3 O5          2.0750   -0.7581   -2.5549 O.3        1 <1>        0.000
      4 O6          3.3074   -1.6312   -0.5685 O.2        1 <1>        0.000
      5 O7          1.5965    0.1607   -0.2271 O.3        1 <1>        0.000
      6 P2          2.8596   -1.4287   -3.7453 P.3        1 <1>        0.000
      7 O8          4.2587   -0.6973   -3.8428 O.3        1 <1>        0.000
      8 O15         4.8550    3.8757   -4.0276 O.3        1 <1>        0.000
      9 O9          2.1846   -1.3090   -5.0278 O.2        1 <1>        0.000
     10 O10         3.0884   -2.9088   -3.3063 O.3        1 <1>        0.000
     11 P3          4.4579    0.6583   -4.5385 P.3        1 <1>        0.000
     12 O11         3.4216    1.7623   -4.0484 O.3        1 <1>        0.000
     13 O12         5.7653    1.2667   -4.3886 O.2        1 <1>        0.000
     14 O13         4.0430    0.4838   -6.0765 O.3        1 <1>        0.000
     15 P4          3.5115    3.2274   -4.5916 P.3        1 <1>        0.000
     16 O14         3.7419    3.1147   -6.1531 O.3        1 <1>        0.000
     17 O16         2.3310    4.0108   -4.3174 O.2        1 <1>        0.000
     18 H           3.4693    1.4342   -1.7394 H.spc      1 <1>        0.000
     19 H           1.2309    0.9452   -0.6423 H.spc      1 <1>        0.000
     20 H           5.5981    3.3074   -4.2430 H.spc      1 <1>        0.000
     21 H           3.5355   -2.9240   -2.4569 H.spc      1 <1>        0.000
     22 H           3.1741    0.0789   -6.1284 H.spc      1 <1>        0.000
     23 H           4.5291    2.5919   -6.3224 H.spc      1 <1>        0.000
@<TRIPOS>BOND
     1    7   11 1  
     2   11   12 1  
     3    2    3 1  
     4   15   16 1  
     5    1    2 1  
     6   11   14 1  
     7    6    9 2  
     8   15   17 2  
     9    2    5 1  
    10   15    8 1  
    11    6   10 1  
    12   12   15 1  
    13    6    7 1  
    14    2    4 2  
    15    3    6 1  
    16   11   13 2  
    17    1   18 1  
    18    5   19 1  
    19    8   20 1  
    20   10   21 1  
    21   14   22 1  
    22   16   23 1  
# Name:          frag3-253-4/96164
# Creation time: Sat Jun  5 12:53:18 2010


@<TRIPOS>MOLECULE
frag3-253-4/96164
   23    22     1     1     1
SMALL
USER_CHARGES


@<TRIPOS>ATOM
      1 O4          4.1648    3.3131   -3.1999 O.3        1 <1>        0.000
      2 P1          3.9307    3.1670   -4.7590 P.3        1 <1>        0.000
      3 O5          4.7748    1.9586   -5.2797 O.3        1 <1>        0.000
      4 O6          2.5121    2.9326   -4.9799 O.2        1 <1>        0.000
      5 O7          4.4085    4.4926   -5.4262 O.3        1 <1>        0.000
      6 P2          4.3887    0.4745   -5.1200 P.3        1 <1>        0.000
      7 O8          3.5791    0.2316   -3.7780 O.3        1 <1>        0.000
      8 O15         2.4630    1.2396   -1.1398 O.3        1 <1>        0.000
      9 O9          5.4725   -0.4803   -5.2042 O.2        1 <1>        0.000
     10 O10         3.2777    0.1952   -6.2289 O.3        1 <1>        0.000
     11 P3          2.7848   -1.1095   -3.4769 P.3        1 <1>        0.000
     12 O11         2.0066   -1.0454   -2.1483 O.3        1 <1>        0.000
     13 O12         1.9320   -1.3820   -4.6133 O.2        1 <1>        0.000
     14 O13         3.9139   -2.2064   -3.2424 O.3        1 <1>        0.000
     15 P4          2.6107   -0.3269   -0.8978 P.3        1 <1>        0.000
     16 O14         1.8328   -0.6820    0.3906 O.3        1 <1>        0.000
     17 O16         4.0012   -0.7435   -0.8116 O.2        1 <1>        0.000
     18 H           5.0968    3.4688   -3.0306 H.spc      1 <1>        0.000
     19 H           5.3462    4.6134   -5.2598 H.spc      1 <1>        0.000
     20 H           1.5319    1.4681   -1.1898 H.spc      1 <1>        0.000
     21 H           2.5747    0.8438   -6.1465 H.spc      1 <1>        0.000
     22 H           4.4399   -1.9640   -2.4768 H.spc      1 <1>        0.000
     23 H           0.9211   -0.3947    0.3020 H.spc      1 <1>        0.000
@<TRIPOS>BOND
     1    7   11 1  
     2   11   12 1  
     3    2    3 1  
     4   15   16 1  
     5    1    2 1  
     6   11   14 1  
     7    6    9 2  
     8   15   17 2  
     9    2    5 1  
    10   15    8 1  
    11    6   10 1  
    12   12   15 1  
    13    6    7 1  
    14    2    4 2  
    15    3    6 1  
    16   11   13 2  
    17    1   18 1  
    18    5   19 1  
    19    8   20 1  
    20   10   21 1  
    21   14   22 1  
    22   16   23 1  
# Name:          frag3-253-4/96164
# Creation time: Sat Jun  5 12:53:18 2010


@<TRIPOS>MOLECULE
frag3-253-4/96164
   23    22     1     1     1
SMALL
USER_CHARGES


@<TRIPOS>ATOM
      1 O4          3.3293   -1.5688   -0.4654 O.3        1 <1>        0.000
      2 P1          3.9625   -0.4691   -1.4079 P.3        1 <1>        0.000
      3 O5          3.7894   -0.9887   -2.8897 O.3        1 <1>        0.000
      4 O6          3.2327    0.7752   -1.2223 O.2        1 <1>        0.000
      5 O7          5.4782   -0.3214   -1.1003 O.3        1 <1>        0.000
      6 P2          2.4009   -1.2820   -3.6038 P.3        1 <1>        0.000
      7 O8          1.6493    0.0892   -3.6868 O.3        1 <1>        0.000
      8 O15         4.7780    2.1680   -6.3859 O.3        1 <1>        0.000
      9 O9          1.6987   -2.2998   -2.8488 O.2        1 <1>        0.000
     10 O10         2.6855   -1.6988   -5.0860 O.3        1 <1>        0.000
     11 P3          2.3010    1.3707   -4.2561 P.3        1 <1>        0.000
     12 O11         3.8938    1.3375   -4.1282 O.3        1 <1>        0.000
     13 O12         2.0746    1.5009   -5.6968 O.2        1 <1>        0.000
     14 O13         1.9162    2.6683   -3.4523 O.3        1 <1>        0.000
     15 P4          4.7818    2.4253   -4.8185 P.3        1 <1>        0.000
     16 O14         3.9843    3.7848   -4.6255 O.3        1 <1>        0.000
     17 O16         6.0976    2.5374   -4.2409 O.2        1 <1>        0.000
     18 H           3.8025   -2.3964   -0.5783 H.spc      1 <1>        0.000
     19 H           5.9150   -1.1654   -1.2366 H.spc      1 <1>        0.000
     20 H           3.8718    2.1051   -6.6965 H.spc      1 <1>        0.000
     21 H           3.1504   -0.9880   -5.5335 H.spc      1 <1>        0.000
     22 H           2.0845    2.5262   -2.5179 H.spc      1 <1>        0.000
     23 H           3.1102    3.6996   -5.0133 H.spc      1 <1>        0.000
@<TRIPOS>BOND
     1    7   11 1  
     2   11   12 1  
     3    2    3 1  
     4   15   16 1  
     5    1    2 1  
     6   11   14 1  
     7    6    9 2  
     8   15   17 2  
     9    2    5 1  
    10   15    8 1  
    11    6   10 1  
    12   12   15 1  
    13    6    7 1  
    14    2    4 2  
    15    3    6 1  
    16   11   13 2  
    17    1   18 1  
    18    5   19 1  
    19    8   20 1  
    20   10   21 1  
    21   14   22 1  
    22   16   23 1  
# Name:          frag3-253-4/96164
# Creation time: Sat Jun  5 12:53:18 2010


@<TRIPOS>MOLECULE
frag3-253-4/96164
   23    22     1     1     1
SMALL
USER_CHARGES


@<TRIPOS>ATOM
      1 O4          2.7903    2.0300   -7.0207 O.3        1 <1>        0.000
      2 P1          4.1518    2.3618   -6.2932 P.3        1 <1>        0.000
      3 O5          3.8342    2.9412   -4.8647 O.3        1 <1>        0.000
      4 O6          4.9242    1.1327   -6.1761 O.2        1 <1>        0.000
      5 O7          4.9183    3.4510   -7.1066 O.3        1 <1>        0.000
      6 P2          3.4170    2.0823   -3.6468 P.3        1 <1>        0.000
      7 O8          2.5870    0.8154   -4.0991 O.3        1 <1>        0.000
      8 O15         4.3528   -0.2341   -0.6113 O.3        1 <1>        0.000
      9 O9          2.6993    2.7816   -2.5990 O.2        1 <1>        0.000
     10 O10         4.7745    1.4553   -3.0894 O.3        1 <1>        0.000
     11 P3          2.2170   -0.3500   -3.1391 P.3        1 <1>        0.000
     12 O11         3.4376   -1.2789   -2.7750 O.3        1 <1>        0.000
     13 O12         1.8650    0.2672   -1.8335 O.2        1 <1>        0.000
     14 O13         1.0946   -1.2854   -3.6872 O.3        1 <1>        0.000
     15 P4          3.8189   -1.5711   -1.2925 P.3        1 <1>        0.000
     16 O14         2.4516   -1.8750   -0.5404 O.3        1 <1>        0.000
     17 O16         4.7201   -2.6951   -1.1407 O.2        1 <1>        0.000
     18 H           2.2700    2.8324   -7.1049 H.spc      1 <1>        0.000
     19 H           4.3805    4.2442   -7.1630 H.spc      1 <1>        0.000
     20 H           3.7140    0.4697   -0.7464 H.spc      1 <1>        0.000
     21 H           5.2304    0.9987   -3.8003 H.spc      1 <1>        0.000
     22 H           1.3712   -1.6565   -4.5283 H.spc      1 <1>        0.000
     23 H           1.8579   -1.1277   -0.6437 H.spc      1 <1>        0.000
@<TRIPOS>BOND
     1    7   11 1  
     2   11   12 1  
     3    2    3 1  
     4   15   16 1  
     5    1    2 1  
     6   11   14 1  
     7    6    9 2  
     8   15   17 2  
     9    2    5 1  
    10   15    8 1  
    11    6   10 1  
    12   12   15 1  
    13    6    7 1  
    14    2    4 2  
    15    3    6 1  
    16   11   13 2  
    17    1   18 1  
    18    5   19 1  
    19    8   20 1  
    20   10   21 1  
    21   14   22 1  
    22   16   23 1  
# Name:          frag3-253-4/96164
# Creation time: Sat Jun  5 12:53:18 2010


@<TRIPOS>MOLECULE
frag3-253-4/96164
   23    22     1     1     1
SMALL
USER_CHARGES


@<TRIPOS>ATOM
      1 O4          3.6238    4.0157   -5.2375 O.3        1 <1>        0.000
      2 P1          3.0866    2.8191   -4.3727 P.3        1 <1>        0.000
      3 O5          3.2569    1.4938   -5.2159 O.3        1 <1>        0.000
      4 O6          3.8766    2.7218   -3.1621 O.2        1 <1>        0.000
      5 O7          1.5696    3.0057   -4.0656 O.3        1 <1>        0.000
      6 P2          4.6277    0.7293   -5.4430 P.3        1 <1>        0.000
      7 O8          5.0945    0.2456   -4.0195 O.3        1 <1>        0.000
      8 O15         1.1789    0.4860   -0.5603 O.3        1 <1>        0.000
      9 O9          5.5583    1.6079   -6.1045 O.2        1 <1>        0.000
     10 O10         4.3603   -0.5981   -6.2328 O.3        1 <1>        0.000
     11 P3          4.1979   -0.5936   -3.0688 P.3        1 <1>        0.000
     12 O11         3.2386    0.2185   -2.1397 O.3        1 <1>        0.000
     13 O12         3.2867   -1.3805   -3.9445 O.2        1 <1>        0.000
     14 O13         5.0333   -1.4972   -2.1002 O.3        1 <1>        0.000
     15 P4          2.1076   -0.5090   -1.3262 P.3        1 <1>        0.000
     16 O14         1.2135   -1.2272   -2.4224 O.3        1 <1>        0.000
     17 O16         2.7431   -1.5090   -0.4995 O.2        1 <1>        0.000
     18 H           3.1046    4.0861   -6.0419 H.spc      1 <1>        0.000
     19 H           1.0823    3.0657   -4.8905 H.spc      1 <1>        0.000
     20 H           0.8005    1.1120   -1.1821 H.spc      1 <1>        0.000
     21 H           3.7356   -1.1394   -5.7445 H.spc      1 <1>        0.000
     22 H           5.6023   -0.9444   -1.5596 H.spc      1 <1>        0.000
     23 H           0.7902   -0.5644   -2.9729 H.spc      1 <1>        0.000
@<TRIPOS>BOND
     1    7   11 1  
     2   11   12 1  
     3    2    3 1  
     4   15   16 1  
     5    1    2 1  
     6   11   14 1  
     7    6    9 2  
     8   15   17 2  
     9    2    5 1  
    10   15    8 1  
    11    6   10 1  
    12   12   15 1  
    13    6    7 1  
    14    2    4 2  
    15    3    6 1  
    16   11   13 2  
    17    1   18 1  
    18    5   19 1  
    19    8   20 1  
    20   10   21 1  
    21   14   22 1  
    22   16   23 1  
# Name:          frag3-253-4/96164
# Creation time: Sat Jun  5 12:53:18 2010


@<TRIPOS>MOLECULE
frag3-253-4/96164
   23    22     1     1     1
SMALL
USER_CHARGES


@<TRIPOS>ATOM
      1 O4          3.8685    3.9693   -4.1333 O.3        1 <1>        0.000
      2 P1          3.2977    3.1985   -5.3865 P.3        1 <1>        0.000
      3 O5          4.3516    2.1042   -5.8000 O.3        1 <1>        0.000
      4 O6          2.0407    2.5717   -5.0153 O.2        1 <1>        0.000
      5 O7          3.1280    4.1785   -6.5879 O.3        1 <1>        0.000
      6 P2          4.7126    0.8491   -4.9614 P.3        1 <1>        0.000
      7 O8          3.4542   -0.0596   -4.6887 O.3        1 <1>        0.000
      8 O15         1.0972   -1.7217   -1.0029 O.3        1 <1>        0.000
      9 O9          5.2296    1.2764   -3.6421 O.2        1 <1>        0.000
     10 O10         5.7579   -0.0467   -5.7037 O.3        1 <1>        0.000
     11 P3          3.2412   -0.8414   -3.3779 P.3        1 <1>        0.000
     12 O11         2.6355   -0.0291   -2.1841 O.3        1 <1>        0.000
     13 O12         2.4539   -2.0563   -3.5029 O.2        1 <1>        0.000
     14 O13         4.7388   -1.1806   -2.8428 O.3        1 <1>        0.000
     15 P4          2.3206   -0.7227   -0.8227 P.3        1 <1>        0.000
     16 O14         3.5688   -1.6705   -0.5330 O.3        1 <1>        0.000
     17 O16         2.1572    0.2098    0.2700 O.2        1 <1>        0.000
     18 H           4.7001    4.3877   -4.3679 H.spc      1 <1>        0.000
     19 H           3.9777    4.5708   -6.8019 H.spc      1 <1>        0.000
     20 H           1.2714   -2.3092   -1.7419 H.spc      1 <1>        0.000
     21 H           5.4029   -0.3121   -6.5553 H.spc      1 <1>        0.000
     22 H           5.2423   -0.3667   -2.7670 H.spc      1 <1>        0.000
     23 H           3.6753   -2.2886   -1.2597 H.spc      1 <1>        0.000
@<TRIPOS>BOND
     1    7   11 1  
     2   11   12 1  
     3    2    3 1  
     4   15   16 1  
     5    1    2 1  
     6   11   14 1  
     7    6    9 2  
     8   15   17 2  
     9    2    5 1  
    10   15    8 1  
    11    6   10 1  
    12   12   15 1  
    13    6    7 1  
    14    2    4 2  
    15    3    6 1  
    16   11   13 2  
    17    1   18 1  
    18    5   19 1  
    19    8   20 1  
    20   10   21 1  
    21   14   22 1  
    22   16   23 1  
# Name:          frag3-253-4/96164
# Creation time: Sat Jun  5 12:53:18 2010


@<TRIPOS>MOLECULE
frag3-253-4/96164
   23    22     1     1     1
SMALL
USER_CHARGES


@<TRIPOS>ATOM
      1 O4          2.3039    0.0338   -0.4501 O.3        1 <1>        0.000
      2 P1          3.5897   -0.7501   -0.9502 P.3        1 <1>        0.000
      3 O5          3.1433   -1.8231   -1.9974 O.3        1 <1>        0.000
      4 O6          4.4939    0.2218   -1.5520 O.2        1 <1>        0.000
      5 O7          4.2315   -1.4341    0.2985 O.3        1 <1>        0.000
      6 P2          2.5893   -1.5215   -3.4279 P.3        1 <1>        0.000
      7 O8          3.6274   -0.6414   -4.2315 O.3        1 <1>        0.000
      8 O15         3.9073    3.2399   -6.8138 O.3        1 <1>        0.000
      9 O9          1.3587   -0.7227   -3.2948 O.2        1 <1>        0.000
     10 O10         2.3463   -2.8264   -4.2350 O.3        1 <1>        0.000
     11 P3          3.4062    0.8509   -4.5724 P.3        1 <1>        0.000
     12 O11         4.6240    1.7724   -4.8436 O.3        1 <1>        0.000
     13 O12         2.5138    0.9871   -5.7323 O.2        1 <1>        0.000
     14 O13         2.7283    1.5079   -3.2602 O.3        1 <1>        0.000
     15 P4          4.4148    3.2450   -5.3016 P.3        1 <1>        0.000
     16 O14         3.1926    3.8125   -4.4635 O.3        1 <1>        0.000
     17 O16         5.5830    4.0767   -5.0875 O.2        1 <1>        0.000
     18 H           1.6896   -0.5848   -0.0481 H.spc      1 <1>        0.000
     19 H           3.6117   -2.0663    0.6696 H.spc      1 <1>        0.000
     20 H           3.1356    2.6739   -6.8893 H.spc      1 <1>        0.000
     21 H           3.1679   -3.3186   -4.3004 H.spc      1 <1>        0.000
     22 H           3.3222    1.4112   -2.5122 H.spc      1 <1>        0.000
     23 H           2.4220    3.2587   -4.6085 H.spc      1 <1>        0.000
@<TRIPOS>BOND
     1    7   11 1  
     2   11   12 1  
     3    2    3 1  
     4   15   16 1  
     5    1    2 1  
     6   11   14 1  
     7    6    9 2  
     8   15   17 2  
     9    2    5 1  
    10   15    8 1  
    11    6   10 1  
    12   12   15 1  
    13    6    7 1  
    14    2    4 2  
    15    3    6 1  
    16   11   13 2  
    17    1   18 1  
    18    5   19 1  
    19    8   20 1  
    20   10   21 1  
    21   14   22 1  
    22   16   23 1  
# Name:          frag3-253-4/96164
# Creation time: Sat Jun  5 12:53:18 2010


@<TRIPOS>MOLECULE
frag3-253-4/96164
   23    22     1     1     1
SMALL
USER_CHARGES


@<TRIPOS>ATOM
      1 O4          3.7549   -0.6806    0.3062 O.3        1 <1>        0.000
      2 P1          3.0601   -1.6645   -0.6997 P.3        1 <1>        0.000
      3 O5          2.0792   -0.8665   -1.6394 O.3        1 <1>        0.000
      4 O6          4.0831   -2.3132   -1.5110 O.2        1 <1>        0.000
      5 O7          2.2115   -2.7160    0.0864 O.3        1 <1>        0.000
      6 P2          2.4716   -0.3070   -3.0294 P.3        1 <1>        0.000
      7 O8          3.9038    0.3529   -2.9836 O.3        1 <1>        0.000
      8 O15         2.9470    3.9856   -5.6145 O.3        1 <1>        0.000
      9 O9          1.5469    0.6578   -3.5940 O.2        1 <1>        0.000
     10 O10         2.6205   -1.5811   -3.9663 O.3        1 <1>        0.000
     11 P3          4.3200    1.4918   -3.9336 P.3        1 <1>        0.000
     12 O11         3.4691    1.4963   -5.2740 O.3        1 <1>        0.000
     13 O12         4.0752    2.8011   -3.3333 O.2        1 <1>        0.000
     14 O13         5.8038    1.3233   -4.4572 O.3        1 <1>        0.000
     15 P4          3.5626    2.6820   -6.2818 P.3        1 <1>        0.000
     16 O14         5.1202    2.9923   -6.4041 O.3        1 <1>        0.000
     17 O16         3.0245    2.3747   -7.5859 O.2        1 <1>        0.000
     18 H           3.0865   -0.2497    0.8439 H.spc      1 <1>        0.000
     19 H           1.5475   -2.2623    0.6107 H.spc      1 <1>        0.000
     20 H           3.3509    4.1249   -4.7548 H.spc      1 <1>        0.000
     21 H           3.2368   -2.1998   -3.5676 H.spc      1 <1>        0.000
     22 H           5.9095    0.4494   -4.8402 H.spc      1 <1>        0.000
     23 H           5.4739    3.1960   -5.5352 H.spc      1 <1>        0.000
@<TRIPOS>BOND
     1    7   11 1  
     2   11   12 1  
     3    2    3 1  
     4   15   16 1  
     5    1    2 1  
     6   11   14 1  
     7    6    9 2  
     8   15   17 2  
     9    2    5 1  
    10   15    8 1  
    11    6   10 1  
    12   12   15 1  
    13    6    7 1  
    14    2    4 2  
    15    3    6 1  
    16   11   13 2  
    17    1   18 1  
    18    5   19 1  
    19    8   20 1  
    20   10   21 1  
    21   14   22 1  
    22   16   23 1  
# Name:          frag3-253-4/96164
# Creation time: Sat Jun  5 12:53:18 2010


@<TRIPOS>MOLECULE
frag3-253-4/96164
   23    22     1     1     1
SMALL
USER_CHARGES


@<TRIPOS>ATOM
      1 O4          1.3832    0.2040   -0.8332 O.3        1 <1>        0.000
      2 P1          2.8109   -0.4318   -0.9646 P.3        1 <1>        0.000
      3 O5          2.7595   -1.5994   -2.0239 O.3        1 <1>        0.000
      4 O6          3.7430    0.5865   -1.4251 O.2        1 <1>        0.000
      5 O7          3.2636   -1.0514    0.3950 O.3        1 <1>        0.000
      6 P2          3.0160   -1.4456   -3.5517 P.3        1 <1>        0.000
      7 O8          4.3719   -0.6790   -3.8052 O.3        1 <1>        0.000
      8 O15         4.7794    3.9031   -4.3479 O.3        1 <1>        0.000
      9 O9          1.9466   -0.6186   -4.1396 O.2        1 <1>        0.000
     10 O10         3.1137   -2.8322   -4.2517 O.3        1 <1>        0.000
     11 P3          4.4643    0.6426   -4.5958 P.3        1 <1>        0.000
     12 O11         3.4307    1.7362   -4.1291 O.3        1 <1>        0.000
     13 O12         5.7653    1.2883   -4.5909 O.2        1 <1>        0.000
     14 O13         3.9685    0.3080   -6.0945 O.3        1 <1>        0.000
     15 P4          3.4325    3.1572   -4.7566 P.3        1 <1>        0.000
     16 O14         3.5690    2.9390   -6.3269 O.3        1 <1>        0.000
     17 O16         2.2357    3.9221   -4.4735 O.2        1 <1>        0.000
     18 H           0.7636   -0.4635   -0.5296 H.spc      1 <1>        0.000
     19 H           2.6287   -1.7172    0.6691 H.spc      1 <1>        0.000
     20 H           5.5305    3.3446   -4.5611 H.spc      1 <1>        0.000
     21 H           3.8172   -3.3449   -3.8469 H.spc      1 <1>        0.000
     22 H           3.1083   -0.1166   -6.0585 H.spc      1 <1>        0.000
     23 H           4.3631    2.4318   -6.5105 H.spc      1 <1>        0.000
@<TRIPOS>BOND
     1    7   11 1  
     2   11   12 1  
     3    2    3 1  
     4   15   16 1  
     5    1    2 1  
     6   11   14 1  
     7    6    9 2  
     8   15   17 2  
     9    2    5 1  
    10   15    8 1  
    11    6   10 1  
    12   12   15 1  
    13    6    7 1  
    14    2    4 2  
    15    3    6 1  
    16   11   13 2  
    17    1   18 1  
    18    5   19 1  
    19    8   20 1  
    20   10   21 1  
    21   14   22 1  
    22   16   23 1  
# Name:          frag3-253-4/96164
# Creation time: Sat Jun  5 12:53:18 2010


@<TRIPOS>MOLECULE
frag3-253-4/96164
   23    22     1     1     1
SMALL
USER_CHARGES


@<TRIPOS>ATOM
      1 O4          4.0018   -1.2708    0.2437 O.3        1 <1>        0.000
      2 P1          3.8432   -1.1536   -1.2913 P.3        1 <1>        0.000
      3 O5          2.3930   -0.7695   -1.7668 O.3        1 <1>        0.000
      4 O6          4.8137   -0.2185   -1.8349 O.2        1 <1>        0.000
      5 O7          4.0595   -2.5901   -1.9532 O.3        1 <1>        0.000
      6 P2          1.9991   -0.4775   -3.2634 P.3        1 <1>        0.000
      7 O8          3.1221    0.4733   -3.8423 O.3        1 <1>        0.000
      8 O15         3.1129    1.5650   -6.4554 O.3        1 <1>        0.000
      9 O9          0.7192    0.1799   -3.4206 O.2        1 <1>        0.000
     10 O10         2.0772   -1.8494   -4.0171 O.3        1 <1>        0.000
     11 P3          3.2185    2.0216   -3.5152 P.3        1 <1>        0.000
     12 O11         4.1661    2.7548   -4.4883 O.3        1 <1>        0.000
     13 O12         1.8689    2.5456   -3.6901 O.2        1 <1>        0.000
     14 O13         3.7669    2.1466   -2.0518 O.3        1 <1>        0.000
     15 P4          4.4899    2.1846   -5.8964 P.3        1 <1>        0.000
     16 O14         4.8783    3.3048   -6.8929 O.3        1 <1>        0.000
     17 O16         5.5237    1.1824   -5.7792 O.2        1 <1>        0.000
     18 H           3.3538   -1.8916    0.5848 H.spc      1 <1>        0.000
     19 H           3.4179   -3.2069   -1.5933 H.spc      1 <1>        0.000
     20 H           2.4533    2.2596   -6.5188 H.spc      1 <1>        0.000
     21 H           2.9433   -2.2399   -3.8796 H.spc      1 <1>        0.000
     22 H           4.6547    1.7836   -2.0119 H.spc      1 <1>        0.000
     23 H           4.1677    3.9484   -6.9420 H.spc      1 <1>        0.000
@<TRIPOS>BOND
     1    7   11 1  
     2   11   12 1  
     3    2    3 1  
     4   15   16 1  
     5    1    2 1  
     6   11   14 1  
     7    6    9 2  
     8   15   17 2  
     9    2    5 1  
    10   15    8 1  
    11    6   10 1  
    12   12   15 1  
    13    6    7 1  
    14    2    4 2  
    15    3    6 1  
    16   11   13 2  
    17    1   18 1  
    18    5   19 1  
    19    8   20 1  
    20   10   21 1  
    21   14   22 1  
    22   16   23 1  
# Name:          frag3-253-4/96164
# Creation time: Sat Jun  5 12:53:18 2010


@<TRIPOS>MOLECULE
frag3-253-4/96164
   23    22     1     1     1
SMALL
USER_CHARGES


@<TRIPOS>ATOM
      1 O4          3.4217    3.6744   -4.1533 O.3        1 <1>        0.000
      2 P1          3.4335    3.2033   -5.6674 P.3        1 <1>        0.000
      3 O5          3.5788    1.6374   -5.6715 O.3        1 <1>        0.000
      4 O6          2.2797    3.7461   -6.3470 O.2        1 <1>        0.000
      5 O7          4.7867    3.7195   -6.3210 O.3        1 <1>        0.000
      6 P2          4.5808    0.8290   -4.7422 P.3        1 <1>        0.000
      7 O8          4.1264   -0.6145   -4.4362 O.3        1 <1>        0.000
      8 O15         2.2148    0.3700   -0.4468 O.3        1 <1>        0.000
      9 O9          4.6840    1.5859   -3.4694 O.2        1 <1>        0.000
     10 O10         5.9668    0.8351   -5.4824 O.3        1 <1>        0.000
     11 P3          3.1063   -0.9522   -3.3319 P.3        1 <1>        0.000
     12 O11         3.7037   -1.1439   -1.8909 O.3        1 <1>        0.000
     13 O12         2.1745    0.1914   -3.2048 O.2        1 <1>        0.000
     14 O13         2.3371   -2.3007   -3.6352 O.3        1 <1>        0.000
     15 P4          2.7656   -1.1092   -0.6343 P.3        1 <1>        0.000
     16 O14         1.4987   -1.9865   -1.0272 O.3        1 <1>        0.000
     17 O16         3.3951   -1.6562    0.5463 O.2        1 <1>        0.000
     18 H           4.1881    3.3140   -3.7012 H.spc      1 <1>        0.000
     19 H           5.5329    3.3426   -5.8490 H.spc      1 <1>        0.000
     20 H           1.8123    0.6667   -1.2663 H.spc      1 <1>        0.000
     21 H           5.8918    0.3440   -6.3039 H.spc      1 <1>        0.000
     22 H           2.9699   -3.0186   -3.7111 H.spc      1 <1>        0.000
     23 H           1.0861   -1.6175   -1.8115 H.spc      1 <1>        0.000
@<TRIPOS>BOND
     1    7   11 1  
     2   11   12 1  
     3    2    3 1  
     4   15   16 1  
     5    1    2 1  
     6   11   14 1  
     7    6    9 2  
     8   15   17 2  
     9    2    5 1  
    10   15    8 1  
    11    6   10 1  
    12   12   15 1  
    13    6    7 1  
    14    2    4 2  
    15    3    6 1  
    16   11   13 2  
    17    1   18 1  
    18    5   19 1  
    19    8   20 1  
    20   10   21 1  
    21   14   22 1  
    22   16   23 1  
# Name:          frag3-253-4/96164
# Creation time: Sat Jun  5 12:53:18 2010


@<TRIPOS>MOLECULE
frag3-253-4/96164
   23    22     1     1     1
SMALL
USER_CHARGES


@<TRIPOS>ATOM
      1 O4          4.4838    3.7297   -3.9423 O.3        1 <1>        0.000
      2 P1          3.3415    3.1207   -4.8534 P.3        1 <1>        0.000
      3 O5          3.9558    1.9153   -5.6351 O.3        1 <1>        0.000
      4 O6          2.2728    2.6757   -3.9884 O.2        1 <1>        0.000
      5 O7          2.8805    4.2004   -5.8713 O.3        1 <1>        0.000
      6 P2          4.5032    0.6108   -5.0220 P.3        1 <1>        0.000
      7 O8          3.4327   -0.1520   -4.1520 O.3        1 <1>        0.000
      8 O15         1.9824    0.3733    0.1313 O.3        1 <1>        0.000
      9 O9          5.6217    0.9381   -4.1106 O.2        1 <1>        0.000
     10 O10         4.9479   -0.3967   -6.1259 O.3        1 <1>        0.000
     11 P3          3.8014   -1.2744   -3.0956 P.3        1 <1>        0.000
     12 O11         3.4933   -0.7803   -1.6563 O.3        1 <1>        0.000
     13 O12         3.0659   -2.4903   -3.3297 O.2        1 <1>        0.000
     14 O13         5.3705   -1.4247   -3.2469 O.3        1 <1>        0.000
     15 P4          2.0520   -0.3291   -1.2599 P.3        1 <1>        0.000
     16 O14         1.6743    0.7725   -2.3321 O.3        1 <1>        0.000
     17 O16         1.1742   -1.4600   -1.4250 O.2        1 <1>        0.000
     18 H           5.2064    4.0328   -4.4969 H.spc      1 <1>        0.000
     19 H           3.6247    4.4605   -6.4192 H.spc      1 <1>        0.000
     20 H           2.5977    1.1100    0.1477 H.spc      1 <1>        0.000
     21 H           4.2033   -0.5895   -6.7003 H.spc      1 <1>        0.000
     22 H           5.7898   -0.5780   -3.0770 H.spc      1 <1>        0.000
     23 H           2.2548    1.5301   -2.2290 H.spc      1 <1>        0.000
@<TRIPOS>BOND
     1    7   11 1  
     2   11   12 1  
     3    2    3 1  
     4   15   16 1  
     5    1    2 1  
     6   11   14 1  
     7    6    9 2  
     8   15   17 2  
     9    2    5 1  
    10   15    8 1  
    11    6   10 1  
    12   12   15 1  
    13    6    7 1  
    14    2    4 2  
    15    3    6 1  
    16   11   13 2  
    17    1   18 1  
    18    5   19 1  
    19    8   20 1  
    20   10   21 1  
    21   14   22 1  
    22   16   23 1  
# Name:          frag3-253-4/96164
# Creation time: Sat Jun  5 12:53:18 2010


@<TRIPOS>MOLECULE
frag3-253-4/96164
   23    22     1     1     1
SMALL
USER_CHARGES


@<TRIPOS>ATOM
      1 O4          3.5904    3.4508   -3.5608 O.3        1 <1>        0.000
      2 P1          3.4020    3.1312   -5.1056 P.3        1 <1>        0.000
      3 O5          3.4686    1.5877   -5.2889 O.3        1 <1>        0.000
      4 O6          2.2344    3.8186   -5.5983 O.2        1 <1>        0.000
      5 O7          4.7227    3.6668   -5.8224 O.3        1 <1>        0.000
      6 P2          4.6592    0.6785   -4.7754 P.3        1 <1>        0.000
      7 O8          4.2437   -0.0371   -3.4432 O.3        1 <1>        0.000
      8 O15         1.4295    0.3914   -1.3425 O.3        1 <1>        0.000
      9 O9          5.8496    1.5112   -4.6571 O.2        1 <1>        0.000
     10 O10         4.8731   -0.5090   -5.7915 O.3        1 <1>        0.000
     11 P3          3.1007   -1.1349   -3.4062 P.3        1 <1>        0.000
     12 O11         2.8022   -1.6581   -1.9863 O.3        1 <1>        0.000
     13 O12         1.8811   -0.5105   -3.9190 O.2        1 <1>        0.000
     14 O13         3.5962   -2.3331   -4.3123 O.3        1 <1>        0.000
     15 P4          2.5284   -0.6532   -0.8255 P.3        1 <1>        0.000
     16 O14         1.8974   -1.3676    0.3987 O.3        1 <1>        0.000
     17 O16         3.7747   -0.0040   -0.4788 O.2        1 <1>        0.000
     18 H           4.3679    2.9930   -3.2330 H.spc      1 <1>        0.000
     19 H           5.4853    3.1956   -5.4790 H.spc      1 <1>        0.000
     20 H           0.6212   -0.0781   -1.5610 H.spc      1 <1>        0.000
     21 H           4.0706   -1.0334   -5.8426 H.spc      1 <1>        0.000
     22 H           4.3957   -2.7082   -3.9358 H.spc      1 <1>        0.000
     23 H           1.0749   -1.7863    0.1345 H.spc      1 <1>        0.000
@<TRIPOS>BOND
     1    7   11 1  
     2   11   12 1  
     3    2    3 1  
     4   15   16 1  
     5    1    2 1  
     6   11   14 1  
     7    6    9 2  
     8   15   17 2  
     9    2    5 1  
    10   15    8 1  
    11    6   10 1  
    12   12   15 1  
    13    6    7 1  
    14    2    4 2  
    15    3    6 1  
    16   11   13 2  
    17    1   18 1  
    18    5   19 1  
    19    8   20 1  
    20   10   21 1  
    21   14   22 1  
    22   16   23 1  
# Name:          frag3-253-4/96164
# Creation time: Sat Jun  5 12:53:18 2010


@<TRIPOS>MOLECULE
frag3-253-4/96164
   23    22     1     1     1
SMALL
USER_CHARGES


@<TRIPOS>ATOM
      1 O4          4.4229   -0.3133   -0.9679 O.3        1 <1>        0.000
      2 P1          3.2876   -1.4276   -1.0250 P.3        1 <1>        0.000
      3 O5          2.0720   -0.8264   -1.8118 O.3        1 <1>        0.000
      4 O6          3.8359   -2.5791   -1.7147 O.2        1 <1>        0.000
      5 O7          2.8915   -1.7526    0.4437 O.3        1 <1>        0.000
      6 P2          2.0818   -0.4306   -3.3180 P.3        1 <1>        0.000
      7 O8          3.4977    0.2306   -3.6229 O.3        1 <1>        0.000
      8 O15         4.8683    1.0424   -6.2136 O.3        1 <1>        0.000
      9 O9          1.0730    0.5333   -3.7029 O.2        1 <1>        0.000
     10 O10         2.0024   -1.7546   -4.1483 O.3        1 <1>        0.000
     11 P3          3.7482    1.7819   -3.5356 P.3        1 <1>        0.000
     12 O11         3.2601    2.4631   -4.8562 O.3        1 <1>        0.000
     13 O12         3.0347    2.2767   -2.3828 O.2        1 <1>        0.000
     14 O13         5.2962    2.0929   -3.5300 O.3        1 <1>        0.000
     15 P4          4.1665    2.5068   -6.1254 P.3        1 <1>        0.000
     16 O14         3.3585    2.6452   -7.4290 O.3        1 <1>        0.000
     17 O16         5.1567    3.5401   -5.9748 O.2        1 <1>        0.000
     18 H           4.0854    0.4628   -0.5148 H.spc      1 <1>        0.000
     19 H           2.5348   -0.9643    0.8596 H.spc      1 <1>        0.000
     20 H           4.1908    0.3696   -6.3136 H.spc      1 <1>        0.000
     21 H           2.6899   -2.3568   -3.8547 H.spc      1 <1>        0.000
     22 H           5.6965    1.7334   -4.3250 H.spc      1 <1>        0.000
     23 H           2.7143    1.9354   -7.4818 H.spc      1 <1>        0.000
@<TRIPOS>BOND
     1    7   11 1  
     2   11   12 1  
     3    2    3 1  
     4   15   16 1  
     5    1    2 1  
     6   11   14 1  
     7    6    9 2  
     8   15   17 2  
     9    2    5 1  
    10   15    8 1  
    11    6   10 1  
    12   12   15 1  
    13    6    7 1  
    14    2    4 2  
    15    3    6 1  
    16   11   13 2  
    17    1   18 1  
    18    5   19 1  
    19    8   20 1  
    20   10   21 1  
    21   14   22 1  
    22   16   23 1  
# Name:          frag3-253-4/96164
# Creation time: Sat Jun  5 12:53:18 2010


@<TRIPOS>MOLECULE
frag3-253-4/96164
   23    22     1     1     1
SMALL
USER_CHARGES


@<TRIPOS>ATOM
      1 O4          2.3608   -1.2584    0.0558 O.3        1 <1>        0.000
      2 P1          3.5776   -0.6932   -0.7586 P.3        1 <1>        0.000
      3 O5          3.7510   -1.5390   -2.0666 O.3        1 <1>        0.000
      4 O6          3.2918    0.6825   -1.1265 O.2        1 <1>        0.000
      5 O7          4.8802   -0.8205    0.0835 O.3        1 <1>        0.000
      6 P2          3.1362   -1.2278   -3.4539 P.3        1 <1>        0.000
      7 O8          3.5252    0.2064   -3.9617 O.3        1 <1>        0.000
      8 O15         4.6223    2.7253   -6.6666 O.3        1 <1>        0.000
      9 O9          1.6737   -1.2370   -3.3106 O.2        1 <1>        0.000
     10 O10         3.6146   -2.2451   -4.5273 O.3        1 <1>        0.000
     11 P3          2.5610    1.1347   -4.7865 P.3        1 <1>        0.000
     12 O11         2.9749    2.6212   -4.7471 O.3        1 <1>        0.000
     13 O12         2.5867    0.7106   -6.1800 O.2        1 <1>        0.000
     14 O13         1.1465    0.9952   -4.1123 O.3        1 <1>        0.000
     15 P4          4.4161    3.0620   -5.1193 P.3        1 <1>        0.000
     16 O14         4.6093    4.5878   -4.9682 O.3        1 <1>        0.000
     17 O16         5.3262    2.3242   -4.2695 O.2        1 <1>        0.000
     18 H           2.5387   -2.1683    0.3047 H.spc      1 <1>        0.000
     19 H           5.0290   -1.7431    0.3031 H.spc      1 <1>        0.000
     20 H           3.9998    3.2356   -7.1897 H.spc      1 <1>        0.000
     21 H           4.5717   -2.2120   -4.5938 H.spc      1 <1>        0.000
     22 H           1.1977    1.2896   -3.2000 H.spc      1 <1>        0.000
     23 H           3.9923    5.0459   -5.5436 H.spc      1 <1>        0.000
@<TRIPOS>BOND
     1    7   11 1  
     2   11   12 1  
     3    2    3 1  
     4   15   16 1  
     5    1    2 1  
     6   11   14 1  
     7    6    9 2  
     8   15   17 2  
     9    2    5 1  
    10   15    8 1  
    11    6   10 1  
    12   12   15 1  
    13    6    7 1  
    14    2    4 2  
    15    3    6 1  
    16   11   13 2  
    17    1   18 1  
    18    5   19 1  
    19    8   20 1  
    20   10   21 1  
    21   14   22 1  
    22   16   23 1  
# Name:          frag3-253-4/96164
# Creation time: Sat Jun  5 12:53:18 2010


@<TRIPOS>MOLECULE
frag3-253-4/96164
   23    22     1     1     1
SMALL
USER_CHARGES


@<TRIPOS>ATOM
      1 O4          4.4284   -0.6192   -0.8807 O.3        1 <1>        0.000
      2 P1          3.6794   -1.9087   -1.4537 P.3        1 <1>        0.000
      3 O5          2.4532   -1.3727   -2.2558 O.3        1 <1>        0.000
      4 O6          4.6248   -2.6726   -2.2370 O.2        1 <1>        0.000
      5 O7          3.1180   -2.7180   -0.2358 O.3        1 <1>        0.000
      6 P2          2.1694    0.1175   -2.5896 P.3        1 <1>        0.000
      7 O8          3.3072    0.7741   -3.4681 O.3        1 <1>        0.000
      8 O15         3.1213    1.1314   -6.4619 O.3        1 <1>        0.000
      9 O9          2.0781    0.8927   -1.3391 O.2        1 <1>        0.000
     10 O10         0.8721    0.2719   -3.4528 O.3        1 <1>        0.000
     11 P3          3.3112    2.3087   -3.8654 P.3        1 <1>        0.000
     12 O11         4.3971    2.6571   -4.9092 O.3        1 <1>        0.000
     13 O12         2.0083    2.5775   -4.4929 O.2        1 <1>        0.000
     14 O13         3.5415    3.0932   -2.5298 O.3        1 <1>        0.000
     15 P4          4.5512    1.8401   -6.2252 P.3        1 <1>        0.000
     16 O14         4.7769    2.7828   -7.4356 O.3        1 <1>        0.000
     17 O16         5.6159    0.8732   -6.0827 O.2        1 <1>        0.000
     18 H           3.8138   -0.0998   -0.3571 H.spc      1 <1>        0.000
     19 H           2.4973   -2.1713    0.2515 H.spc      1 <1>        0.000
     20 H           2.4427    1.8045   -6.5514 H.spc      1 <1>        0.000
     21 H           0.9618   -0.2430   -4.2581 H.spc      1 <1>        0.000
     22 H           4.4060    2.8727   -2.1755 H.spc      1 <1>        0.000
     23 H           4.0497    3.4069   -7.4937 H.spc      1 <1>        0.000
@<TRIPOS>BOND
     1    7   11 1  
     2   11   12 1  
     3    2    3 1  
     4   15   16 1  
     5    1    2 1  
     6   11   14 1  
     7    6    9 2  
     8   15   17 2  
     9    2    5 1  
    10   15    8 1  
    11    6   10 1  
    12   12   15 1  
    13    6    7 1  
    14    2    4 2  
    15    3    6 1  
    16   11   13 2  
    17    1   18 1  
    18    5   19 1  
    19    8   20 1  
    20   10   21 1  
    21   14   22 1  
    22   16   23 1  
# Name:          frag3-253-4/96164
# Creation time: Sat Jun  5 12:53:18 2010


@<TRIPOS>MOLECULE
frag3-253-4/96164
   23    22     1     1     1
SMALL
USER_CHARGES


@<TRIPOS>ATOM
      1 O4          5.3651    3.0719   -5.2520 O.3        1 <1>        0.000
      2 P1          3.8987    3.3305   -4.7026 P.3        1 <1>        0.000
      3 O5          3.2560    1.9232   -4.4407 O.3        1 <1>        0.000
      4 O6          3.9574    4.2337   -3.5829 O.2        1 <1>        0.000
      5 O7          3.0296    3.9241   -5.8884 O.3        1 <1>        0.000
      6 P2          3.3960    0.6791   -5.4313 P.3        1 <1>        0.000
      7 O8          4.0013   -0.5397   -4.6828 O.3        1 <1>        0.000
      8 O15         3.8583    0.0898    0.5061 O.3        1 <1>        0.000
      9 O9          4.1642    1.1291   -6.5852 O.2        1 <1>        0.000
     10 O10         1.9425    0.2291   -5.8474 O.3        1 <1>        0.000
     11 P3          3.3960   -1.0861   -3.3568 P.3        1 <1>        0.000
     12 O11         3.9544   -0.4440   -2.0472 O.3        1 <1>        0.000
     13 O12         1.9542   -0.7359   -3.3779 O.2        1 <1>        0.000
     14 O13         3.6397   -2.6307   -3.2256 O.3        1 <1>        0.000
     15 P4          3.2422   -0.7347   -0.6705 P.3        1 <1>        0.000
     16 O14         1.7494   -0.2400   -0.8587 O.3        1 <1>        0.000
     17 O16         3.2489   -2.1706   -0.4712 O.2        1 <1>        0.000
     18 H           5.3244    2.4696   -5.9984 H.spc      1 <1>        0.000
     19 H           3.0122    3.2976   -6.6156 H.spc      1 <1>        0.000
     20 H           3.8156    1.0256    0.2963 H.spc      1 <1>        0.000
     21 H           1.4631   -0.0609   -5.0679 H.spc      1 <1>        0.000
     22 H           4.5837   -2.8049   -3.2165 H.spc      1 <1>        0.000
     23 H           1.7428    0.7108   -0.9908 H.spc      1 <1>        0.000
@<TRIPOS>BOND
     1    7   11 1  
     2   11   12 1  
     3    2    3 1  
     4   15   16 1  
     5    1    2 1  
     6   11   14 1  
     7    6    9 2  
     8   15   17 2  
     9    2    5 1  
    10   15    8 1  
    11    6   10 1  
    12   12   15 1  
    13    6    7 1  
    14    2    4 2  
    15    3    6 1  
    16   11   13 2  
    17    1   18 1  
    18    5   19 1  
    19    8   20 1  
    20   10   21 1  
    21   14   22 1  
    22   16   23 1  
# Name:          frag3-253-4/96164
# Creation time: Sat Jun  5 12:53:18 2010


@<TRIPOS>MOLECULE
frag3-253-4/96164
   23    22     1     1     1
SMALL
USER_CHARGES


@<TRIPOS>ATOM
      1 O4          2.4693   -0.6770    0.5475 O.3        1 <1>        0.000
      2 P1          3.0524   -1.0069   -0.8491 P.3        1 <1>        0.000
      3 O5          2.1099   -0.6096   -2.0501 O.3        1 <1>        0.000
      4 O6          4.3631   -0.4032   -1.0133 O.2        1 <1>        0.000
      5 O7          3.1786   -2.5931   -1.0127 O.3        1 <1>        0.000
      6 P2          2.5243   -0.7335   -3.5608 P.3        1 <1>        0.000
      7 O8          4.0536   -0.3422   -3.6723 O.3        1 <1>        0.000
      8 O15         2.0370    2.6373   -5.4896 O.3        1 <1>        0.000
      9 O9          1.7742    0.1408   -4.4468 O.2        1 <1>        0.000
     10 O10         2.3877   -2.2479   -3.9466 O.3        1 <1>        0.000
     11 P3          4.5567    1.0908   -3.9880 P.3        1 <1>        0.000
     12 O11         4.3330    1.4962   -5.4953 O.3        1 <1>        0.000
     13 O12         3.6680    2.0284   -3.2486 O.2        1 <1>        0.000
     14 O13         6.0686    1.3061   -3.6759 O.3        1 <1>        0.000
     15 P4          3.5705    2.8060   -5.8749 P.3        1 <1>        0.000
     16 O14         4.1210    3.9257   -4.8905 O.3        1 <1>        0.000
     17 O16         3.7860    3.2110   -7.2483 O.2        1 <1>        0.000
     18 H           1.6045   -1.0842    0.6363 H.spc      1 <1>        0.000
     19 H           2.3133   -2.9947   -0.9046 H.spc      1 <1>        0.000
     20 H           1.9668    2.3690   -4.5705 H.spc      1 <1>        0.000
     21 H           2.8995   -2.7806   -3.3335 H.spc      1 <1>        0.000
     22 H           6.5908    0.6766   -4.1785 H.spc      1 <1>        0.000
     23 H           3.9752    3.6514   -3.9821 H.spc      1 <1>        0.000
@<TRIPOS>BOND
     1    7   11 1  
     2   11   12 1  
     3    2    3 1  
     4   15   16 1  
     5    1    2 1  
     6   11   14 1  
     7    6    9 2  
     8   15   17 2  
     9    2    5 1  
    10   15    8 1  
    11    6   10 1  
    12   12   15 1  
    13    6    7 1  
    14    2    4 2  
    15    3    6 1  
    16   11   13 2  
    17    1   18 1  
    18    5   19 1  
    19    8   20 1  
    20   10   21 1  
    21   14   22 1  
    22   16   23 1  
# Name:          frag3-253-4/96164
# Creation time: Sat Jun  5 12:53:18 2010


@<TRIPOS>MOLECULE
frag3-253-4/96164
   23    22     1     1     1
SMALL
USER_CHARGES


@<TRIPOS>ATOM
      1 O4          3.5132    3.0825   -3.3411 O.3        1 <1>        0.000
      2 P1          3.1798    2.9570   -4.8952 P.3        1 <1>        0.000
      3 O5          3.5328    1.4953   -5.3293 O.3        1 <1>        0.000
      4 O6          1.8323    3.4079   -5.1294 O.2        1 <1>        0.000
      5 O7          4.2350    3.8505   -5.6780 O.3        1 <1>        0.000
      6 P2          4.8409    0.7127   -4.8630 P.3        1 <1>        0.000
      7 O8          4.4909   -0.0849   -3.5504 O.3        1 <1>        0.000
      8 O15         3.2650    0.7326   -1.1232 O.3        1 <1>        0.000
      9 O9          5.9126    1.6836   -4.6931 O.2        1 <1>        0.000
     10 O10         5.1875   -0.3854   -5.9288 O.3        1 <1>        0.000
     11 P3          3.2301   -1.0497   -3.4684 P.3        1 <1>        0.000
     12 O11         2.9692   -1.6190   -2.0537 O.3        1 <1>        0.000
     13 O12         2.0554   -0.2319   -3.8176 O.2        1 <1>        0.000
     14 O13         3.4886   -2.2219   -4.4883 O.3        1 <1>        0.000
     15 P4          2.5291   -0.6790   -0.8900 P.3        1 <1>        0.000
     16 O14         0.9958   -0.3786   -1.0748 O.3        1 <1>        0.000
     17 O16         2.7958   -1.2429    0.4093 O.2        1 <1>        0.000
     18 H           4.4112    2.7824   -3.1824 H.spc      1 <1>        0.000
     19 H           5.1210    3.5255   -5.5019 H.spc      1 <1>        0.000
     20 H           3.0539    1.0612   -2.0002 H.spc      1 <1>        0.000
     21 H           4.4533   -0.9993   -6.0045 H.spc      1 <1>        0.000
     22 H           4.2621   -2.7194   -4.2130 H.spc      1 <1>        0.000
     23 H           0.8469   -0.0047   -1.9464 H.spc      1 <1>        0.000
@<TRIPOS>BOND
     1    7   11 1  
     2   11   12 1  
     3    2    3 1  
     4   15   16 1  
     5    1    2 1  
     6   11   14 1  
     7    6    9 2  
     8   15   17 2  
     9    2    5 1  
    10   15    8 1  
    11    6   10 1  
    12   12   15 1  
    13    6    7 1  
    14    2    4 2  
    15    3    6 1  
    16   11   13 2  
    17    1   18 1  
    18    5   19 1  
    19    8   20 1  
    20   10   21 1  
    21   14   22 1  
    22   16   23 1  
# Name:          frag3-253-4/96164
# Creation time: Sat Jun  5 12:53:18 2010


@<TRIPOS>MOLECULE
frag3-253-4/96164
   23    22     1     1     1
SMALL
USER_CHARGES


@<TRIPOS>ATOM
      1 O4          2.1560    2.3896   -5.6982 O.3        1 <1>        0.000
      2 P1          3.6183    2.3404   -6.2902 P.3        1 <1>        0.000
      3 O5          4.4544    1.3274   -5.4338 O.3        1 <1>        0.000
      4 O6          3.5581    2.0932   -7.7194 O.2        1 <1>        0.000
      5 O7          4.3192    3.7337   -5.9844 O.3        1 <1>        0.000
      6 P2          4.6086    1.3774   -3.8489 P.3        1 <1>        0.000
      7 O8          3.9798    0.1215   -3.1792 O.3        1 <1>        0.000
      8 O15         3.6230   -0.1820   -0.3994 O.3        1 <1>        0.000
      9 O9          3.8405    2.5695   -3.4132 O.2        1 <1>        0.000
     10 O10         6.1172    1.5334   -3.5150 O.3        1 <1>        0.000
     11 P3          2.4231   -0.1628   -3.1117 P.3        1 <1>        0.000
     12 O11         2.0935   -1.2801   -2.0913 O.3        1 <1>        0.000
     13 O12         1.7939    1.0800   -2.6736 O.2        1 <1>        0.000
     14 O13         1.9910   -0.6268   -4.5479 O.3        1 <1>        0.000
     15 P4          3.0571   -1.5986   -0.9100 P.3        1 <1>        0.000
     16 O14         2.3005   -2.2236    0.2890 O.3        1 <1>        0.000
     17 O16         4.1197   -2.4632   -1.3880 O.2        1 <1>        0.000
     18 H           2.1999    2.5532   -4.7533 H.spc      1 <1>        0.000
     19 H           4.3474    3.8749   -5.0353 H.spc      1 <1>        0.000
     20 H           2.8933    0.3608   -0.0919 H.spc      1 <1>        0.000
     21 H           6.5908    0.7508   -3.8063 H.spc      1 <1>        0.000
     22 H           2.4416   -1.4455   -4.7675 H.spc      1 <1>        0.000
     23 H           1.6076   -1.6244    0.5762 H.spc      1 <1>        0.000
@<TRIPOS>BOND
     1    7   11 1  
     2   11   12 1  
     3    2    3 1  
     4   15   16 1  
     5    1    2 1  
     6   11   14 1  
     7    6    9 2  
     8   15   17 2  
     9    2    5 1  
    10   15    8 1  
    11    6   10 1  
    12   12   15 1  
    13    6    7 1  
    14    2    4 2  
    15    3    6 1  
    16   11   13 2  
    17    1   18 1  
    18    5   19 1  
    19    8   20 1  
    20   10   21 1  
    21   14   22 1  
    22   16   23 1  
# Name:          frag3-253-4/96164
# Creation time: Sat Jun  5 12:53:18 2010


@<TRIPOS>MOLECULE
frag3-253-4/96164
   23    22     1     1     1
SMALL
USER_CHARGES


@<TRIPOS>ATOM
      1 O4          4.1255   -1.3594   -0.1311 O.3        1 <1>        0.000
      2 P1          3.4596   -2.1443   -1.3318 P.3        1 <1>        0.000
      3 O5          3.4505   -1.2187   -2.5859 O.3        1 <1>        0.000
      4 O6          4.0862   -3.4440   -1.4644 O.2        1 <1>        0.000
      5 O7          1.9206   -2.3030   -0.9420 O.3        1 <1>        0.000
      6 P2          2.6490    0.1372   -2.6918 P.3        1 <1>        0.000
      7 O8          2.9902    1.0264   -3.9105 O.3        1 <1>        0.000
      8 O15         2.3379    2.9337   -6.3593 O.3        1 <1>        0.000
      9 O9          2.9425    0.9075   -1.4613 O.2        1 <1>        0.000
     10 O10         1.1293   -0.2704   -2.7133 O.3        1 <1>        0.000
     11 P3          4.0088    2.2255   -3.8444 P.3        1 <1>        0.000
     12 O11         4.5831    2.5542   -5.2459 O.3        1 <1>        0.000
     13 O12         3.3227    3.3933   -3.3172 O.2        1 <1>        0.000
     14 O13         5.1997    1.7111   -2.9400 O.3        1 <1>        0.000
     15 P4          3.7665    2.2335   -6.5359 P.3        1 <1>        0.000
     16 O14         4.4228    2.8552   -7.7925 O.3        1 <1>        0.000
     17 O16         3.6590    0.7909   -6.6481 O.2        1 <1>        0.000
     18 H           3.7101   -0.4984   -0.0436 H.spc      1 <1>        0.000
     19 H           1.5216   -1.4339   -0.8584 H.spc      1 <1>        0.000
     20 H           2.4550    3.8839   -6.2892 H.spc      1 <1>        0.000
     21 H           0.9442   -0.7692   -3.5124 H.spc      1 <1>        0.000
     22 H           5.6023    0.9421   -3.3500 H.spc      1 <1>        0.000
     23 H           4.4782    3.8076   -7.6852 H.spc      1 <1>        0.000
@<TRIPOS>BOND
     1    7   11 1  
     2   11   12 1  
     3    2    3 1  
     4   15   16 1  
     5    1    2 1  
     6   11   14 1  
     7    6    9 2  
     8   15   17 2  
     9    2    5 1  
    10   15    8 1  
    11    6   10 1  
    12   12   15 1  
    13    6    7 1  
    14    2    4 2  
    15    3    6 1  
    16   11   13 2  
    17    1   18 1  
    18    5   19 1  
    19    8   20 1  
    20   10   21 1  
    21   14   22 1  
    22   16   23 1  
# Name:          frag3-253-4/96164
# Creation time: Sat Jun  5 12:53:18 2010


@<TRIPOS>MOLECULE
frag3-253-4/96164
   23    22     1     1     1
SMALL
USER_CHARGES


@<TRIPOS>ATOM
      1 O4          4.4317   -0.0713   -1.0184 O.3        1 <1>        0.000
      2 P1          3.0902   -0.8838   -0.8343 P.3        1 <1>        0.000
      3 O5          2.1756   -0.5879   -2.0867 O.3        1 <1>        0.000
      4 O6          3.4187   -2.2961   -0.7772 O.2        1 <1>        0.000
      5 O7          2.3551   -0.3928    0.4436 O.3        1 <1>        0.000
      6 P2          2.5269   -0.9637   -3.5660 P.3        1 <1>        0.000
      7 O8          4.0283   -0.5427   -3.8102 O.3        1 <1>        0.000
      8 O15         4.8544    3.5593   -5.9897 O.3        1 <1>        0.000
      9 O9          1.7091   -0.3035   -4.5619 O.2        1 <1>        0.000
     10 O10         2.4230   -2.5219   -3.6277 O.3        1 <1>        0.000
     11 P3          4.4732    0.8725   -4.2253 P.3        1 <1>        0.000
     12 O11         3.5481    1.4699   -5.3589 O.3        1 <1>        0.000
     13 O12         4.2857    1.7863   -3.0975 O.2        1 <1>        0.000
     14 O13         5.9072    0.9324   -4.8544 O.3        1 <1>        0.000
     15 P4          3.4093    3.0140   -5.5502 P.3        1 <1>        0.000
     16 O14         2.4488    3.3815   -6.7048 O.3        1 <1>        0.000
     17 O16         2.9689    3.5768   -4.2958 O.2        1 <1>        0.000
     18 H           4.2332    0.8671   -1.0583 H.spc      1 <1>        0.000
     19 H           2.1596    0.5433    0.3592 H.spc      1 <1>        0.000
     20 H           5.1053    3.1597   -6.8257 H.spc      1 <1>        0.000
     21 H           2.9827   -2.9059   -2.9488 H.spc      1 <1>        0.000
     22 H           5.9612    0.3117   -5.5848 H.spc      1 <1>        0.000
     23 H           2.7693    2.9930   -7.5221 H.spc      1 <1>        0.000
@<TRIPOS>BOND
     1    7   11 1  
     2   11   12 1  
     3    2    3 1  
     4   15   16 1  
     5    1    2 1  
     6   11   14 1  
     7    6    9 2  
     8   15   17 2  
     9    2    5 1  
    10   15    8 1  
    11    6   10 1  
    12   12   15 1  
    13    6    7 1  
    14    2    4 2  
    15    3    6 1  
    16   11   13 2  
    17    1   18 1  
    18    5   19 1  
    19    8   20 1  
    20   10   21 1  
    21   14   22 1  
    22   16   23 1  
# Name:          frag3-253-4/96164
# Creation time: Sat Jun  5 12:53:18 2010


@<TRIPOS>MOLECULE
frag3-253-4/96164
   23    22     1     1     1
SMALL
USER_CHARGES


@<TRIPOS>ATOM
      1 O4          3.4726    0.2634   -0.3784 O.3        1 <1>        0.000
      2 P1          2.5656   -0.9882   -0.7371 P.3        1 <1>        0.000
      3 O5          1.9701   -0.7561   -2.1729 O.3        1 <1>        0.000
      4 O6          3.4055   -2.1721   -0.7043 O.2        1 <1>        0.000
      5 O7          1.3901   -1.0687    0.2814 O.3        1 <1>        0.000
      6 P2          2.8048   -0.6168   -3.4571 P.3        1 <1>        0.000
      7 O8          3.7702    0.6400   -3.4544 O.3        1 <1>        0.000
      8 O15         3.9036    3.5906   -4.0997 O.3        1 <1>        0.000
      9 O9          2.0891   -0.6663   -4.7148 O.2        1 <1>        0.000
     10 O10         3.8564   -1.8357   -3.3850 O.3        1 <1>        0.000
     11 P3          4.8142    0.9170   -4.6113 P.3        1 <1>        0.000
     12 O11         4.0833    1.6863   -5.7635 O.3        1 <1>        0.000
     13 O12         5.9286    1.7347   -4.1763 O.2        1 <1>        0.000
     14 O13         5.2198   -0.5063   -5.1550 O.3        1 <1>        0.000
     15 P4          3.2962    3.0005   -5.4732 P.3        1 <1>        0.000
     16 O14         3.5996    4.0759   -6.5530 O.3        1 <1>        0.000
     17 O16         1.8841    2.7304   -5.3607 O.2        1 <1>        0.000
     18 H           2.9372    1.0601   -0.3939 H.spc      1 <1>        0.000
     19 H           0.8637   -0.2679    0.2248 H.spc      1 <1>        0.000
     20 H           4.8423    3.7577   -4.2120 H.spc      1 <1>        0.000
     21 H           4.3291   -1.8001   -2.5502 H.spc      1 <1>        0.000
     22 H           4.4301   -0.9829   -5.4213 H.spc      1 <1>        0.000
     23 H           4.5468    4.2260   -6.5962 H.spc      1 <1>        0.000
@<TRIPOS>BOND
     1    7   11 1  
     2   11   12 1  
     3    2    3 1  
     4   15   16 1  
     5    1    2 1  
     6   11   14 1  
     7    6    9 2  
     8   15   17 2  
     9    2    5 1  
    10   15    8 1  
    11    6   10 1  
    12   12   15 1  
    13    6    7 1  
    14    2    4 2  
    15    3    6 1  
    16   11   13 2  
    17    1   18 1  
    18    5   19 1  
    19    8   20 1  
    20   10   21 1  
    21   14   22 1  
    22   16   23 1  
# Name:          frag3-253-4/96164
# Creation time: Sat Jun  5 12:53:18 2010


@<TRIPOS>MOLECULE
frag3-253-4/96164
   23    22     1     1     1
SMALL
USER_CHARGES


@<TRIPOS>ATOM
      1 O4          4.8146    3.1348   -3.4167 O.3        1 <1>        0.000
      2 P1          4.2709    3.3905   -4.8796 P.3        1 <1>        0.000
      3 O5          3.1416    2.3634   -5.1738 O.3        1 <1>        0.000
      4 O6          3.9504    4.7899   -5.0422 O.2        1 <1>        0.000
      5 O7          5.4288    2.9540   -5.8860 O.3        1 <1>        0.000
      6 P2          3.2966    0.8184   -5.0690 P.3        1 <1>        0.000
      7 O8          3.0043    0.2145   -3.6473 O.3        1 <1>        0.000
      8 O15         1.5698    0.1603   -1.2402 O.3        1 <1>        0.000
      9 O9          4.6888    0.4641   -5.4359 O.2        1 <1>        0.000
     10 O10         2.2730    0.0852   -6.0095 O.3        1 <1>        0.000
     11 P3          2.9745   -1.3531   -3.3720 P.3        1 <1>        0.000
     12 O11         3.2026   -1.6636   -1.8739 O.3        1 <1>        0.000
     13 O12         1.6818   -1.8705   -3.7939 O.2        1 <1>        0.000
     14 O13         4.1974   -1.9234   -4.1897 O.3        1 <1>        0.000
     15 P4          2.9139   -0.5916   -0.7761 P.3        1 <1>        0.000
     16 O14         2.6025   -1.2551    0.5872 O.3        1 <1>        0.000
     17 O16         4.0422    0.3110   -0.6968 O.2        1 <1>        0.000
     18 H           5.0262    2.2041   -3.3133 H.spc      1 <1>        0.000
     19 H           5.6255    2.0227   -5.7612 H.spc      1 <1>        0.000
     20 H           0.8483   -0.4717   -1.2798 H.spc      1 <1>        0.000
     21 H           1.3787    0.3265   -5.7572 H.spc      1 <1>        0.000
     22 H           5.0112   -1.5386   -3.8562 H.spc      1 <1>        0.000
     23 H           1.8503   -1.8438    0.4909 H.spc      1 <1>        0.000
@<TRIPOS>BOND
     1    7   11 1  
     2   11   12 1  
     3    2    3 1  
     4   15   16 1  
     5    1    2 1  
     6   11   14 1  
     7    6    9 2  
     8   15   17 2  
     9    2    5 1  
    10   15    8 1  
    11    6   10 1  
    12   12   15 1  
    13    6    7 1  
    14    2    4 2  
    15    3    6 1  
    16   11   13 2  
    17    1   18 1  
    18    5   19 1  
    19    8   20 1  
    20   10   21 1  
    21   14   22 1  
    22   16   23 1  
# Name:          frag3-253-4/96164
# Creation time: Sat Jun  5 12:53:18 2010


@<TRIPOS>MOLECULE
frag3-253-4/96164
   23    22     1     1     1
SMALL
USER_CHARGES


@<TRIPOS>ATOM
      1 O4          3.4475    0.4787    0.0917 O.3        1 <1>        0.000
      2 P1          2.7720   -0.2673   -1.0921 P.3        1 <1>        0.000
      3 O5          3.6760   -0.4052   -2.3701 O.3        1 <1>        0.000
      4 O6          2.3147   -1.5756   -0.6617 O.2        1 <1>        0.000
      5 O7          1.5399    0.6008   -1.6020 O.3        1 <1>        0.000
      6 P2          3.3661   -1.3994   -3.5685 P.3        1 <1>        0.000
      7 O8          3.9824   -0.8879   -4.8994 O.3        1 <1>        0.000
      8 O15         5.3071    3.2858   -3.9477 O.3        1 <1>        0.000
      9 O9          1.9076   -1.4816   -3.6842 O.2        1 <1>        0.000
     10 O10         4.0105   -2.7649   -3.1851 O.3        1 <1>        0.000
     11 P3          3.9540    0.5825   -5.3490 P.3        1 <1>        0.000
     12 O11         3.4547    1.5438   -4.1752 O.3        1 <1>        0.000
     13 O12         5.2669    1.1109   -5.7007 O.2        1 <1>        0.000
     14 O13         2.8700    0.7857   -6.4789 O.3        1 <1>        0.000
     15 P4          3.7555    3.0783   -4.2188 P.3        1 <1>        0.000
     16 O14         3.5323    3.5015   -5.7264 O.3        1 <1>        0.000
     17 O16         2.8967    3.8427   -3.3472 O.2        1 <1>        0.000
     18 H           3.7458    1.3419   -0.2040 H.spc      1 <1>        0.000
     19 H           1.8527    1.4635   -1.8841 H.spc      1 <1>        0.000
     20 H           5.8128    2.7487   -4.5620 H.spc      1 <1>        0.000
     21 H           4.9628   -2.6614   -3.1214 H.spc      1 <1>        0.000
     22 H           2.0325    0.4183   -6.1871 H.spc      1 <1>        0.000
     23 H           4.1105    2.9841   -6.2918 H.spc      1 <1>        0.000
@<TRIPOS>BOND
     1    7   11 1  
     2   11   12 1  
     3    2    3 1  
     4   15   16 1  
     5    1    2 1  
     6   11   14 1  
     7    6    9 2  
     8   15   17 2  
     9    2    5 1  
    10   15    8 1  
    11    6   10 1  
    12   12   15 1  
    13    6    7 1  
    14    2    4 2  
    15    3    6 1  
    16   11   13 2  
    17    1   18 1  
    18    5   19 1  
    19    8   20 1  
    20   10   21 1  
    21   14   22 1  
    22   16   23 1  
# Name:          frag3-253-4/96164
# Creation time: Sat Jun  5 12:53:18 2010


@<TRIPOS>MOLECULE
frag3-253-4/96164
   23    22     1     1     1
SMALL
USER_CHARGES


@<TRIPOS>ATOM
      1 O4          1.9085   -1.4384   -0.1482 O.3        1 <1>        0.000
      2 P1          3.2582   -0.7254   -0.5334 P.3        1 <1>        0.000
      3 O5          3.8345   -1.4052   -1.8171 O.3        1 <1>        0.000
      4 O6          2.9880    0.6731   -0.7960 O.2        1 <1>        0.000
      5 O7          4.2902   -0.9140    0.6217 O.3        1 <1>        0.000
      6 P2          3.3341   -1.1697   -3.2567 P.3        1 <1>        0.000
      7 O8          3.4540    0.3367   -3.7070 O.3        1 <1>        0.000
      8 O15         5.1984    2.7365   -5.9342 O.3        1 <1>        0.000
      9 O9          1.9240   -1.5587   -3.3584 O.2        1 <1>        0.000
     10 O10         4.2150   -1.9371   -4.3062 O.3        1 <1>        0.000
     11 P3          3.0631    0.8317   -5.1410 P.3        1 <1>        0.000
     12 O11         2.8017    2.3468   -5.2467 O.3        1 <1>        0.000
     13 O12         4.1694    0.5370   -6.0563 O.2        1 <1>        0.000
     14 O13         1.7437    0.0584   -5.5211 O.3        1 <1>        0.000
     15 P4          3.9527    3.3748   -5.1258 P.3        1 <1>        0.000
     16 O14         3.6442    4.7032   -5.8532 O.3        1 <1>        0.000
     17 O16         4.2740    3.5792   -3.7358 O.2        1 <1>        0.000
     18 H           2.0773   -2.3669    0.0279 H.spc      1 <1>        0.000
     19 H           4.4415   -1.8512    0.7642 H.spc      1 <1>        0.000
     20 H           4.9523    2.6134   -6.8539 H.spc      1 <1>        0.000
     21 H           5.1304   -1.6625   -4.2158 H.spc      1 <1>        0.000
     22 H           1.0510    0.2830   -4.8955 H.spc      1 <1>        0.000
     23 H           3.4361    4.5224   -6.7728 H.spc      1 <1>        0.000
@<TRIPOS>BOND
     1    7   11 1  
     2   11   12 1  
     3    2    3 1  
     4   15   16 1  
     5    1    2 1  
     6   11   14 1  
     7    6    9 2  
     8   15   17 2  
     9    2    5 1  
    10   15    8 1  
    11    6   10 1  
    12   12   15 1  
    13    6    7 1  
    14    2    4 2  
    15    3    6 1  
    16   11   13 2  
    17    1   18 1  
    18    5   19 1  
    19    8   20 1  
    20   10   21 1  
    21   14   22 1  
    22   16   23 1  
# Name:          frag3-253-4/96164
# Creation time: Sat Jun  5 12:53:18 2010


@<TRIPOS>MOLECULE
frag3-253-4/96164
   23    22     1     1     1
SMALL
USER_CHARGES


@<TRIPOS>ATOM
      1 O4          2.5885    0.9009   -1.0586 O.3        1 <1>        0.000
      2 P1          2.6213   -0.6424   -0.6906 P.3        1 <1>        0.000
      3 O5          3.4447   -1.3665   -1.8029 O.3        1 <1>        0.000
      4 O6          3.0858   -0.8027    0.6666 O.2        1 <1>        0.000
      5 O7          1.1501   -1.2067   -0.8727 O.3        1 <1>        0.000
      6 P2          3.3557   -1.0425   -3.3221 P.3        1 <1>        0.000
      7 O8          4.3215    0.0996   -3.8155 O.3        1 <1>        0.000
      8 O15         4.3722    2.9190   -3.4468 O.3        1 <1>        0.000
      9 O9          1.9660   -0.6274   -3.6347 O.2        1 <1>        0.000
     10 O10         3.7360   -2.3141   -4.1682 O.3        1 <1>        0.000
     11 P3          4.2958    0.6284   -5.3060 P.3        1 <1>        0.000
     12 O11         3.2565    1.7964   -5.4331 O.3        1 <1>        0.000
     13 O12         5.5833    1.1677   -5.7121 O.2        1 <1>        0.000
     14 O13         3.7907   -0.5836   -6.1746 O.3        1 <1>        0.000
     15 P4          3.5515    3.1905   -4.8063 P.3        1 <1>        0.000
     16 O14         4.5696    3.9334   -5.7451 O.3        1 <1>        0.000
     17 O16         2.3648    3.9790   -4.5924 O.2        1 <1>        0.000
     18 H           2.2795    1.0070   -1.9613 H.spc      1 <1>        0.000
     19 H           0.8724   -1.0850   -1.7835 H.spc      1 <1>        0.000
     20 H           5.1500    2.3919   -3.6437 H.spc      1 <1>        0.000
     21 H           4.6357   -2.5773   -3.9614 H.spc      1 <1>        0.000
     22 H           2.9395   -0.8799   -5.8441 H.spc      1 <1>        0.000
     23 H           5.3479    3.3851   -5.8688 H.spc      1 <1>        0.000
@<TRIPOS>BOND
     1    7   11 1  
     2   11   12 1  
     3    2    3 1  
     4   15   16 1  
     5    1    2 1  
     6   11   14 1  
     7    6    9 2  
     8   15   17 2  
     9    2    5 1  
    10   15    8 1  
    11    6   10 1  
    12   12   15 1  
    13    6    7 1  
    14    2    4 2  
    15    3    6 1  
    16   11   13 2  
    17    1   18 1  
    18    5   19 1  
    19    8   20 1  
    20   10   21 1  
    21   14   22 1  
    22   16   23 1  
# Name:          frag3-253-4/96164
# Creation time: Sat Jun  5 12:53:18 2010


@<TRIPOS>MOLECULE
frag3-253-4/96164
   23    22     1     1     1
SMALL
USER_CHARGES


@<TRIPOS>ATOM
      1 O4          5.6241    2.0866   -4.3948 O.3        1 <1>        0.000
      2 P1          4.2855    2.9407   -4.3509 P.3        1 <1>        0.000
      3 O5          3.0930    1.9451   -4.5443 O.3        1 <1>        0.000
      4 O6          4.2759    3.7544   -3.1613 O.2        1 <1>        0.000
      5 O7          4.2521    3.8276   -5.6653 O.3        1 <1>        0.000
      6 P2          3.0795    0.7353   -5.5974 P.3        1 <1>        0.000
      7 O8          3.7084   -0.5090   -4.8981 O.3        1 <1>        0.000
      8 O15         3.3042    0.8608    0.0577 O.3        1 <1>        0.000
      9 O9          3.7977    1.1810   -6.7829 O.2        1 <1>        0.000
     10 O10         1.5836    0.3899   -5.8978 O.3        1 <1>        0.000
     11 P3          3.2330   -1.0163   -3.5109 P.3        1 <1>        0.000
     12 O11         3.7727   -0.1770   -2.2913 O.3        1 <1>        0.000
     13 O12         1.7630   -0.8367   -3.4568 O.2        1 <1>        0.000
     14 O13         3.6860   -2.4828   -3.1979 O.3        1 <1>        0.000
     15 P4          3.1868   -0.4083   -0.8469 P.3        1 <1>        0.000
     16 O14         1.6332   -0.6510   -1.0798 O.3        1 <1>        0.000
     17 O16         3.7753   -1.6115   -0.2966 O.2        1 <1>        0.000
     18 H           5.6307    1.5446   -5.1871 H.spc      1 <1>        0.000
     19 H           4.2594    3.2556   -6.4362 H.spc      1 <1>        0.000
     20 H           2.8899    1.6061   -0.3833 H.spc      1 <1>        0.000
     21 H           1.1541    0.1023   -5.0888 H.spc      1 <1>        0.000
     22 H           4.6431   -2.5383   -3.2475 H.spc      1 <1>        0.000
     23 H           1.2375    0.1439   -1.4448 H.spc      1 <1>        0.000
@<TRIPOS>BOND
     1    7   11 1  
     2   11   12 1  
     3    2    3 1  
     4   15   16 1  
     5    1    2 1  
     6   11   14 1  
     7    6    9 2  
     8   15   17 2  
     9    2    5 1  
    10   15    8 1  
    11    6   10 1  
    12   12   15 1  
    13    6    7 1  
    14    2    4 2  
    15    3    6 1  
    16   11   13 2  
    17    1   18 1  
    18    5   19 1  
    19    8   20 1  
    20   10   21 1  
    21   14   22 1  
    22   16   23 1  
# Name:          frag3-253-4/96164
# Creation time: Sat Jun  5 12:53:18 2010


@<TRIPOS>MOLECULE
frag3-253-4/96164
   23    22     1     1     1
SMALL
USER_CHARGES


@<TRIPOS>ATOM
      1 O4          2.7337    1.2468   -1.2458 O.3        1 <1>        0.000
      2 P1          2.7594   -0.2776   -0.8403 P.3        1 <1>        0.000
      3 O5          2.1666   -1.0799   -2.0582 O.3        1 <1>        0.000
      4 O6          4.1401   -0.6651   -0.6105 O.2        1 <1>        0.000
      5 O7          1.8518   -0.5172    0.3940 O.3        1 <1>        0.000
      6 P2          2.7792   -1.1484   -3.4727 P.3        1 <1>        0.000
      7 O8          3.2991    0.2673   -3.9534 O.3        1 <1>        0.000
      8 O15         5.2160    2.4132   -3.6237 O.3        1 <1>        0.000
      9 O9          1.9143   -1.6730   -4.5119 O.2        1 <1>        0.000
     10 O10         4.1044   -2.0010   -3.3240 O.3        1 <1>        0.000
     11 P3          3.7616    0.5679   -5.4391 P.3        1 <1>        0.000
     12 O11         3.8524    2.0834   -5.7087 O.3        1 <1>        0.000
     13 O12         5.0670   -0.0373   -5.6388 O.2        1 <1>        0.000
     14 O13         2.6181   -0.0322   -6.3345 O.3        1 <1>        0.000
     15 P4          4.1204    3.1068   -4.5799 P.3        1 <1>        0.000
     16 O14         4.7850    4.4031   -5.0943 O.3        1 <1>        0.000
     17 O16         2.8849    3.3720   -3.8736 O.2        1 <1>        0.000
     18 H           1.8267    1.5200   -1.4017 H.spc      1 <1>        0.000
     19 H           0.9546   -0.2451    0.1877 H.spc      1 <1>        0.000
     20 H           6.0196    2.2525   -4.1237 H.spc      1 <1>        0.000
     21 H           4.6495   -1.6246   -2.6292 H.spc      1 <1>        0.000
     22 H           1.7929    0.4194   -6.1429 H.spc      1 <1>        0.000
     23 H           5.5981    4.1835   -5.5549 H.spc      1 <1>        0.000
@<TRIPOS>BOND
     1    7   11 1  
     2   11   12 1  
     3    2    3 1  
     4   15   16 1  
     5    1    2 1  
     6   11   14 1  
     7    6    9 2  
     8   15   17 2  
     9    2    5 1  
    10   15    8 1  
    11    6   10 1  
    12   12   15 1  
    13    6    7 1  
    14    2    4 2  
    15    3    6 1  
    16   11   13 2  
    17    1   18 1  
    18    5   19 1  
    19    8   20 1  
    20   10   21 1  
    21   14   22 1  
    22   16   23 1  
# Name:          frag3-253-4/96164
# Creation time: Sat Jun  5 12:53:18 2010


@<TRIPOS>MOLECULE
frag3-253-4/96164
   23    22     1     1     1
SMALL
USER_CHARGES


@<TRIPOS>ATOM
      1 O4          3.1320    3.7731   -5.3867 O.3        1 <1>        0.000
      2 P1          2.8041    2.5372   -4.4669 P.3        1 <1>        0.000
      3 O5          3.2815    1.2328   -5.2018 O.3        1 <1>        0.000
      4 O6          3.5281    2.6893   -3.2154 O.2        1 <1>        0.000
      5 O7          1.2641    2.4630   -4.2417 O.3        1 <1>        0.000
      6 P2          4.7838    0.7413   -5.3153 P.3        1 <1>        0.000
      7 O8          5.2599    0.4696   -3.8462 O.3        1 <1>        0.000
      8 O15         2.5918   -1.7509   -0.9752 O.3        1 <1>        0.000
      9 O9          5.5532    1.7513   -6.0102 O.2        1 <1>        0.000
     10 O10         4.8009   -0.6488   -6.0340 O.3        1 <1>        0.000
     11 P3          4.4443   -0.3750   -2.8352 P.3        1 <1>        0.000
     12 O11         3.2004    0.3534   -2.2133 O.3        1 <1>        0.000
     13 O12         3.8434   -1.4984   -3.5864 O.2        1 <1>        0.000
     14 O13         5.2730   -0.8547   -1.5893 O.3        1 <1>        0.000
     15 P4          1.9657   -0.4431   -1.6665 P.3        1 <1>        0.000
     16 O14         1.2329    0.3509   -0.5586 O.3        1 <1>        0.000
     17 O16         1.0951   -0.7621   -2.7726 O.2        1 <1>        0.000
     18 H           2.6599    3.6860   -6.2181 H.spc      1 <1>        0.000
     19 H           0.8225    2.3630   -5.0882 H.spc      1 <1>        0.000
     20 H           3.1607   -1.4862   -0.2486 H.spc      1 <1>        0.000
     21 H           4.2766   -1.2751   -5.5295 H.spc      1 <1>        0.000
     22 H           5.6405   -0.0914   -1.1377 H.spc      1 <1>        0.000
     23 H           1.8457    0.5418    0.1553 H.spc      1 <1>        0.000
@<TRIPOS>BOND
     1    7   11 1  
     2   11   12 1  
     3    2    3 1  
     4   15   16 1  
     5    1    2 1  
     6   11   14 1  
     7    6    9 2  
     8   15   17 2  
     9    2    5 1  
    10   15    8 1  
    11    6   10 1  
    12   12   15 1  
    13    6    7 1  
    14    2    4 2  
    15    3    6 1  
    16   11   13 2  
    17    1   18 1  
    18    5   19 1  
    19    8   20 1  
    20   10   21 1  
    21   14   22 1  
    22   16   23 1  
# Name:          frag3-253-4/96164
# Creation time: Sat Jun  5 12:53:18 2010


@<TRIPOS>MOLECULE
frag3-253-4/96164
   23    22     1     1     1
SMALL
USER_CHARGES


@<TRIPOS>ATOM
      1 O4          3.6642    3.9929   -5.5074 O.3        1 <1>        0.000
      2 P1          2.8347    2.7154   -5.0712 P.3        1 <1>        0.000
      3 O5          3.6144    1.4434   -5.5763 O.3        1 <1>        0.000
      4 O6          2.7165    2.7187   -3.6243 O.2        1 <1>        0.000
      5 O7          1.4377    2.7587   -5.7717 O.3        1 <1>        0.000
      6 P2          5.0596    1.0266   -5.0835 P.3        1 <1>        0.000
      7 O8          4.9401    0.7124   -3.5434 O.3        1 <1>        0.000
      8 O15         1.0243   -0.2071   -1.2239 O.3        1 <1>        0.000
      9 O9          5.9972    2.0873   -5.3913 O.2        1 <1>        0.000
     10 O10         5.4566   -0.3450   -5.7399 O.3        1 <1>        0.000
     11 P3          3.8519   -0.2249   -2.9629 P.3        1 <1>        0.000
     12 O11         3.5760   -0.2624   -1.4437 O.3        1 <1>        0.000
     13 O12         2.5588    0.0894   -3.6089 O.2        1 <1>        0.000
     14 O13         4.2714   -1.7435   -3.3227 O.3        1 <1>        0.000
     15 P4          2.3450   -1.0248   -0.8671 P.3        1 <1>        0.000
     16 O14         2.2269   -2.3715   -1.7101 O.3        1 <1>        0.000
     17 O16         2.4786   -1.3367    0.5330 O.2        1 <1>        0.000
     18 H           3.7514    4.0054   -6.4634 H.spc      1 <1>        0.000
     19 H           1.5583    2.7552   -6.7241 H.spc      1 <1>        0.000
     20 H           1.0010   -0.0351   -2.1681 H.spc      1 <1>        0.000
     21 H           4.8058   -1.0107   -5.5059 H.spc      1 <1>        0.000
     22 H           5.1105   -1.9501   -2.9046 H.spc      1 <1>        0.000
     23 H           2.1381   -2.1577   -2.6418 H.spc      1 <1>        0.000
@<TRIPOS>BOND
     1    7   11 1  
     2   11   12 1  
     3    2    3 1  
     4   15   16 1  
     5    1    2 1  
     6   11   14 1  
     7    6    9 2  
     8   15   17 2  
     9    2    5 1  
    10   15    8 1  
    11    6   10 1  
    12   12   15 1  
    13    6    7 1  
    14    2    4 2  
    15    3    6 1  
    16   11   13 2  
    17    1   18 1  
    18    5   19 1  
    19    8   20 1  
    20   10   21 1  
    21   14   22 1  
    22   16   23 1  
# Name:          frag3-253-4/96164
# Creation time: Sat Jun  5 12:53:18 2010


@<TRIPOS>MOLECULE
frag3-253-4/96164
   23    22     1     1     1
SMALL
USER_CHARGES


@<TRIPOS>ATOM
      1 O4          3.4760   -0.6405    0.3363 O.3        1 <1>        0.000
      2 P1          2.9623   -1.6760   -0.7189 P.3        1 <1>        0.000
      3 O5          2.0280   -0.9524   -1.7640 O.3        1 <1>        0.000
      4 O6          4.0987   -2.2479   -1.4193 O.2        1 <1>        0.000
      5 O7          2.1120   -2.7776   -0.0118 O.3        1 <1>        0.000
      6 P2          2.5045   -0.3681   -3.1107 P.3        1 <1>        0.000
      7 O8          3.8753    0.3968   -2.9395 O.3        1 <1>        0.000
      8 O15         3.0587    2.4382   -7.6534 O.3        1 <1>        0.000
      9 O9          1.5795    0.5193   -3.7755 O.2        1 <1>        0.000
     10 O10         2.8424   -1.6358   -4.0132 O.3        1 <1>        0.000
     11 P3          4.3150    1.5641   -3.8450 P.3        1 <1>        0.000
     12 O11         3.5983    1.4964   -5.2632 O.3        1 <1>        0.000
     13 O12         3.9026    2.8361   -3.2812 O.2        1 <1>        0.000
     14 O13         5.8414    1.4789   -4.2175 O.3        1 <1>        0.000
     15 P4          3.7448    2.6839   -6.2625 P.3        1 <1>        0.000
     16 O14         2.9661    3.9080   -5.6282 O.3        1 <1>        0.000
     17 O16         5.1484    3.0056   -6.3476 O.2        1 <1>        0.000
     18 H           2.7269   -0.2606    0.8011 H.spc      1 <1>        0.000
     19 H           1.3711   -2.3674    0.4403 H.spc      1 <1>        0.000
     20 H           2.1311    2.2304   -7.5191 H.spc      1 <1>        0.000
     21 H           3.4578   -2.2052   -3.5456 H.spc      1 <1>        0.000
     22 H           6.0328    0.6116   -4.5819 H.spc      1 <1>        0.000
     23 H           2.0316    3.6961   -5.5706 H.spc      1 <1>        0.000
@<TRIPOS>BOND
     1    7   11 1  
     2   11   12 1  
     3    2    3 1  
     4   15   16 1  
     5    1    2 1  
     6   11   14 1  
     7    6    9 2  
     8   15   17 2  
     9    2    5 1  
    10   15    8 1  
    11    6   10 1  
    12   12   15 1  
    13    6    7 1  
    14    2    4 2  
    15    3    6 1  
    16   11   13 2  
    17    1   18 1  
    18    5   19 1  
    19    8   20 1  
    20   10   21 1  
    21   14   22 1  
    22   16   23 1  
# Name:          frag3-253-4/96164
# Creation time: Sat Jun  5 12:53:18 2010


@<TRIPOS>MOLECULE
frag3-253-4/96164
   23    22     1     1     1
SMALL
USER_CHARGES


@<TRIPOS>ATOM
      1 O4          4.0283    3.3978   -3.5556 O.3        1 <1>        0.000
      2 P1          3.4434    3.0126   -4.9725 P.3        1 <1>        0.000
      3 O5          4.4250    1.9906   -5.6356 O.3        1 <1>        0.000
      4 O6          2.1354    2.4157   -4.7796 O.2        1 <1>        0.000
      5 O7          3.3823    4.2949   -5.8565 O.3        1 <1>        0.000
      6 P2          4.7759    0.5758   -5.1070 P.3        1 <1>        0.000
      7 O8          3.4650   -0.2823   -4.9133 O.3        1 <1>        0.000
      8 O15         2.3978    0.8774    0.0557 O.3        1 <1>        0.000
      9 O9          5.3768    0.7052   -3.7638 O.2        1 <1>        0.000
     10 O10         5.7045   -0.2174   -6.0655 O.3        1 <1>        0.000
     11 P3          3.0213   -0.9022   -3.5692 P.3        1 <1>        0.000
     12 O11         3.0115    0.1345   -2.3865 O.3        1 <1>        0.000
     13 O12         1.7100   -1.5177   -3.5822 O.2        1 <1>        0.000
     14 O13         4.1880   -1.9156   -3.1455 O.3        1 <1>        0.000
     15 P4          2.5364   -0.3019   -0.9673 P.3        1 <1>        0.000
     16 O14         1.0621   -0.8556   -1.1570 O.3        1 <1>        0.000
     17 O16         3.3903   -1.3829   -0.5140 O.2        1 <1>        0.000
     18 H           4.8954    3.7949   -3.6658 H.spc      1 <1>        0.000
     19 H           4.2664    4.6551   -5.9574 H.spc      1 <1>        0.000
     20 H           1.8212    1.5517   -0.3111 H.spc      1 <1>        0.000
     21 H           5.2890   -0.2853   -6.9283 H.spc      1 <1>        0.000
     22 H           5.0299   -1.4544   -3.1546 H.spc      1 <1>        0.000
     23 H           0.4907   -0.1449   -1.4572 H.spc      1 <1>        0.000
@<TRIPOS>BOND
     1    7   11 1  
     2   11   12 1  
     3    2    3 1  
     4   15   16 1  
     5    1    2 1  
     6   11   14 1  
     7    6    9 2  
     8   15   17 2  
     9    2    5 1  
    10   15    8 1  
    11    6   10 1  
    12   12   15 1  
    13    6    7 1  
    14    2    4 2  
    15    3    6 1  
    16   11   13 2  
    17    1   18 1  
    18    5   19 1  
    19    8   20 1  
    20   10   21 1  
    21   14   22 1  
    22   16   23 1  
# Name:          frag3-253-4/96164
# Creation time: Sat Jun  5 12:53:18 2010


@<TRIPOS>MOLECULE
frag3-253-4/96164
   23    22     1     1     1
SMALL
USER_CHARGES


@<TRIPOS>ATOM
      1 O4          2.7151    3.4781   -5.5291 O.3        1 <1>        0.000
      2 P1          3.7691    2.6560   -6.3756 P.3        1 <1>        0.000
      3 O5          4.1138    1.3607   -5.5663 O.3        1 <1>        0.000
      4 O6          3.2531    2.4642   -7.7192 O.2        1 <1>        0.000
      5 O7          5.1197    3.4839   -6.3878 O.3        1 <1>        0.000
      6 P2          4.3109    1.3068   -3.9962 P.3        1 <1>        0.000
      7 O8          3.8918   -0.0465   -3.3620 O.3        1 <1>        0.000
      8 O15         3.1227   -0.1661   -0.1668 O.3        1 <1>        0.000
      9 O9          3.4543    2.3719   -3.4333 O.2        1 <1>        0.000
     10 O10         5.8177    1.6110   -3.6992 O.3        1 <1>        0.000
     11 P3          2.3946   -0.4542   -3.0744 P.3        1 <1>        0.000
     12 O11         2.2932   -1.6197   -2.0637 O.3        1 <1>        0.000
     13 O12         1.7605    0.7137   -2.4611 O.2        1 <1>        0.000
     14 O13         1.7749   -0.8567   -4.4569 O.3        1 <1>        0.000
     15 P4          3.1677   -1.6505   -0.7802 P.3        1 <1>        0.000
     16 O14         2.5777   -2.5857    0.3043 O.3        1 <1>        0.000
     17 O16         4.5173   -2.0381   -1.1477 O.2        1 <1>        0.000
     18 H           3.0519    3.6076   -4.6395 H.spc      1 <1>        0.000
     19 H           5.4346    3.5936   -5.4876 H.spc      1 <1>        0.000
     20 H           2.2178    0.0562    0.0642 H.spc      1 <1>        0.000
     21 H           6.3629    0.9129   -4.0694 H.spc      1 <1>        0.000
     22 H           2.2352   -1.6257   -4.8009 H.spc      1 <1>        0.000
     23 H           1.6873   -2.3000    0.5217 H.spc      1 <1>        0.000
@<TRIPOS>BOND
     1    7   11 1  
     2   11   12 1  
     3    2    3 1  
     4   15   16 1  
     5    1    2 1  
     6   11   14 1  
     7    6    9 2  
     8   15   17 2  
     9    2    5 1  
    10   15    8 1  
    11    6   10 1  
    12   12   15 1  
    13    6    7 1  
    14    2    4 2  
    15    3    6 1  
    16   11   13 2  
    17    1   18 1  
    18    5   19 1  
    19    8   20 1  
    20   10   21 1  
    21   14   22 1  
    22   16   23 1  
# Name:          frag3-253-4/96164
# Creation time: Sat Jun  5 12:53:18 2010


@<TRIPOS>MOLECULE
frag3-253-4/96164
   23    22     1     1     1
SMALL
USER_CHARGES


@<TRIPOS>ATOM
      1 O4          4.3186   -0.8353   -0.0569 O.3        1 <1>        0.000
      2 P1          3.2906   -1.7960   -0.7608 P.3        1 <1>        0.000
      3 O5          2.1702   -0.9108   -1.4367 O.3        1 <1>        0.000
      4 O6          3.9901   -2.5485   -1.7934 O.2        1 <1>        0.000
      5 O7          2.6040   -2.7270    0.2767 O.3        1 <1>        0.000
      6 P2          2.2993   -0.2274   -2.8217 P.3        1 <1>        0.000
      7 O8          3.7203    0.4322   -2.9832 O.3        1 <1>        0.000
      8 O15         2.5598    3.1975   -6.4518 O.3        1 <1>        0.000
      9 O9          1.2958    0.7773   -3.1112 O.2        1 <1>        0.000
     10 O10         2.2533   -1.4097   -3.8735 O.3        1 <1>        0.000
     11 P3          3.9748    1.6463   -3.8986 P.3        1 <1>        0.000
     12 O11         4.0120    1.3405   -5.4359 O.3        1 <1>        0.000
     13 O12         2.8490    2.5818   -3.7323 O.2        1 <1>        0.000
     14 O13         5.3584    2.3474   -3.6072 O.3        1 <1>        0.000
     15 P4          3.9808    2.4884   -6.4861 P.3        1 <1>        0.000
     16 O14         4.9791    3.5975   -5.9342 O.3        1 <1>        0.000
     17 O16         4.3978    2.0749   -7.8086 O.2        1 <1>        0.000
     18 H           3.8692   -0.3331    0.6267 H.spc      1 <1>        0.000
     19 H           2.1562   -2.1931    0.9370 H.spc      1 <1>        0.000
     20 H           2.3480    3.4438   -5.5484 H.spc      1 <1>        0.000
     21 H           2.9278   -2.0570   -3.6553 H.spc      1 <1>        0.000
     22 H           6.0686    1.7122   -3.7242 H.spc      1 <1>        0.000
     23 H           4.6999    3.8697   -5.0570 H.spc      1 <1>        0.000
@<TRIPOS>BOND
     1    7   11 1  
     2   11   12 1  
     3    2    3 1  
     4   15   16 1  
     5    1    2 1  
     6   11   14 1  
     7    6    9 2  
     8   15   17 2  
     9    2    5 1  
    10   15    8 1  
    11    6   10 1  
    12   12   15 1  
    13    6    7 1  
    14    2    4 2  
    15    3    6 1  
    16   11   13 2  
    17    1   18 1  
    18    5   19 1  
    19    8   20 1  
    20   10   21 1  
    21   14   22 1  
    22   16   23 1  
# Name:          frag3-253-4/96164
# Creation time: Sat Jun  5 12:53:18 2010


@<TRIPOS>MOLECULE
frag3-253-4/96164
   23    22     1     1     1
SMALL
USER_CHARGES


@<TRIPOS>ATOM
      1 O4          3.0251    3.9707   -5.6649 O.3        1 <1>        0.000
      2 P1          2.8990    2.7314   -4.7072 P.3        1 <1>        0.000
      3 O5          3.5131    1.4664   -5.4168 O.3        1 <1>        0.000
      4 O6          3.6460    2.9999   -3.4878 O.2        1 <1>        0.000
      5 O7          1.3905    2.4567   -4.4066 O.3        1 <1>        0.000
      6 P2          4.9892    0.9375   -5.1949 P.3        1 <1>        0.000
      7 O8          5.0832    0.4794   -3.6947 O.3        1 <1>        0.000
      8 O15         0.9991   -0.0074   -1.9151 O.3        1 <1>        0.000
      9 O9          5.9185    1.9890   -5.5527 O.2        1 <1>        0.000
     10 O10         5.1905   -0.3727   -6.0363 O.3        1 <1>        0.000
     11 P3          4.0563   -0.4725   -3.0314 P.3        1 <1>        0.000
     12 O11         3.5396   -0.1643   -1.6083 O.3        1 <1>        0.000
     13 O12         2.8360   -0.4600   -3.8918 O.2        1 <1>        0.000
     14 O13         4.6594   -1.9439   -2.9630 O.3        1 <1>        0.000
     15 P4          2.1783   -0.7128   -1.1020 P.3        1 <1>        0.000
     16 O14         2.1093   -2.2324   -1.5713 O.3        1 <1>        0.000
     17 O16         2.0209   -0.6361    0.3296 O.2        1 <1>        0.000
     18 H           2.5344    3.8009   -6.4724 H.spc      1 <1>        0.000
     19 H           0.9277    2.2838   -5.2297 H.spc      1 <1>        0.000
     20 H           1.1646   -0.0944   -2.8567 H.spc      1 <1>        0.000
     21 H           4.5507   -1.0320   -5.7578 H.spc      1 <1>        0.000
     22 H           5.4428   -1.9419   -2.4082 H.spc      1 <1>        0.000
     23 H           2.2146   -2.2769   -2.5245 H.spc      1 <1>        0.000
@<TRIPOS>BOND
     1    7   11 1  
     2   11   12 1  
     3    2    3 1  
     4   15   16 1  
     5    1    2 1  
     6   11   14 1  
     7    6    9 2  
     8   15   17 2  
     9    2    5 1  
    10   15    8 1  
    11    6   10 1  
    12   12   15 1  
    13    6    7 1  
    14    2    4 2  
    15    3    6 1  
    16   11   13 2  
    17    1   18 1  
    18    5   19 1  
    19    8   20 1  
    20   10   21 1  
    21   14   22 1  
    22   16   23 1  
# Name:          frag3-253-4/96164
# Creation time: Sat Jun  5 12:53:18 2010


@<TRIPOS>MOLECULE
frag3-253-4/96164
   23    22     1     1     1
SMALL
USER_CHARGES


@<TRIPOS>ATOM
      1 O4          3.0295    0.5396   -0.9135 O.3        1 <1>        0.000
      2 P1          3.2567   -1.0243   -0.7971 P.3        1 <1>        0.000
      3 O5          3.5738   -1.5801   -2.2358 O.3        1 <1>        0.000
      4 O6          4.2320   -1.2988    0.2314 O.2        1 <1>        0.000
      5 O7          1.8540   -1.6924   -0.4451 O.3        1 <1>        0.000
      6 P2          2.6576   -1.3370   -3.5204 P.3        1 <1>        0.000
      7 O8          3.4085   -0.5226   -4.6139 O.3        1 <1>        0.000
      8 O15         2.8047    3.7116   -6.1396 O.3        1 <1>        0.000
      9 O9          1.4929   -0.5441   -3.0470 O.2        1 <1>        0.000
     10 O10         2.2044   -2.7253   -4.0563 O.3        1 <1>        0.000
     11 P3          3.7406    0.9808   -4.4865 P.3        1 <1>        0.000
     12 O11         4.3819    1.7248   -5.6861 O.3        1 <1>        0.000
     13 O12         2.4981    1.7185   -4.1676 O.2        1 <1>        0.000
     14 O13         4.7994    1.1291   -3.2876 O.3        1 <1>        0.000
     15 P4          4.2974    3.2838   -5.7806 P.3        1 <1>        0.000
     16 O14         4.5325    3.8238   -4.3008 O.3        1 <1>        0.000
     17 O16         5.2899    3.8414   -6.6689 O.2        1 <1>        0.000
     18 H           2.3806    0.7175   -1.5982 H.spc      1 <1>        0.000
     19 H           1.2236   -1.4963   -1.1420 H.spc      1 <1>        0.000
     20 H           2.1983    3.3088   -5.5138 H.spc      1 <1>        0.000
     21 H           2.9722   -3.2177   -4.3555 H.spc      1 <1>        0.000
     22 H           5.5996    0.6464   -3.5073 H.spc      1 <1>        0.000
     23 H           3.8698    3.4495   -3.7157 H.spc      1 <1>        0.000
@<TRIPOS>BOND
     1    7   11 1  
     2   11   12 1  
     3    2    3 1  
     4   15   16 1  
     5    1    2 1  
     6   11   14 1  
     7    6    9 2  
     8   15   17 2  
     9    2    5 1  
    10   15    8 1  
    11    6   10 1  
    12   12   15 1  
    13    6    7 1  
    14    2    4 2  
    15    3    6 1  
    16   11   13 2  
    17    1   18 1  
    18    5   19 1  
    19    8   20 1  
    20   10   21 1  
    21   14   22 1  
    22   16   23 1  
# Name:          frag3-253-4/96164
# Creation time: Sat Jun  5 12:53:18 2010


@<TRIPOS>MOLECULE
frag3-253-4/96164
   23    22     1     1     1
SMALL
USER_CHARGES


@<TRIPOS>ATOM
      1 O4          2.7404    3.2369   -7.1059 O.3        1 <1>        0.000
      2 P1          3.2634    2.9169   -5.6748 P.3        1 <1>        0.000
      3 O5          4.1931    1.6617   -5.5974 O.3        1 <1>        0.000
      4 O6          3.9206    4.0760   -5.1140 O.2        1 <1>        0.000
      5 O7          1.9902    2.5419   -4.7843 O.3        1 <1>        0.000
      6 P2          4.9791    1.2318   -4.2870 P.3        1 <1>        0.000
      7 O8          3.9024    0.8541   -3.2031 O.3        1 <1>        0.000
      8 O15         1.6184   -0.8851    0.4025 O.3        1 <1>        0.000
      9 O9          5.8800    2.2879   -3.9032 O.2        1 <1>        0.000
     10 O10         5.7325   -0.1156   -4.6088 O.3        1 <1>        0.000
     11 P3          2.9247   -0.3665   -3.3568 P.3        1 <1>        0.000
     12 O11         1.9681   -0.6021   -2.1764 O.3        1 <1>        0.000
     13 O12         2.2466   -0.2681   -4.6308 O.2        1 <1>        0.000
     14 O13         3.8818   -1.6787   -3.2964 O.3        1 <1>        0.000
     15 P4          2.4917   -1.2277   -0.8406 P.3        1 <1>        0.000
     16 O14         2.4335   -2.8003   -1.0138 O.3        1 <1>        0.000
     17 O16         3.8876   -0.8343   -0.7243 O.2        1 <1>        0.000
     18 H           2.3064    2.4608   -7.4677 H.spc      1 <1>        0.000
     19 H           1.5551    1.7721   -5.1582 H.spc      1 <1>        0.000
     20 H           0.7163   -1.1748    0.2481 H.spc      1 <1>        0.000
     21 H           5.0931   -0.7867   -4.8586 H.spc      1 <1>        0.000
     22 H           4.3171   -1.7168   -2.4416 H.spc      1 <1>        0.000
     23 H           1.5181   -3.0788   -1.0923 H.spc      1 <1>        0.000
@<TRIPOS>BOND
     1    7   11 1  
     2   11   12 1  
     3    2    3 1  
     4   15   16 1  
     5    1    2 1  
     6   11   14 1  
     7    6    9 2  
     8   15   17 2  
     9    2    5 1  
    10   15    8 1  
    11    6   10 1  
    12   12   15 1  
    13    6    7 1  
    14    2    4 2  
    15    3    6 1  
    16   11   13 2  
    17    1   18 1  
    18    5   19 1  
    19    8   20 1  
    20   10   21 1  
    21   14   22 1  
    22   16   23 1  
# Name:          frag3-253-4/96164
# Creation time: Sat Jun  5 12:53:18 2010


@<TRIPOS>MOLECULE
frag3-253-4/96164
   23    22     1     1     1
SMALL
USER_CHARGES


@<TRIPOS>ATOM
      1 O4          3.7040    4.3180   -6.0815 O.3        1 <1>        0.000
      2 P1          3.5274    3.1482   -5.0818 P.3        1 <1>        0.000
      3 O5          4.4273    1.9061   -5.3966 O.3        1 <1>        0.000
      4 O6          3.7483    3.5944   -3.7261 O.2        1 <1>        0.000
      5 O7          2.0516    2.5677   -5.2353 O.3        1 <1>        0.000
      6 P2          4.5540    0.6676   -4.4842 P.3        1 <1>        0.000
      7 O8          3.1933   -0.1125   -4.2816 O.3        1 <1>        0.000
      8 O15         3.1340    0.0444    0.2649 O.3        1 <1>        0.000
      9 O9          5.0491    1.0694   -3.1614 O.2        1 <1>        0.000
     10 O10         5.5142   -0.4001   -5.1343 O.3        1 <1>        0.000
     11 P3          3.0947   -1.4977   -3.5166 P.3        1 <1>        0.000
     12 O11         3.4311   -1.2210   -2.0066 O.3        1 <1>        0.000
     13 O12         1.7873   -2.0888   -3.5730 O.2        1 <1>        0.000
     14 O13         4.2567   -2.3925   -4.1009 O.3        1 <1>        0.000
     15 P4          2.5955   -0.1817   -1.1816 P.3        1 <1>        0.000
     16 O14         2.7738    1.1915   -1.9540 O.3        1 <1>        0.000
     17 O16         1.2117   -0.5842   -1.2647 O.2        1 <1>        0.000
     18 H           3.5530    3.9998   -6.9746 H.spc      1 <1>        0.000
     19 H           1.9167    2.2746   -6.1395 H.spc      1 <1>        0.000
     20 H           4.0562    0.3079    0.2243 H.spc      1 <1>        0.000
     21 H           5.1753   -0.6505   -5.9969 H.spc      1 <1>        0.000
     22 H           5.0904   -1.9229   -4.0235 H.spc      1 <1>        0.000
     23 H           3.6917    1.4683   -1.9047 H.spc      1 <1>        0.000
@<TRIPOS>BOND
     1    7   11 1  
     2   11   12 1  
     3    2    3 1  
     4   15   16 1  
     5    1    2 1  
     6   11   14 1  
     7    6    9 2  
     8   15   17 2  
     9    2    5 1  
    10   15    8 1  
    11    6   10 1  
    12   12   15 1  
    13    6    7 1  
    14    2    4 2  
    15    3    6 1  
    16   11   13 2  
    17    1   18 1  
    18    5   19 1  
    19    8   20 1  
    20   10   21 1  
    21   14   22 1  
    22   16   23 1  
# Name:          frag3-253-4/96164
# Creation time: Sat Jun  5 12:53:18 2010


@<TRIPOS>MOLECULE
frag3-253-4/96164
   23    22     1     1     1
SMALL
USER_CHARGES


@<TRIPOS>ATOM
      1 O4          2.6695   -1.5778    0.2362 O.3        1 <1>        0.000
      2 P1          3.5017   -1.7645   -1.0810 P.3        1 <1>        0.000
      3 O5          2.5870   -1.5575   -2.3299 O.3        1 <1>        0.000
      4 O6          4.5800   -0.7883   -1.1021 O.2        1 <1>        0.000
      5 O7          4.0600   -3.2274   -1.1235 O.3        1 <1>        0.000
      6 P2          2.3852   -0.2206   -3.0888 P.3        1 <1>        0.000
      7 O8          3.7581    0.3679   -3.6085 O.3        1 <1>        0.000
      8 O15         2.6560    3.3468   -6.1975 O.3        1 <1>        0.000
      9 O9          1.8332    0.7682   -2.1535 O.2        1 <1>        0.000
     10 O10         1.4862   -0.3949   -4.3492 O.3        1 <1>        0.000
     11 P3          4.0918    1.9040   -3.6574 P.3        1 <1>        0.000
     12 O11         4.6912    2.3478   -5.0193 O.3        1 <1>        0.000
     13 O12         2.7932    2.5901   -3.5753 O.2        1 <1>        0.000
     14 O13         5.0670    2.2686   -2.4997 O.3        1 <1>        0.000
     15 P4          3.8456    2.2962   -6.3269 P.3        1 <1>        0.000
     16 O14         4.6786    2.7384   -7.5599 O.3        1 <1>        0.000
     17 O16         3.3696    0.9319   -6.4789 O.2        1 <1>        0.000
     18 H           1.9558   -2.2196    0.2562 H.spc      1 <1>        0.000
     19 H           3.3282   -3.8486   -1.1085 H.spc      1 <1>        0.000
     20 H           3.0197    4.2298   -6.0996 H.spc      1 <1>        0.000
     21 H           1.8795   -1.0470   -4.9337 H.spc      1 <1>        0.000
     22 H           5.8907    1.7888   -2.6136 H.spc      1 <1>        0.000
     23 H           4.9801    3.6411   -7.4339 H.spc      1 <1>        0.000
@<TRIPOS>BOND
     1    7   11 1  
     2   11   12 1  
     3    2    3 1  
     4   15   16 1  
     5    1    2 1  
     6   11   14 1  
     7    6    9 2  
     8   15   17 2  
     9    2    5 1  
    10   15    8 1  
    11    6   10 1  
    12   12   15 1  
    13    6    7 1  
    14    2    4 2  
    15    3    6 1  
    16   11   13 2  
    17    1   18 1  
    18    5   19 1  
    19    8   20 1  
    20   10   21 1  
    21   14   22 1  
    22   16   23 1  
# Name:          frag3-253-4/96164
# Creation time: Sat Jun  5 12:53:18 2010


@<TRIPOS>MOLECULE
frag3-253-4/96164
   23    22     1     1     1
SMALL
USER_CHARGES


@<TRIPOS>ATOM
      1 O4          4.7777    4.0552   -4.3103 O.3        1 <1>        0.000
      2 P1          3.5961    3.2323   -4.9346 P.3        1 <1>        0.000
      3 O5          4.1574    1.9148   -5.5612 O.3        1 <1>        0.000
      4 O6          2.6495    2.8958   -3.8831 O.2        1 <1>        0.000
      5 O7          2.9310    4.0698   -6.0717 O.3        1 <1>        0.000
      6 P2          4.3977    0.5993   -4.7959 P.3        1 <1>        0.000
      7 O8          3.0700   -0.0043   -4.1749 O.3        1 <1>        0.000
      8 O15         3.1047    1.2081   -1.4406 O.3        1 <1>        0.000
      9 O9          5.3480    0.8190   -3.7080 O.2        1 <1>        0.000
     10 O10         4.9113   -0.5210   -5.7731 O.3        1 <1>        0.000
     11 P3          3.0339   -1.4292   -3.4804 P.3        1 <1>        0.000
     12 O11         3.4558   -1.2554   -1.9814 O.3        1 <1>        0.000
     13 O12         1.7065   -2.0066   -3.4970 O.2        1 <1>        0.000
     14 O13         4.1344   -2.2827   -4.2024 O.3        1 <1>        0.000
     15 P4          2.7075   -0.2714   -1.0342 P.3        1 <1>        0.000
     16 O14         1.1810   -0.4172   -1.4307 O.3        1 <1>        0.000
     17 O16         2.8914   -0.5779    0.3644 O.2        1 <1>        0.000
     18 H           5.4074    4.2814   -4.9987 H.spc      1 <1>        0.000
     19 H           3.5858    4.2711   -6.7442 H.spc      1 <1>        0.000
     20 H           2.9544    1.3318   -2.3807 H.spc      1 <1>        0.000
     21 H           4.2718   -0.6472   -6.4778 H.spc      1 <1>        0.000
     22 H           4.9786   -1.8294   -4.1443 H.spc      1 <1>        0.000
     23 H           1.0723   -0.2109   -2.3620 H.spc      1 <1>        0.000
@<TRIPOS>BOND
     1    7   11 1  
     2   11   12 1  
     3    2    3 1  
     4   15   16 1  
     5    1    2 1  
     6   11   14 1  
     7    6    9 2  
     8   15   17 2  
     9    2    5 1  
    10   15    8 1  
    11    6   10 1  
    12   12   15 1  
    13    6    7 1  
    14    2    4 2  
    15    3    6 1  
    16   11   13 2  
    17    1   18 1  
    18    5   19 1  
    19    8   20 1  
    20   10   21 1  
    21   14   22 1  
    22   16   23 1  
# Name:          frag3-253-4/96164
# Creation time: Sat Jun  5 12:53:18 2010


@<TRIPOS>MOLECULE
frag3-253-4/96164
   23    22     1     1     1
SMALL
USER_CHARGES


@<TRIPOS>ATOM
      1 O4          3.8680   -1.0429    0.2716 O.3        1 <1>        0.000
      2 P1          3.2858   -1.8222   -0.9720 P.3        1 <1>        0.000
      3 O5          2.0913   -1.0197   -1.5878 O.3        1 <1>        0.000
      4 O6          4.3510   -1.9688   -1.9581 O.2        1 <1>        0.000
      5 O7          2.7834   -3.2146   -0.4688 O.3        1 <1>        0.000
      6 P2          2.2244   -0.0125   -2.7442 P.3        1 <1>        0.000
      7 O8          3.5253    0.8742   -2.5895 O.3        1 <1>        0.000
      8 O15         2.8697    3.5511   -6.2573 O.3        1 <1>        0.000
      9 O9          1.0875    0.8510   -2.9878 O.2        1 <1>        0.000
     10 O10         2.5732   -0.8714   -4.0521 O.3        1 <1>        0.000
     11 P3          4.0418    1.8113   -3.7030 P.3        1 <1>        0.000
     12 O11         3.5584    1.3487   -5.1475 O.3        1 <1>        0.000
     13 O12         3.5112    3.1628   -3.5561 O.2        1 <1>        0.000
     14 O13         5.6171    1.7825   -3.8493 O.3        1 <1>        0.000
     15 P4          3.7766    2.2563   -6.3982 P.3        1 <1>        0.000
     16 O14         5.2699    2.7878   -6.2633 O.3        1 <1>        0.000
     17 O16         3.6193    1.5552   -7.6518 O.2        1 <1>        0.000
     18 H           3.1796   -0.9369    0.9323 H.spc      1 <1>        0.000
     19 H           2.0848   -3.0871    0.1771 H.spc      1 <1>        0.000
     20 H           3.0287    3.9604   -5.4036 H.spc      1 <1>        0.000
     21 H           3.3280   -1.4362   -3.8707 H.spc      1 <1>        0.000
     22 H           5.9121    0.8737   -3.9424 H.spc      1 <1>        0.000
     23 H           5.3688    3.2525   -5.4291 H.spc      1 <1>        0.000
@<TRIPOS>BOND
     1    7   11 1  
     2   11   12 1  
     3    2    3 1  
     4   15   16 1  
     5    1    2 1  
     6   11   14 1  
     7    6    9 2  
     8   15   17 2  
     9    2    5 1  
    10   15    8 1  
    11    6   10 1  
    12   12   15 1  
    13    6    7 1  
    14    2    4 2  
    15    3    6 1  
    16   11   13 2  
    17    1   18 1  
    18    5   19 1  
    19    8   20 1  
    20   10   21 1  
    21   14   22 1  
    22   16   23 1  
# Name:          frag3-253-4/96164
# Creation time: Sat Jun  5 12:53:18 2010


@<TRIPOS>MOLECULE
frag3-253-4/96164
   23    22     1     1     1
SMALL
USER_CHARGES


@<TRIPOS>ATOM
      1 O4          3.3864   -0.0752   -0.1211 O.3        1 <1>        0.000
      2 P1          2.9055   -1.5122   -0.5873 P.3        1 <1>        0.000
      3 O5          2.0182   -1.3291   -1.8730 O.3        1 <1>        0.000
      4 O6          4.0821   -2.3153   -0.8735 O.2        1 <1>        0.000
      5 O7          2.0198   -2.1452    0.5294 O.3        1 <1>        0.000
      6 P2          2.5308   -0.7603   -3.2117 P.3        1 <1>        0.000
      7 O8          3.5032    0.4757   -2.9841 O.3        1 <1>        0.000
      8 O15         4.4777    4.5582   -5.2673 O.3        1 <1>        0.000
      9 O9          1.5199   -0.3758   -4.1807 O.2        1 <1>        0.000
     10 O10         3.5089   -1.8586   -3.8317 O.3        1 <1>        0.000
     11 P3          4.1136    1.2867   -4.1453 P.3        1 <1>        0.000
     12 O11         3.1840    2.3957   -4.7529 O.3        1 <1>        0.000
     13 O12         5.3858    1.9271   -3.8578 O.2        1 <1>        0.000
     14 O13         4.2494    0.2472   -5.3790 O.3        1 <1>        0.000
     15 P4          3.6974    3.3286   -5.8968 P.3        1 <1>        0.000
     16 O14         4.8143    2.4825   -6.6550 O.3        1 <1>        0.000
     17 O16         2.6570    3.6988   -6.8276 O.2        1 <1>        0.000
     18 H           2.6204    0.4701    0.0726 H.spc      1 <1>        0.000
     19 H           1.2562   -1.5850    0.6867 H.spc      1 <1>        0.000
     20 H           5.1492    4.2340   -4.6627 H.spc      1 <1>        0.000
     21 H           4.1701   -2.1014   -3.1794 H.spc      1 <1>        0.000
     22 H           3.3969   -0.1608   -5.5475 H.spc      1 <1>        0.000
     23 H           5.5047    2.2375   -6.0346 H.spc      1 <1>        0.000
@<TRIPOS>BOND
     1    7   11 1  
     2   11   12 1  
     3    2    3 1  
     4   15   16 1  
     5    1    2 1  
     6   11   14 1  
     7    6    9 2  
     8   15   17 2  
     9    2    5 1  
    10   15    8 1  
    11    6   10 1  
    12   12   15 1  
    13    6    7 1  
    14    2    4 2  
    15    3    6 1  
    16   11   13 2  
    17    1   18 1  
    18    5   19 1  
    19    8   20 1  
    20   10   21 1  
    21   14   22 1  
    22   16   23 1  
# Name:          frag3-253-4/96164
# Creation time: Sat Jun  5 12:53:18 2010


@<TRIPOS>MOLECULE
frag3-253-4/96164
   23    22     1     1     1
SMALL
USER_CHARGES


@<TRIPOS>ATOM
      1 O4          3.5767    0.7389   -0.6882 O.3        1 <1>        0.000
      2 P1          3.1274   -0.7748   -0.6338 P.3        1 <1>        0.000
      3 O5          3.6340   -1.5007   -1.9313 O.3        1 <1>        0.000
      4 O6          3.5118   -1.3611    0.6258 O.2        1 <1>        0.000
      5 O7          1.5386   -0.8136   -0.8096 O.3        1 <1>        0.000
      6 P2          3.0975   -1.2187   -3.3828 P.3        1 <1>        0.000
      7 O8          4.1703   -0.7397   -4.4014 O.3        1 <1>        0.000
      8 O15         5.2403    3.7057   -5.1982 O.3        1 <1>        0.000
      9 O9          2.0763   -0.1258   -3.2589 O.2        1 <1>        0.000
     10 O10         2.4077   -2.5166   -3.9226 O.3        1 <1>        0.000
     11 P3          4.0758    0.5941   -5.1615 P.3        1 <1>        0.000
     12 O11         3.7860    1.8371   -4.2117 O.3        1 <1>        0.000
     13 O12         5.2510    0.9533   -5.9348 O.2        1 <1>        0.000
     14 O13         2.7482    0.5571   -6.0728 O.3        1 <1>        0.000
     15 P4          3.7548    3.2935   -4.8075 P.3        1 <1>        0.000
     16 O14         2.9676    3.1680   -6.1839 O.3        1 <1>        0.000
     17 O16         3.0901    4.2322   -3.9421 O.2        1 <1>        0.000
     18 H           3.3159    1.1189   -1.5304 H.spc      1 <1>        0.000
     19 H           1.3013   -0.4198   -1.6523 H.spc      1 <1>        0.000
     20 H           5.6164    3.0354   -5.7734 H.spc      1 <1>        0.000
     21 H           3.0610   -3.2156   -4.0018 H.spc      1 <1>        0.000
     22 H           1.9946    0.3168   -5.5288 H.spc      1 <1>        0.000
     23 H           3.4187    2.5403   -6.7531 H.spc      1 <1>        0.000
@<TRIPOS>BOND
     1    7   11 1  
     2   11   12 1  
     3    2    3 1  
     4   15   16 1  
     5    1    2 1  
     6   11   14 1  
     7    6    9 2  
     8   15   17 2  
     9    2    5 1  
    10   15    8 1  
    11    6   10 1  
    12   12   15 1  
    13    6    7 1  
    14    2    4 2  
    15    3    6 1  
    16   11   13 2  
    17    1   18 1  
    18    5   19 1  
    19    8   20 1  
    20   10   21 1  
    21   14   22 1  
    22   16   23 1  
# Name:          frag3-253-4/96164
# Creation time: Sat Jun  5 12:53:18 2010


@<TRIPOS>MOLECULE
frag3-253-4/96164
   23    22     1     1     1
SMALL
USER_CHARGES


@<TRIPOS>ATOM
      1 O4          2.1471    0.2036   -0.6009 O.3        1 <1>        0.000
      2 P1          3.2146   -0.9302   -0.8473 P.3        1 <1>        0.000
      3 O5          2.7585   -1.7698   -2.0954 O.3        1 <1>        0.000
      4 O6          4.5074   -0.3134   -1.0913 O.2        1 <1>        0.000
      5 O7          3.2519   -1.8802    0.3935 O.3        1 <1>        0.000
      6 P2          2.6262   -1.2341   -3.5568 P.3        1 <1>        0.000
      7 O8          3.9942   -0.6180   -4.0217 O.3        1 <1>        0.000
      8 O15         2.6009    3.7340   -4.6865 O.3        1 <1>        0.000
      9 O9          1.6407   -0.1410   -3.5680 O.2        1 <1>        0.000
     10 O10         2.2402   -2.3708   -4.5434 O.3        1 <1>        0.000
     11 P3          4.2319    0.8992   -4.2035 P.3        1 <1>        0.000
     12 O11         3.5937    1.5120   -5.5059 O.3        1 <1>        0.000
     13 O12         3.5737    1.6092   -3.0965 O.2        1 <1>        0.000
     14 O13         5.7589    1.2777   -4.3276 O.3        1 <1>        0.000
     15 P4          3.5798    3.0486   -5.7360 P.3        1 <1>        0.000
     16 O14         5.0212    3.5738   -5.3163 O.3        1 <1>        0.000
     17 O16         3.3131    3.4281   -7.1118 O.2        1 <1>        0.000
     18 H           1.2893   -0.1958   -0.4387 H.spc      1 <1>        0.000
     19 H           2.3837   -2.2685    0.5240 H.spc      1 <1>        0.000
     20 H           2.8290    3.4431   -3.8005 H.spc      1 <1>        0.000
     21 H           2.9044   -3.0630   -4.5079 H.spc      1 <1>        0.000
     22 H           6.1488    0.7941   -5.0595 H.spc      1 <1>        0.000
     23 H           5.1993    3.3237   -4.4067 H.spc      1 <1>        0.000
@<TRIPOS>BOND
     1    7   11 1  
     2   11   12 1  
     3    2    3 1  
     4   15   16 1  
     5    1    2 1  
     6   11   14 1  
     7    6    9 2  
     8   15   17 2  
     9    2    5 1  
    10   15    8 1  
    11    6   10 1  
    12   12   15 1  
    13    6    7 1  
    14    2    4 2  
    15    3    6 1  
    16   11   13 2  
    17    1   18 1  
    18    5   19 1  
    19    8   20 1  
    20   10   21 1  
    21   14   22 1  
    22   16   23 1  
# Name:          frag3-253-4/96164
# Creation time: Sat Jun  5 12:53:18 2010


@<TRIPOS>MOLECULE
frag3-253-4/96164
   23    22     1     1     1
SMALL
USER_CHARGES


@<TRIPOS>ATOM
      1 O4          2.4372    0.1377   -0.5950 O.3        1 <1>        0.000
      2 P1          3.8317   -0.2525   -1.2218 P.3        1 <1>        0.000
      3 O5          3.5861   -1.4699   -2.1909 O.3        1 <1>        0.000
      4 O6          4.3354    0.8878   -1.9658 O.2        1 <1>        0.000
      5 O7          4.8113   -0.7058   -0.1006 O.3        1 <1>        0.000
      6 P2          2.7470   -1.4507   -3.5117 P.3        1 <1>        0.000
      7 O8          3.2841   -0.3322   -4.4774 O.3        1 <1>        0.000
      8 O15         5.3463    3.6526   -5.9975 O.3        1 <1>        0.000
      9 O9          1.3661   -1.0763   -3.1620 O.2        1 <1>        0.000
     10 O10         2.8130   -2.8271   -4.2244 O.3        1 <1>        0.000
     11 P3          2.5180    0.9970   -4.7996 P.3        1 <1>        0.000
     12 O11         3.3271    2.0266   -5.6160 O.3        1 <1>        0.000
     13 O12         1.2408    0.6757   -5.4016 O.2        1 <1>        0.000
     14 O13         2.3456    1.7463   -3.3814 O.3        1 <1>        0.000
     15 P4          4.5940    2.7135   -5.0079 P.3        1 <1>        0.000
     16 O14         4.0587    3.6418   -3.8321 O.3        1 <1>        0.000
     17 O16         5.4115    1.6643   -4.4294 O.2        1 <1>        0.000
     18 H           2.0908   -0.6077   -0.0990 H.spc      1 <1>        0.000
     19 H           4.4386   -1.4592    0.3631 H.spc      1 <1>        0.000
     20 H           4.7380    4.3150   -6.3334 H.spc      1 <1>        0.000
     21 H           3.7266   -3.0338   -4.4347 H.spc      1 <1>        0.000
     22 H           3.2118    1.9413   -3.0164 H.spc      1 <1>        0.000
     23 H           3.5151    4.3419   -4.2009 H.spc      1 <1>        0.000
@<TRIPOS>BOND
     1    7   11 1  
     2   11   12 1  
     3    2    3 1  
     4   15   16 1  
     5    1    2 1  
     6   11   14 1  
     7    6    9 2  
     8   15   17 2  
     9    2    5 1  
    10   15    8 1  
    11    6   10 1  
    12   12   15 1  
    13    6    7 1  
    14    2    4 2  
    15    3    6 1  
    16   11   13 2  
    17    1   18 1  
    18    5   19 1  
    19    8   20 1  
    20   10   21 1  
    21   14   22 1  
    22   16   23 1  
# Name:          frag3-253-4/96164
# Creation time: Sat Jun  5 12:53:18 2010


@<TRIPOS>MOLECULE
frag3-253-4/96164
   23    22     1     1     1
SMALL
USER_CHARGES


@<TRIPOS>ATOM
      1 O4          3.9676    3.0151   -3.4477 O.3        1 <1>        0.000
      2 P1          3.1596    2.6818   -4.7820 P.3        1 <1>        0.000
      3 O5          3.9065    1.4662   -5.4374 O.3        1 <1>        0.000
      4 O6          1.7794    2.4418   -4.4304 O.2        1 <1>        0.000
      5 O7          3.3238    3.8992   -5.7566 O.3        1 <1>        0.000
      6 P2          5.0805    0.6415   -4.7637 P.3        1 <1>        0.000
      7 O8          4.4501   -0.0706   -3.5031 O.3        1 <1>        0.000
      8 O15         2.2893    1.0487   -1.7196 O.3        1 <1>        0.000
      9 O9          6.1782    1.5378   -4.4496 O.2        1 <1>        0.000
     10 O10         5.5027   -0.5394   -5.7050 O.3        1 <1>        0.000
     11 P3          3.1164   -0.9373   -3.5843 P.3        1 <1>        0.000
     12 O11         2.6132   -1.4054   -2.2054 O.3        1 <1>        0.000
     13 O12         2.0886   -0.0705   -4.1611 O.2        1 <1>        0.000
     14 O13         3.4710   -2.1630   -4.5095 O.3        1 <1>        0.000
     15 P4          2.4375   -0.3939   -1.0310 P.3        1 <1>        0.000
     16 O14         1.1074   -0.6605   -0.2766 O.3        1 <1>        0.000
     17 O16         3.5823   -0.4628   -0.1524 O.2        1 <1>        0.000
     18 H           4.8885    3.1774   -3.6647 H.spc      1 <1>        0.000
     19 H           4.2538    4.0203   -5.9617 H.spc      1 <1>        0.000
     20 H           1.5193    1.0508   -2.2929 H.spc      1 <1>        0.000
     21 H           4.7408   -1.0972   -5.8782 H.spc      1 <1>        0.000
     22 H           4.1471   -2.6970   -4.0861 H.spc      1 <1>        0.000
     23 H           0.3742   -0.6057   -0.8939 H.spc      1 <1>        0.000
@<TRIPOS>BOND
     1    7   11 1  
     2   11   12 1  
     3    2    3 1  
     4   15   16 1  
     5    1    2 1  
     6   11   14 1  
     7    6    9 2  
     8   15   17 2  
     9    2    5 1  
    10   15    8 1  
    11    6   10 1  
    12   12   15 1  
    13    6    7 1  
    14    2    4 2  
    15    3    6 1  
    16   11   13 2  
    17    1   18 1  
    18    5   19 1  
    19    8   20 1  
    20   10   21 1  
    21   14   22 1  
    22   16   23 1  
# Name:          frag3-253-4/96164
# Creation time: Sat Jun  5 12:53:18 2010


@<TRIPOS>MOLECULE
frag3-253-4/96164
   23    22     1     1     1
SMALL
USER_CHARGES


@<TRIPOS>ATOM
      1 O4          4.2352   -0.1104   -0.5050 O.3        1 <1>        0.000
      2 P1          3.6435   -1.5421   -0.8814 P.3        1 <1>        0.000
      3 O5          2.2295   -1.3139   -1.5265 O.3        1 <1>        0.000
      4 O6          4.5607   -2.1667   -1.8203 O.2        1 <1>        0.000
      5 O7          3.5162   -2.3551    0.4408 O.3        1 <1>        0.000
      6 P2          1.9778   -0.5356   -2.8412 P.3        1 <1>        0.000
      7 O8          2.8884    0.7576   -2.9277 O.3        1 <1>        0.000
      8 O15         5.7244    1.6282   -6.1399 O.3        1 <1>        0.000
      9 O9          0.5997   -0.1779   -3.1105 O.2        1 <1>        0.000
     10 O10         2.5627   -1.4787   -3.9899 O.3        1 <1>        0.000
     11 P3          3.0124    1.6106   -4.2197 P.3        1 <1>        0.000
     12 O11         4.1803    2.6205   -4.3516 O.3        1 <1>        0.000
     13 O12         3.1863    0.6801   -5.3636 O.2        1 <1>        0.000
     14 O13         1.6731    2.4574   -4.3634 O.3        1 <1>        0.000
     15 P4          4.8393    2.8950   -5.7345 P.3        1 <1>        0.000
     16 O14         3.6606    2.9156   -6.7995 O.3        1 <1>        0.000
     17 O16         5.5637    4.1441   -5.7813 O.2        1 <1>        0.000
     18 H           3.6464    0.3247    0.1160 H.spc      1 <1>        0.000
     19 H           2.9036   -1.9101    1.0310 H.spc      1 <1>        0.000
     20 H           5.1871    0.8343   -6.0887 H.spc      1 <1>        0.000
     21 H           3.4746   -1.7001   -3.7872 H.spc      1 <1>        0.000
     22 H           1.5874    3.0485   -3.6119 H.spc      1 <1>        0.000
     23 H           3.1835    2.0833   -6.7633 H.spc      1 <1>        0.000
@<TRIPOS>BOND
     1    7   11 1  
     2   11   12 1  
     3    2    3 1  
     4   15   16 1  
     5    1    2 1  
     6   11   14 1  
     7    6    9 2  
     8   15   17 2  
     9    2    5 1  
    10   15    8 1  
    11    6   10 1  
    12   12   15 1  
    13    6    7 1  
    14    2    4 2  
    15    3    6 1  
    16   11   13 2  
    17    1   18 1  
    18    5   19 1  
    19    8   20 1  
    20   10   21 1  
    21   14   22 1  
    22   16   23 1  
# Name:          frag3-253-4/96164
# Creation time: Sat Jun  5 12:53:18 2010


@<TRIPOS>MOLECULE
frag3-253-4/96164
   23    22     1     1     1
SMALL
USER_CHARGES


@<TRIPOS>ATOM
      1 O4          2.7295    3.9415   -5.8592 O.3        1 <1>        0.000
      2 P1          3.4470    2.7034   -6.5378 P.3        1 <1>        0.000
      3 O5          4.6222    2.2536   -5.6118 O.3        1 <1>        0.000
      4 O6          2.4693    1.6402   -6.6954 O.2        1 <1>        0.000
      5 O7          4.0248    3.1734   -7.9115 O.3        1 <1>        0.000
      6 P2          4.4633    1.7187   -4.1649 P.3        1 <1>        0.000
      7 O8          3.6100    0.3964   -4.1084 O.3        1 <1>        0.000
      8 O15         3.8469   -1.1174   -0.0470 O.3        1 <1>        0.000
      9 O9          3.7749    2.7276   -3.3474 O.2        1 <1>        0.000
     10 O10         5.8510    1.3305   -3.5454 O.3        1 <1>        0.000
     11 P3          2.9759   -0.1446   -2.8061 P.3        1 <1>        0.000
     12 O11         3.1650   -1.6457   -2.4499 O.3        1 <1>        0.000
     13 O12         3.6077    0.5890   -1.6836 O.2        1 <1>        0.000
     14 O13         1.4075    0.0913   -2.8259 O.3        1 <1>        0.000
     15 P4          3.0435   -2.1421   -0.9824 P.3        1 <1>        0.000
     16 O14         1.5395   -1.9736   -0.5362 O.3        1 <1>        0.000
     17 O16         3.4759   -3.5131   -0.8025 O.2        1 <1>        0.000
     18 H           3.3622    4.6547   -5.7473 H.spc      1 <1>        0.000
     19 H           4.6647    3.8739   -7.7654 H.spc      1 <1>        0.000
     20 H           3.5261   -0.2259   -0.2016 H.spc      1 <1>        0.000
     21 H           6.2749    0.6718   -4.1004 H.spc      1 <1>        0.000
     22 H           1.0215   -0.3926   -3.5597 H.spc      1 <1>        0.000
     23 H           1.2699   -1.0608   -0.6619 H.spc      1 <1>        0.000
@<TRIPOS>BOND
     1    7   11 1  
     2   11   12 1  
     3    2    3 1  
     4   15   16 1  
     5    1    2 1  
     6   11   14 1  
     7    6    9 2  
     8   15   17 2  
     9    2    5 1  
    10   15    8 1  
    11    6   10 1  
    12   12   15 1  
    13    6    7 1  
    14    2    4 2  
    15    3    6 1  
    16   11   13 2  
    17    1   18 1  
    18    5   19 1  
    19    8   20 1  
    20   10   21 1  
    21   14   22 1  
    22   16   23 1  
# Name:          frag3-253-4/96164
# Creation time: Sat Jun  5 12:53:18 2010


@<TRIPOS>MOLECULE
frag3-253-4/96164
   23    22     1     1     1
SMALL
USER_CHARGES


@<TRIPOS>ATOM
      1 O4          2.4854   -1.2570    0.6530 O.3        1 <1>        0.000
      2 P1          3.1336   -1.1618   -0.7563 P.3        1 <1>        0.000
      3 O5          2.1277   -0.8122   -1.9064 O.3        1 <1>        0.000
      4 O6          4.2664   -0.2589   -0.7356 O.2        1 <1>        0.000
      5 O7          3.6475   -2.6381   -1.1368 O.3        1 <1>        0.000
      6 P2          2.4857   -0.9101   -3.4300 P.3        1 <1>        0.000
      7 O8          3.9241   -0.2828   -3.6366 O.3        1 <1>        0.000
      8 O15         2.4055    3.6570   -5.5089 O.3        1 <1>        0.000
      9 O9          1.5627   -0.2165   -4.3108 O.2        1 <1>        0.000
     10 O10         2.6095   -2.4384   -3.7873 O.3        1 <1>        0.000
     11 P3          4.1374    1.1925   -4.0225 P.3        1 <1>        0.000
     12 O11         3.8526    1.5244   -5.5362 O.3        1 <1>        0.000
     13 O12         3.1676    2.0137   -3.2727 O.2        1 <1>        0.000
     14 O13         5.6200    1.6931   -3.8083 O.3        1 <1>        0.000
     15 P4          3.7531    3.0049   -6.0295 P.3        1 <1>        0.000
     16 O14         4.9061    3.7750   -5.2398 O.3        1 <1>        0.000
     17 O16         3.9691    3.1442   -7.4504 O.2        1 <1>        0.000
     18 H           1.7379   -1.8585    0.6202 H.spc      1 <1>        0.000
     19 H           2.9010   -3.2415   -1.1522 H.spc      1 <1>        0.000
     20 H           2.3326    3.5246   -4.5609 H.spc      1 <1>        0.000
     21 H           3.2268   -2.8580   -3.1836 H.spc      1 <1>        0.000
     22 H           6.2201    1.1364   -4.3099 H.spc      1 <1>        0.000
     23 H           4.7623    3.6823   -4.2952 H.spc      1 <1>        0.000
@<TRIPOS>BOND
     1    7   11 1  
     2   11   12 1  
     3    2    3 1  
     4   15   16 1  
     5    1    2 1  
     6   11   14 1  
     7    6    9 2  
     8   15   17 2  
     9    2    5 1  
    10   15    8 1  
    11    6   10 1  
    12   12   15 1  
    13    6    7 1  
    14    2    4 2  
    15    3    6 1  
    16   11   13 2  
    17    1   18 1  
    18    5   19 1  
    19    8   20 1  
    20   10   21 1  
    21   14   22 1  
    22   16   23 1  
# Name:          frag3-253-4/96164
# Creation time: Sat Jun  5 12:53:18 2010


@<TRIPOS>MOLECULE
frag3-253-4/96164
   23    22     1     1     1
SMALL
USER_CHARGES


@<TRIPOS>ATOM
      1 O4          2.9380    4.0334   -5.3084 O.3        1 <1>        0.000
      2 P1          3.4500    2.8536   -6.2353 P.3        1 <1>        0.000
      3 O5          4.6983    2.2021   -5.5640 O.3        1 <1>        0.000
      4 O6          2.3715    1.8900   -6.3778 O.2        1 <1>        0.000
      5 O7          3.8371    3.4862   -7.6115 O.3        1 <1>        0.000
      6 P2          4.6785    1.3663   -4.2588 P.3        1 <1>        0.000
      7 O8          3.7090    0.1324   -4.3751 O.3        1 <1>        0.000
      8 O15         2.9771   -0.2879    0.1443 O.3        1 <1>        0.000
      9 O9          4.1851    2.2043   -3.1571 O.2        1 <1>        0.000
     10 O10         6.0861    0.7712   -3.9290 O.3        1 <1>        0.000
     11 P3          2.8851   -0.4064   -3.1866 P.3        1 <1>        0.000
     12 O11         3.7123   -1.2262   -2.1208 O.3        1 <1>        0.000
     13 O12         2.3486    0.7370   -2.4301 O.2        1 <1>        0.000
     14 O13         1.7441   -1.4081   -3.6167 O.3        1 <1>        0.000
     15 P4          3.0810   -1.5991   -0.7363 P.3        1 <1>        0.000
     16 O14         1.5855   -2.0192   -1.0644 O.3        1 <1>        0.000
     17 O16         3.7666   -2.7007   -0.0879 O.2        1 <1>        0.000
     18 H           3.6378    4.6819   -5.2018 H.spc      1 <1>        0.000
     19 H           4.5500    4.1163   -7.4836 H.spc      1 <1>        0.000
     20 H           2.5134    0.3921   -0.3498 H.spc      1 <1>        0.000
     21 H           6.3834    0.2296   -4.6637 H.spc      1 <1>        0.000
     22 H           2.1290   -2.1387   -4.1062 H.spc      1 <1>        0.000
     23 H           1.1356   -1.2876   -1.4933 H.spc      1 <1>        0.000
@<TRIPOS>BOND
     1    7   11 1  
     2   11   12 1  
     3    2    3 1  
     4   15   16 1  
     5    1    2 1  
     6   11   14 1  
     7    6    9 2  
     8   15   17 2  
     9    2    5 1  
    10   15    8 1  
    11    6   10 1  
    12   12   15 1  
    13    6    7 1  
    14    2    4 2  
    15    3    6 1  
    16   11   13 2  
    17    1   18 1  
    18    5   19 1  
    19    8   20 1  
    20   10   21 1  
    21   14   22 1  
    22   16   23 1  
# Name:          frag3-253-4/96164
# Creation time: Sat Jun  5 12:53:18 2010


@<TRIPOS>MOLECULE
frag3-253-4/96164
   23    22     1     1     1
SMALL
USER_CHARGES


@<TRIPOS>ATOM
      1 O4          4.1887    3.8159   -4.6874 O.3        1 <1>        0.000
      2 P1          3.1158    2.6804   -4.9786 P.3        1 <1>        0.000
      3 O5          3.8954    1.4325   -5.5121 O.3        1 <1>        0.000
      4 O6          2.4291    2.3953   -3.7374 O.2        1 <1>        0.000
      5 O7          2.1512    3.2315   -6.0739 O.3        1 <1>        0.000
      6 P2          4.9867    0.6241   -4.7096 P.3        1 <1>        0.000
      7 O8          4.2412    0.0195   -3.4615 O.3        1 <1>        0.000
      8 O15         2.7019    1.0836   -1.2531 O.3        1 <1>        0.000
      9 O9          6.0884    1.4997   -4.3876 O.2        1 <1>        0.000
     10 O10         5.4223   -0.6366   -5.5381 O.3        1 <1>        0.000
     11 P3          2.8775   -0.7970   -3.5712 P.3        1 <1>        0.000
     12 O11         2.3571   -1.2502   -2.1964 O.3        1 <1>        0.000
     13 O12         1.9006    0.0686   -4.2049 O.2        1 <1>        0.000
     14 O13         3.2213   -2.0785   -4.4375 O.3        1 <1>        0.000
     15 P4          2.7436   -0.4768   -0.9017 P.3        1 <1>        0.000
     16 O14         1.6799   -0.6797    0.2082 O.3        1 <1>        0.000
     17 O16         4.0532   -0.9034   -0.4726 O.2        1 <1>        0.000
     18 H           4.6600    4.0245   -5.4973 H.spc      1 <1>        0.000
     19 H           2.6472    3.4061   -6.8771 H.spc      1 <1>        0.000
     20 H           1.8156    1.3239   -1.5329 H.spc      1 <1>        0.000
     21 H           4.6520   -1.1792   -5.7218 H.spc      1 <1>        0.000
     22 H           3.8694   -2.6130   -3.9729 H.spc      1 <1>        0.000
     23 H           0.8242   -0.3857   -0.1126 H.spc      1 <1>        0.000
@<TRIPOS>BOND
     1    7   11 1  
     2   11   12 1  
     3    2    3 1  
     4   15   16 1  
     5    1    2 1  
     6   11   14 1  
     7    6    9 2  
     8   15   17 2  
     9    2    5 1  
    10   15    8 1  
    11    6   10 1  
    12   12   15 1  
    13    6    7 1  
    14    2    4 2  
    15    3    6 1  
    16   11   13 2  
    17    1   18 1  
    18    5   19 1  
    19    8   20 1  
    20   10   21 1  
    21   14   22 1  
    22   16   23 1  
# Name:          frag3-253-4/96164
# Creation time: Sat Jun  5 12:53:18 2010


@<TRIPOS>MOLECULE
frag3-253-4/96164
   23    22     1     1     1
SMALL
USER_CHARGES


@<TRIPOS>ATOM
      1 O4          3.2743    3.2509   -7.5003 O.3        1 <1>        0.000
      2 P1          3.0571    2.3126   -6.2846 P.3        1 <1>        0.000
      3 O5          4.3537    1.5422   -5.8626 O.3        1 <1>        0.000
      4 O6          2.5600    3.0655   -5.1501 O.2        1 <1>        0.000
      5 O7          2.0235    1.1762   -6.6746 O.3        1 <1>        0.000
      6 P2          4.7829    1.2350   -4.4002 P.3        1 <1>        0.000
      7 O8          3.6755    0.4303   -3.6184 O.3        1 <1>        0.000
      8 O15         3.4835   -2.1090   -0.2319 O.3        1 <1>        0.000
      9 O9          4.9493    2.5118   -3.6931 O.2        1 <1>        0.000
     10 O10         6.0855    0.3864   -4.3730 O.3        1 <1>        0.000
     11 P3          3.3716    0.6443   -2.0870 P.3        1 <1>        0.000
     12 O11         2.2608   -0.2701   -1.5315 O.3        1 <1>        0.000
     13 O12         4.5909    0.3088   -1.3505 O.2        1 <1>        0.000
     14 O13         2.9382    2.1457   -1.9297 O.3        1 <1>        0.000
     15 P4          2.4782   -1.8030   -1.4366 P.3        1 <1>        0.000
     16 O14         1.1689   -2.5535   -1.0794 O.3        1 <1>        0.000
     17 O16         3.0002   -2.2452   -2.7118 O.2        1 <1>        0.000
     18 H           3.6031    2.7394   -8.2432 H.spc      1 <1>        0.000
     19 H           2.3604    0.6830   -7.4262 H.spc      1 <1>        0.000
     20 H           3.0981   -1.8001    0.5913 H.spc      1 <1>        0.000
     21 H           5.9391   -0.4377   -4.8431 H.spc      1 <1>        0.000
     22 H           2.1362    2.3006   -2.4341 H.spc      1 <1>        0.000
     23 H           0.8443   -2.2424   -0.2312 H.spc      1 <1>        0.000
@<TRIPOS>BOND
     1    7   11 1  
     2   11   12 1  
     3    2    3 1  
     4   15   16 1  
     5    1    2 1  
     6   11   14 1  
     7    6    9 2  
     8   15   17 2  
     9    2    5 1  
    10   15    8 1  
    11    6   10 1  
    12   12   15 1  
    13    6    7 1  
    14    2    4 2  
    15    3    6 1  
    16   11   13 2  
    17    1   18 1  
    18    5   19 1  
    19    8   20 1  
    20   10   21 1  
    21   14   22 1  
    22   16   23 1  
# Name:          frag3-253-4/96164
# Creation time: Sat Jun  5 12:53:18 2010


@<TRIPOS>MOLECULE
frag3-253-4/96164
   23    22     1     1     1
SMALL
USER_CHARGES


@<TRIPOS>ATOM
      1 O4          4.4209    1.1580   -7.0115 O.3        1 <1>        0.000
      2 P1          4.5699    2.2875   -5.9278 P.3        1 <1>        0.000
      3 O5          3.1808    2.5623   -5.2578 O.3        1 <1>        0.000
      4 O6          5.5146    1.8420   -4.9167 O.2        1 <1>        0.000
      5 O7          5.0491    3.5989   -6.6257 O.3        1 <1>        0.000
      6 P2          2.6874    1.9027   -3.9511 P.3        1 <1>        0.000
      7 O8          3.0115    0.3505   -3.9466 O.3        1 <1>        0.000
      8 O15         3.1946   -0.3477   -0.2202 O.3        1 <1>        0.000
      9 O9          1.2710    2.0501   -3.6790 O.2        1 <1>        0.000
     10 O10         3.5774    2.4989   -2.7876 O.3        1 <1>        0.000
     11 P3          2.1569   -0.7130   -3.1760 P.3        1 <1>        0.000
     12 O11         3.0273   -1.7012   -2.3552 O.3        1 <1>        0.000
     13 O12         1.3911    0.0445   -2.1777 O.2        1 <1>        0.000
     14 O13         1.2613   -1.5133   -4.1684 O.3        1 <1>        0.000
     15 P4          4.0356   -1.2016   -1.2738 P.3        1 <1>        0.000
     16 O14         4.6625   -2.3796   -0.4914 O.3        1 <1>        0.000
     17 O16         5.0421   -0.4103   -1.9487 O.2        1 <1>        0.000
     18 H           3.7985    1.4422   -7.6848 H.spc      1 <1>        0.000
     19 H           4.4035    3.8634   -7.2852 H.spc      1 <1>        0.000
     20 H           2.5424   -0.9129    0.2002 H.spc      1 <1>        0.000
     21 H           4.5053    2.3825   -3.0043 H.spc      1 <1>        0.000
     22 H           1.8187   -1.9843   -4.7922 H.spc      1 <1>        0.000
     23 H           3.9675   -2.8805   -0.0582 H.spc      1 <1>        0.000
@<TRIPOS>BOND
     1    7   11 1  
     2   11   12 1  
     3    2    3 1  
     4   15   16 1  
     5    1    2 1  
     6   11   14 1  
     7    6    9 2  
     8   15   17 2  
     9    2    5 1  
    10   15    8 1  
    11    6   10 1  
    12   12   15 1  
    13    6    7 1  
    14    2    4 2  
    15    3    6 1  
    16   11   13 2  
    17    1   18 1  
    18    5   19 1  
    19    8   20 1  
    20   10   21 1  
    21   14   22 1  
    22   16   23 1  
# Name:          frag3-253-4/96164
# Creation time: Sat Jun  5 12:53:18 2010


@<TRIPOS>MOLECULE
frag3-253-4/96164
   23    22     1     1     1
SMALL
USER_CHARGES


@<TRIPOS>ATOM
      1 O4          5.3732    1.7874   -5.9875 O.3        1 <1>        0.000
      2 P1          4.6947    3.1285   -5.4584 P.3        1 <1>        0.000
      3 O5          3.5621    2.6910   -4.4764 O.3        1 <1>        0.000
      4 O6          5.7154    3.9865   -4.9130 O.2        1 <1>        0.000
      5 O7          3.9377    3.8068   -6.6669 O.3        1 <1>        0.000
      6 P2          2.8393    1.3119   -4.4952 P.3        1 <1>        0.000
      7 O8          3.3929    0.2482   -3.4879 O.3        1 <1>        0.000
      8 O15         3.2777   -1.8379    0.6418 O.3        1 <1>        0.000
      9 O9          2.9588    0.7572   -5.8657 O.2        1 <1>        0.000
     10 O10         1.3264    1.4875   -4.1083 O.3        1 <1>        0.000
     11 P3          2.7011   -1.1685   -3.2785 P.3        1 <1>        0.000
     12 O11         3.1627   -1.8491   -1.9687 O.3        1 <1>        0.000
     13 O12         1.2654   -0.9244   -3.1788 O.2        1 <1>        0.000
     14 O13         3.1170   -2.0543   -4.5044 O.3        1 <1>        0.000
     15 P4          3.3879   -1.0040   -0.6763 P.3        1 <1>        0.000
     16 O14         4.8711   -0.4581   -0.7403 O.3        1 <1>        0.000
     17 O16         2.4704    0.1202   -0.7508 O.2        1 <1>        0.000
     18 H           4.6979    1.2109   -6.3525 H.spc      1 <1>        0.000
     19 H           3.2680    3.2058   -7.0014 H.spc      1 <1>        0.000
     20 H           3.9113   -2.5587    0.6171 H.spc      1 <1>        0.000
     21 H           1.2640    1.8467   -3.2202 H.spc      1 <1>        0.000
     22 H           4.0698   -2.1714   -4.5046 H.spc      1 <1>        0.000
     23 H           5.4845   -1.1950   -0.6916 H.spc      1 <1>        0.000
@<TRIPOS>BOND
     1    7   11 1  
     2   11   12 1  
     3    2    3 1  
     4   15   16 1  
     5    1    2 1  
     6   11   14 1  
     7    6    9 2  
     8   15   17 2  
     9    2    5 1  
    10   15    8 1  
    11    6   10 1  
    12   12   15 1  
    13    6    7 1  
    14    2    4 2  
    15    3    6 1  
    16   11   13 2  
    17    1   18 1  
    18    5   19 1  
    19    8   20 1  
    20   10   21 1  
    21   14   22 1  
    22   16   23 1  
# Name:          frag3-253-4/96164
# Creation time: Sat Jun  5 12:53:18 2010


@<TRIPOS>MOLECULE
frag3-253-4/96164
   23    22     1     1     1
SMALL
USER_CHARGES


@<TRIPOS>ATOM
      1 O4          5.1728    2.4466   -3.2594 O.3        1 <1>        0.000
      2 P1          3.7818    2.9746   -3.8249 P.3        1 <1>        0.000
      3 O5          3.0524    1.7269   -4.4207 O.3        1 <1>        0.000
      4 O6          3.0982    3.6846   -2.7767 O.2        1 <1>        0.000
      5 O7          4.0849    3.8761   -5.0734 O.3        1 <1>        0.000
      6 P2          3.7367    0.6321   -5.3603 P.3        1 <1>        0.000
      7 O8          4.2540   -0.5409   -4.4610 O.3        1 <1>        0.000
      8 O15         4.1804    0.5550   -1.6390 O.3        1 <1>        0.000
      9 O9          4.7734    1.3001   -6.1292 O.2        1 <1>        0.000
     10 O10         2.6358   -0.0206   -6.2592 O.3        1 <1>        0.000
     11 P3          3.2656   -1.5007   -3.6731 P.3        1 <1>        0.000
     12 O11         2.2687   -0.5954   -2.8556 O.3        1 <1>        0.000
     13 O12         2.5449   -2.3200   -4.6232 O.2        1 <1>        0.000
     14 O13         4.0639   -2.2826   -2.5755 O.3        1 <1>        0.000
     15 P4          2.6860   -0.0160   -1.4560 P.3        1 <1>        0.000
     16 O14         1.8131    1.1878   -1.0496 O.3        1 <1>        0.000
     17 O16         2.6412   -1.0788   -0.4785 O.2        1 <1>        0.000
     18 H           5.6382    1.9707   -3.9511 H.spc      1 <1>        0.000
     19 H           4.5397    3.3556   -5.7397 H.spc      1 <1>        0.000
     20 H           4.1754    1.2576   -2.2932 H.spc      1 <1>        0.000
     21 H           1.9798   -0.4456   -5.7019 H.spc      1 <1>        0.000
     22 H           4.5057   -1.6573   -1.9963 H.spc      1 <1>        0.000
     23 H           1.8726    1.8673   -1.7251 H.spc      1 <1>        0.000
@<TRIPOS>BOND
     1    7   11 1  
     2   11   12 1  
     3    2    3 1  
     4   15   16 1  
     5    1    2 1  
     6   11   14 1  
     7    6    9 2  
     8   15   17 2  
     9    2    5 1  
    10   15    8 1  
    11    6   10 1  
    12   12   15 1  
    13    6    7 1  
    14    2    4 2  
    15    3    6 1  
    16   11   13 2  
    17    1   18 1  
    18    5   19 1  
    19    8   20 1  
    20   10   21 1  
    21   14   22 1  
    22   16   23 1  
# Name:          frag3-253-4/96164
# Creation time: Sat Jun  5 12:53:18 2010


@<TRIPOS>MOLECULE
frag3-253-4/96164
   23    22     1     1     1
SMALL
USER_CHARGES


@<TRIPOS>ATOM
      1 O4          2.4678   -0.7412    0.0641 O.3        1 <1>        0.000
      2 P1          3.5250   -1.7067   -0.6263 P.3        1 <1>        0.000
      3 O5          3.0562   -1.9667   -2.0910 O.3        1 <1>        0.000
      4 O6          4.8225   -1.0655   -0.5607 O.2        1 <1>        0.000
      5 O7          3.5050   -3.0660    0.1542 O.3        1 <1>        0.000
      6 P2          2.5613   -0.8624   -3.0663 P.3        1 <1>        0.000
      7 O8          3.6583    0.2320   -3.3368 O.3        1 <1>        0.000
      8 O15         4.1808    2.4758   -7.3418 O.3        1 <1>        0.000
      9 O9          1.3667   -0.2112   -2.5188 O.2        1 <1>        0.000
     10 O10         2.2604   -1.4982   -4.4751 O.3        1 <1>        0.000
     11 P3          3.4472    1.3858   -4.3368 P.3        1 <1>        0.000
     12 O11         4.6551    2.2184   -4.8434 O.3        1 <1>        0.000
     13 O12         2.8006    0.8480   -5.5532 O.2        1 <1>        0.000
     14 O13         2.4979    2.4841   -3.6477 O.3        1 <1>        0.000
     15 P4          4.4871    3.2636   -5.9963 P.3        1 <1>        0.000
     16 O14         3.1590    4.0620   -5.6529 O.3        1 <1>        0.000
     17 O16         5.6028    4.1769   -6.0867 O.2        1 <1>        0.000
     18 H           1.5980   -1.1461    0.0326 H.spc      1 <1>        0.000
     19 H           2.6317   -3.4590    0.0877 H.spc      1 <1>        0.000
     20 H           3.4312    1.8917   -7.2057 H.spc      1 <1>        0.000
     21 H           3.0555   -1.9175   -4.8121 H.spc      1 <1>        0.000
     22 H           2.9263    2.8266   -2.8598 H.spc      1 <1>        0.000
     23 H           2.4236    3.4477   -5.5949 H.spc      1 <1>        0.000
@<TRIPOS>BOND
     1    7   11 1  
     2   11   12 1  
     3    2    3 1  
     4   15   16 1  
     5    1    2 1  
     6   11   14 1  
     7    6    9 2  
     8   15   17 2  
     9    2    5 1  
    10   15    8 1  
    11    6   10 1  
    12   12   15 1  
    13    6    7 1  
    14    2    4 2  
    15    3    6 1  
    16   11   13 2  
    17    1   18 1  
    18    5   19 1  
    19    8   20 1  
    20   10   21 1  
    21   14   22 1  
    22   16   23 1  
# Name:          frag3-253-4/96164
# Creation time: Sat Jun  5 12:53:18 2010


@<TRIPOS>MOLECULE
frag3-253-4/96164
   23    22     1     1     1
SMALL
USER_CHARGES


@<TRIPOS>ATOM
      1 O4          3.8830   -0.6776    0.3763 O.3        1 <1>        0.000
      2 P1          3.8823   -0.6072   -1.1737 P.3        1 <1>        0.000
      3 O5          2.5608   -1.1254   -1.8392 O.3        1 <1>        0.000
      4 O6          4.1743    0.7408   -1.6137 O.2        1 <1>        0.000
      5 O7          5.0108   -1.6084   -1.6918 O.3        1 <1>        0.000
      6 P2          2.2688   -1.0749   -3.3829 P.3        1 <1>        0.000
      7 O8          3.0834    0.1469   -3.9779 O.3        1 <1>        0.000
      8 O15         4.4135    1.7260   -6.4902 O.3        1 <1>        0.000
      9 O9          0.8718   -0.8500   -3.6951 O.2        1 <1>        0.000
     10 O10         2.8292   -2.3954   -3.9992 O.3        1 <1>        0.000
     11 P3          2.4380    1.5468   -4.2894 P.3        1 <1>        0.000
     12 O11         3.4791    2.6876   -4.3567 O.3        1 <1>        0.000
     13 O12         1.7806    1.4687   -5.5873 O.2        1 <1>        0.000
     14 O13         1.4507    1.8433   -3.0946 O.3        1 <1>        0.000
     15 P4          4.8084    2.5225   -5.1492 P.3        1 <1>        0.000
     16 O14         5.3660    3.8910   -5.6076 O.3        1 <1>        0.000
     17 O16         5.7533    1.7938   -4.3431 O.2        1 <1>        0.000
     18 H           3.6884   -1.5755    0.6548 H.spc      1 <1>        0.000
     19 H           4.8080   -2.4986   -1.3950 H.spc      1 <1>        0.000
     20 H           3.7842    2.2454   -6.9960 H.spc      1 <1>        0.000
     21 H           3.7541   -2.4913   -3.7605 H.spc      1 <1>        0.000
     22 H           1.9464    1.8815   -2.2733 H.spc      1 <1>        0.000
     23 H           4.7066    4.3418   -6.1401 H.spc      1 <1>        0.000
@<TRIPOS>BOND
     1    7   11 1  
     2   11   12 1  
     3    2    3 1  
     4   15   16 1  
     5    1    2 1  
     6   11   14 1  
     7    6    9 2  
     8   15   17 2  
     9    2    5 1  
    10   15    8 1  
    11    6   10 1  
    12   12   15 1  
    13    6    7 1  
    14    2    4 2  
    15    3    6 1  
    16   11   13 2  
    17    1   18 1  
    18    5   19 1  
    19    8   20 1  
    20   10   21 1  
    21   14   22 1  
    22   16   23 1  
# Name:          frag3-253-4/96164
# Creation time: Sat Jun  5 12:53:18 2010


@<TRIPOS>MOLECULE
frag3-253-4/96164
   23    22     1     1     1
SMALL
USER_CHARGES


@<TRIPOS>ATOM
      1 O4          2.2901   -0.3945   -0.0384 O.3        1 <1>        0.000
      2 P1          3.5333   -1.1645   -0.6561 P.3        1 <1>        0.000
      3 O5          3.0602   -1.9185   -1.9378 O.3        1 <1>        0.000
      4 O6          4.5541   -0.1803   -0.9765 O.2        1 <1>        0.000
      5 O7          4.0315   -2.1776    0.4234 O.3        1 <1>        0.000
      6 P2          2.6274   -1.2462   -3.2676 P.3        1 <1>        0.000
      7 O8          3.7682   -0.3233   -3.8511 O.3        1 <1>        0.000
      8 O15         4.4552    2.9696   -7.0772 O.3        1 <1>        0.000
      9 O9          1.4619   -0.3855   -3.0068 O.2        1 <1>        0.000
     10 O10         2.3180   -2.2995   -4.3769 O.3        1 <1>        0.000
     11 P3          3.4977    0.9906   -4.6164 P.3        1 <1>        0.000
     12 O11         4.5828    2.0929   -4.6799 O.3        1 <1>        0.000
     13 O12         3.1043    0.7096   -6.0036 O.2        1 <1>        0.000
     14 O13         2.2870    1.7094   -3.8235 O.3        1 <1>        0.000
     15 P4          4.3680    3.3732   -5.5363 P.3        1 <1>        0.000
     16 O14         2.8600    3.8152   -5.3195 O.3        1 <1>        0.000
     17 O16         5.2543    4.4584   -5.1710 O.2        1 <1>        0.000
     18 H           1.6012   -1.0259    0.1816 H.spc      1 <1>        0.000
     19 H           3.3354   -2.8115    0.6111 H.spc      1 <1>        0.000
     20 H           3.8463    2.2485   -7.2529 H.spc      1 <1>        0.000
     21 H           3.0944   -2.8445   -4.5246 H.spc      1 <1>        0.000
     22 H           2.5584    1.8866   -2.9199 H.spc      1 <1>        0.000
     23 H           2.2776    3.0920   -5.5632 H.spc      1 <1>        0.000
@<TRIPOS>BOND
     1    7   11 1  
     2   11   12 1  
     3    2    3 1  
     4   15   16 1  
     5    1    2 1  
     6   11   14 1  
     7    6    9 2  
     8   15   17 2  
     9    2    5 1  
    10   15    8 1  
    11    6   10 1  
    12   12   15 1  
    13    6    7 1  
    14    2    4 2  
    15    3    6 1  
    16   11   13 2  
    17    1   18 1  
    18    5   19 1  
    19    8   20 1  
    20   10   21 1  
    21   14   22 1  
    22   16   23 1  
# Name:          frag3-253-4/96164
# Creation time: Sat Jun  5 12:53:18 2010


@<TRIPOS>MOLECULE
frag3-253-4/96164
   23    22     1     1     1
SMALL
USER_CHARGES


@<TRIPOS>ATOM
      1 O4          4.9006   -0.8881   -0.1620 O.3        1 <1>        0.000
      2 P1          4.0814   -1.3107   -1.4053 P.3        1 <1>        0.000
      3 O5          2.6392   -0.6813   -1.4548 O.3        1 <1>        0.000
      4 O6          4.7976   -0.9488   -2.6146 O.2        1 <1>        0.000
      5 O7          3.8217   -2.8723   -1.3815 O.3        1 <1>        0.000
      6 P2          1.8489   -0.3689   -2.7788 P.3        1 <1>        0.000
      7 O8          2.8699    0.3532   -3.7526 O.3        1 <1>        0.000
      8 O15         3.5430    3.3703   -6.6267 O.3        1 <1>        0.000
      9 O9          0.7149    0.5040   -2.6000 O.2        1 <1>        0.000
     10 O10         1.4743   -1.7453   -3.4209 O.3        1 <1>        0.000
     11 P3          3.1661    1.8896   -3.7129 P.3        1 <1>        0.000
     12 O11         4.4285    2.3230   -4.4835 O.3        1 <1>        0.000
     13 O12         2.0404    2.5810   -4.3292 O.2        1 <1>        0.000
     14 O13         3.3534    2.2509   -2.1824 O.3        1 <1>        0.000
     15 P4          4.4755    2.2114   -6.0353 P.3        1 <1>        0.000
     16 O14         5.8962    2.4692   -6.5912 O.3        1 <1>        0.000
     17 O16         4.0023    0.8916   -6.3836 O.2        1 <1>        0.000
     18 H           4.4209   -1.1305    0.6334 H.spc      1 <1>        0.000
     19 H           3.3479   -3.1046   -0.5795 H.spc      1 <1>        0.000
     20 H           3.8958    4.2255   -6.3703 H.spc      1 <1>        0.000
     21 H           2.2663   -2.2798   -3.5141 H.spc      1 <1>        0.000
     22 H           4.1055    1.7689   -1.8307 H.spc      1 <1>        0.000
     23 H           6.1804    3.3520   -6.3431 H.spc      1 <1>        0.000
@<TRIPOS>BOND
     1    7   11 1  
     2   11   12 1  
     3    2    3 1  
     4   15   16 1  
     5    1    2 1  
     6   11   14 1  
     7    6    9 2  
     8   15   17 2  
     9    2    5 1  
    10   15    8 1  
    11    6   10 1  
    12   12   15 1  
    13    6    7 1  
    14    2    4 2  
    15    3    6 1  
    16   11   13 2  
    17    1   18 1  
    18    5   19 1  
    19    8   20 1  
    20   10   21 1  
    21   14   22 1  
    22   16   23 1  
# Name:          frag3-253-4/96164
# Creation time: Sat Jun  5 12:53:18 2010


@<TRIPOS>MOLECULE
frag3-253-4/96164
   23    22     1     1     1
SMALL
USER_CHARGES


@<TRIPOS>ATOM
      1 O4          4.1366    0.3403   -0.8320 O.3        1 <1>        0.000
      2 P1          3.3809   -1.0499   -0.8378 P.3        1 <1>        0.000
      3 O5          2.1585   -0.9664   -1.8342 O.3        1 <1>        0.000
      4 O6          4.3126   -2.0780   -1.2816 O.2        1 <1>        0.000
      5 O7          2.8288   -1.3500    0.5908 O.3        1 <1>        0.000
      6 P2          2.2739   -1.1969   -3.3820 P.3        1 <1>        0.000
      7 O8          3.5413   -0.3938   -3.8977 O.3        1 <1>        0.000
      8 O15         3.6665    3.2481   -6.8947 O.3        1 <1>        0.000
      9 O9          1.1140   -0.7558   -4.1332 O.2        1 <1>        0.000
     10 O10         2.5771   -2.7216   -3.5834 O.3        1 <1>        0.000
     11 P3          3.4676    1.0589   -4.3935 P.3        1 <1>        0.000
     12 O11         4.6818    1.7201   -5.0912 O.3        1 <1>        0.000
     13 O12         2.3321    1.1957   -5.3164 O.2        1 <1>        0.000
     14 O13         3.2353    2.0101   -3.0994 O.3        1 <1>        0.000
     15 P4          4.6091    3.1908   -5.6215 P.3        1 <1>        0.000
     16 O14         3.8265    3.9997   -4.4898 O.3        1 <1>        0.000
     17 O16         5.9113    3.7775   -5.8178 O.2        1 <1>        0.000
     18 H           3.5346    1.0293   -0.5412 H.spc      1 <1>        0.000
     19 H           2.2201   -0.6544    0.8500 H.spc      1 <1>        0.000
     20 H           2.8230    2.8402   -6.6856 H.spc      1 <1>        0.000
     21 H           3.3501   -2.9638   -3.0682 H.spc      1 <1>        0.000
     22 H           3.9785    1.9184   -2.4987 H.spc      1 <1>        0.000
     23 H           2.9596    3.6083   -4.3598 H.spc      1 <1>        0.000
@<TRIPOS>BOND
     1    7   11 1  
     2   11   12 1  
     3    2    3 1  
     4   15   16 1  
     5    1    2 1  
     6   11   14 1  
     7    6    9 2  
     8   15   17 2  
     9    2    5 1  
    10   15    8 1  
    11    6   10 1  
    12   12   15 1  
    13    6    7 1  
    14    2    4 2  
    15    3    6 1  
    16   11   13 2  
    17    1   18 1  
    18    5   19 1  
    19    8   20 1  
    20   10   21 1  
    21   14   22 1  
    22   16   23 1  
# Name:          frag3-253-4/96164
# Creation time: Sat Jun  5 12:53:18 2010


@<TRIPOS>MOLECULE
frag3-253-4/96164
   23    22     1     1     1
SMALL
USER_CHARGES


@<TRIPOS>ATOM
      1 O4          1.5966   -0.4914   -0.8469 O.3        1 <1>        0.000
      2 P1          3.1184   -0.9505   -0.7245 P.3        1 <1>        0.000
      3 O5          3.7386   -0.9006   -2.1593 O.3        1 <1>        0.000
      4 O6          3.7590   -0.1600    0.2998 O.2        1 <1>        0.000
      5 O7          3.0682   -2.4852   -0.3159 O.3        1 <1>        0.000
      6 P2          2.9443   -1.2473   -3.4983 P.3        1 <1>        0.000
      7 O8          3.5559   -0.5323   -4.7273 O.3        1 <1>        0.000
      8 O15         2.5354    3.7828   -4.6615 O.3        1 <1>        0.000
      9 O9          1.5498   -0.8285   -3.2872 O.2        1 <1>        0.000
     10 O10         3.0406   -2.8037   -3.6750 O.3        1 <1>        0.000
     11 P3          4.0502    0.9260   -4.6921 P.3        1 <1>        0.000
     12 O11         3.6963    1.8620   -5.8844 O.3        1 <1>        0.000
     13 O12         3.4428    1.5752   -3.5030 O.2        1 <1>        0.000
     14 O13         5.6411    0.9626   -4.5996 O.3        1 <1>        0.000
     15 P4          3.6842    3.4187   -5.7002 P.3        1 <1>        0.000
     16 O14         5.0515    3.7770   -4.9820 O.3        1 <1>        0.000
     17 O16         3.5811    4.1241   -6.9577 O.2        1 <1>        0.000
     18 H           1.1604   -1.0111   -1.5260 H.spc      1 <1>        0.000
     19 H           2.6385   -2.9868   -1.0126 H.spc      1 <1>        0.000
     20 H           2.6652    3.2808   -3.8536 H.spc      1 <1>        0.000
     21 H           3.9576   -3.0530   -3.8111 H.spc      1 <1>        0.000
     22 H           6.0155    0.5391   -5.3756 H.spc      1 <1>        0.000
     23 H           5.1080    3.3029   -4.1491 H.spc      1 <1>        0.000
@<TRIPOS>BOND
     1    7   11 1  
     2   11   12 1  
     3    2    3 1  
     4   15   16 1  
     5    1    2 1  
     6   11   14 1  
     7    6    9 2  
     8   15   17 2  
     9    2    5 1  
    10   15    8 1  
    11    6   10 1  
    12   12   15 1  
    13    6    7 1  
    14    2    4 2  
    15    3    6 1  
    16   11   13 2  
    17    1   18 1  
    18    5   19 1  
    19    8   20 1  
    20   10   21 1  
    21   14   22 1  
    22   16   23 1  
# Name:          frag3-253-4/96164
# Creation time: Sat Jun  5 12:53:18 2010


@<TRIPOS>MOLECULE
frag3-253-4/96164
   23    22     1     1     1
SMALL
USER_CHARGES


@<TRIPOS>ATOM
      1 O4          1.3769   -1.1583    0.2697 O.3        1 <1>        0.000
      2 P1          2.5092   -0.9721   -0.7713 P.3        1 <1>        0.000
      3 O5          1.9956   -0.8495   -2.2512 O.3        1 <1>        0.000
      4 O6          3.3520    0.1541   -0.4212 O.2        1 <1>        0.000
      5 O7          3.3982   -2.3016   -0.8133 O.3        1 <1>        0.000
      6 P2          2.9184   -0.6492   -3.4722 P.3        1 <1>        0.000
      7 O8          3.7469    0.6921   -3.4253 O.3        1 <1>        0.000
      8 O15         3.6269    3.6334   -4.1217 O.3        1 <1>        0.000
      9 O9          2.3154   -0.8008   -4.7809 O.2        1 <1>        0.000
     10 O10         4.0787   -1.7626   -3.2884 O.3        1 <1>        0.000
     11 P3          4.8443    1.0621   -4.4941 P.3        1 <1>        0.000
     12 O11         4.1350    1.7348   -5.7207 O.3        1 <1>        0.000
     13 O12         5.8323    1.9973   -3.9963 O.2        1 <1>        0.000
     14 O13         5.4427   -0.3125   -4.9901 O.3        1 <1>        0.000
     15 P4          3.1950    2.9640   -5.5213 P.3        1 <1>        0.000
     16 O14         3.4723    4.0491   -6.5995 O.3        1 <1>        0.000
     17 O16         1.8141    2.5484   -5.5174 O.2        1 <1>        0.000
     18 H           0.8326   -1.9080    0.0181 H.spc      1 <1>        0.000
     19 H           2.8427   -3.0495   -1.0450 H.spc      1 <1>        0.000
     20 H           4.5494    3.8955   -4.1648 H.spc      1 <1>        0.000
     21 H           4.4802   -1.6647   -2.4219 H.spc      1 <1>        0.000
     22 H           4.7311   -0.8756   -5.3033 H.spc      1 <1>        0.000
     23 H           4.3989    4.2983   -6.5702 H.spc      1 <1>        0.000
@<TRIPOS>BOND
     1    7   11 1  
     2   11   12 1  
     3    2    3 1  
     4   15   16 1  
     5    1    2 1  
     6   11   14 1  
     7    6    9 2  
     8   15   17 2  
     9    2    5 1  
    10   15    8 1  
    11    6   10 1  
    12   12   15 1  
    13    6    7 1  
    14    2    4 2  
    15    3    6 1  
    16   11   13 2  
    17    1   18 1  
    18    5   19 1  
    19    8   20 1  
    20   10   21 1  
    21   14   22 1  
    22   16   23 1  
# Name:          frag3-253-4/96164
# Creation time: Sat Jun  5 12:53:18 2010


@<TRIPOS>MOLECULE
frag3-253-4/96164
   23    22     1     1     1
SMALL
USER_CHARGES


@<TRIPOS>ATOM
      1 O4          3.8281    0.1537   -0.4496 O.3        1 <1>        0.000
      2 P1          2.9692   -1.1804   -0.5056 P.3        1 <1>        0.000
      3 O5          3.1447   -1.8057   -1.9268 O.3        1 <1>        0.000
      4 O6          3.3033   -2.0171    0.6195 O.2        1 <1>        0.000
      5 O7          1.4356   -0.7548   -0.4686 O.3        1 <1>        0.000
      6 P2          3.0212   -1.0140   -3.2625 P.3        1 <1>        0.000
      7 O8          4.3535   -0.3228   -3.7307 O.3        1 <1>        0.000
      8 O15         5.0141    3.5889   -5.8054 O.3        1 <1>        0.000
      9 O9          2.0081    0.0592   -3.0789 O.2        1 <1>        0.000
     10 O10         2.5954   -1.9563   -4.4450 O.3        1 <1>        0.000
     11 P3          4.3884    0.8097   -4.7760 P.3        1 <1>        0.000
     12 O11         3.5551    2.0868   -4.3601 O.3        1 <1>        0.000
     13 O12         5.7096    1.2855   -5.1355 O.2        1 <1>        0.000
     14 O13         3.5742    0.2883   -6.0719 O.3        1 <1>        0.000
     15 P4          3.5143    3.3472   -5.2882 P.3        1 <1>        0.000
     16 O14         2.6947    2.9559   -6.5811 O.3        1 <1>        0.000
     17 O16         2.9442    4.5045   -4.6488 O.2        1 <1>        0.000
     18 H           3.6038    0.7091   -1.1998 H.spc      1 <1>        0.000
     19 H           1.2404   -0.1996   -1.2270 H.spc      1 <1>        0.000
     20 H           5.3411    2.7876   -6.2209 H.spc      1 <1>        0.000
     21 H           3.2542   -2.6456   -4.5566 H.spc      1 <1>        0.000
     22 H           2.7061   -0.0191   -5.8007 H.spc      1 <1>        0.000
     23 H           3.0927    2.1835   -6.9893 H.spc      1 <1>        0.000
@<TRIPOS>BOND
     1    7   11 1  
     2   11   12 1  
     3    2    3 1  
     4   15   16 1  
     5    1    2 1  
     6   11   14 1  
     7    6    9 2  
     8   15   17 2  
     9    2    5 1  
    10   15    8 1  
    11    6   10 1  
    12   12   15 1  
    13    6    7 1  
    14    2    4 2  
    15    3    6 1  
    16   11   13 2  
    17    1   18 1  
    18    5   19 1  
    19    8   20 1  
    20   10   21 1  
    21   14   22 1  
    22   16   23 1  
# Name:          frag3-253-4/96164
# Creation time: Sat Jun  5 12:53:18 2010


@<TRIPOS>MOLECULE
frag3-253-4/96164
   23    22     1     1     1
SMALL
USER_CHARGES


@<TRIPOS>ATOM
      1 O4          2.7003   -0.4780    0.8582 O.3        1 <1>        0.000
      2 P1          2.6085   -0.8865   -0.6424 P.3        1 <1>        0.000
      3 O5          3.4455    0.0224   -1.5968 O.3        1 <1>        0.000
      4 O6          2.9873   -2.2809   -0.7919 O.2        1 <1>        0.000
      5 O7          1.1005   -0.6833   -1.0934 O.3        1 <1>        0.000
      6 P2          3.6543   -0.2668   -3.1019 P.3        1 <1>        0.000
      7 O8          4.7980    0.4601   -3.8615 O.3        1 <1>        0.000
      8 O15         4.2888    3.7250   -5.0612 O.3        1 <1>        0.000
      9 O9          2.4023   -0.0687   -3.8475 O.2        1 <1>        0.000
     10 O10         4.0244   -1.8245   -3.1425 O.3        1 <1>        0.000
     11 P3          4.7489    0.7681   -5.4001 P.3        1 <1>        0.000
     12 O11         3.3533    1.4473   -5.6852 O.3        1 <1>        0.000
     13 O12         5.7512    1.7287   -5.8132 O.2        1 <1>        0.000
     14 O13         4.7892   -0.6044   -6.1541 O.3        1 <1>        0.000
     15 P4          2.9690    2.8073   -5.0293 P.3        1 <1>        0.000
     16 O14         1.9217    3.5753   -5.8765 O.3        1 <1>        0.000
     17 O16         2.5107    2.5878   -3.6761 O.2        1 <1>        0.000
     18 H           2.4494    0.4437    0.9537 H.spc      1 <1>        0.000
     19 H           0.8588    0.2402   -0.9914 H.spc      1 <1>        0.000
     20 H           4.5671    3.8518   -5.9712 H.spc      1 <1>        0.000
     21 H           4.8409   -1.9710   -2.6593 H.spc      1 <1>        0.000
     22 H           4.0939   -1.1740   -5.8169 H.spc      1 <1>        0.000
     23 H           2.2612    3.7014   -6.7656 H.spc      1 <1>        0.000
@<TRIPOS>BOND
     1    7   11 1  
     2   11   12 1  
     3    2    3 1  
     4   15   16 1  
     5    1    2 1  
     6   11   14 1  
     7    6    9 2  
     8   15   17 2  
     9    2    5 1  
    10   15    8 1  
    11    6   10 1  
    12   12   15 1  
    13    6    7 1  
    14    2    4 2  
    15    3    6 1  
    16   11   13 2  
    17    1   18 1  
    18    5   19 1  
    19    8   20 1  
    20   10   21 1  
    21   14   22 1  
    22   16   23 1  
# Name:          frag3-253-4/96164
# Creation time: Sat Jun  5 12:53:18 2010


@<TRIPOS>MOLECULE
frag3-253-4/96164
   23    22     1     1     1
SMALL
USER_CHARGES


@<TRIPOS>ATOM
      1 O4          3.9602   -1.1122    0.0870 O.3        1 <1>        0.000
      2 P1          3.1977   -2.2681   -0.6924 P.3        1 <1>        0.000
      3 O5          3.1758   -1.8781   -2.2089 O.3        1 <1>        0.000
      4 O6          3.7956   -3.5406   -0.3623 O.2        1 <1>        0.000
      5 O7          1.6714   -2.2163   -0.2560 O.3        1 <1>        0.000
      6 P2          2.8926   -0.4333   -2.7442 P.3        1 <1>        0.000
      7 O8          3.9675    0.1888   -3.6736 O.3        1 <1>        0.000
      8 O15         3.0411    2.5417   -7.4328 O.3        1 <1>        0.000
      9 O9          2.6812    0.4463   -1.5672 O.2        1 <1>        0.000
     10 O10         1.5498   -0.5006   -3.5870 O.3        1 <1>        0.000
     11 P3          3.7834    1.5676   -4.3460 P.3        1 <1>        0.000
     12 O11         4.6890    1.9601   -5.5439 O.3        1 <1>        0.000
     13 O12         2.3950    1.6624   -4.8579 O.2        1 <1>        0.000
     14 O13         4.0477    2.6922   -3.2369 O.3        1 <1>        0.000
     15 P4          4.2453    3.0798   -6.5423 P.3        1 <1>        0.000
     16 O14         3.6127    4.2292   -5.6415 O.3        1 <1>        0.000
     17 O16         5.3483    3.6098   -7.3095 O.2        1 <1>        0.000
     18 H           3.5641   -0.2654   -0.1312 H.spc      1 <1>        0.000
     19 H           1.3023   -1.3609   -0.4877 H.spc      1 <1>        0.000
     20 H           2.3469    2.2060   -6.8610 H.spc      1 <1>        0.000
     21 H           1.6803   -1.0684   -4.3500 H.spc      1 <1>        0.000
     22 H           4.9494    2.6178   -2.9159 H.spc      1 <1>        0.000
     23 H           2.8806    3.8705   -5.1345 H.spc      1 <1>        0.000
@<TRIPOS>BOND
     1    7   11 1  
     2   11   12 1  
     3    2    3 1  
     4   15   16 1  
     5    1    2 1  
     6   11   14 1  
     7    6    9 2  
     8   15   17 2  
     9    2    5 1  
    10   15    8 1  
    11    6   10 1  
    12   12   15 1  
    13    6    7 1  
    14    2    4 2  
    15    3    6 1  
    16   11   13 2  
    17    1   18 1  
    18    5   19 1  
    19    8   20 1  
    20   10   21 1  
    21   14   22 1  
    22   16   23 1  
# Name:          frag3-253-4/96164
# Creation time: Sat Jun  5 12:53:18 2010


@<TRIPOS>MOLECULE
frag3-253-4/96164
   23    22     1     1     1
SMALL
USER_CHARGES


@<TRIPOS>ATOM
      1 O4          1.3474    0.1264   -1.2366 O.3        1 <1>        0.000
      2 P1          2.8630   -0.1697   -0.9107 P.3        1 <1>        0.000
      3 O5          3.3407   -1.2965   -1.8895 O.3        1 <1>        0.000
      4 O6          3.6341    1.0360   -1.1055 O.2        1 <1>        0.000
      5 O7          2.9703   -0.7093    0.5491 O.3        1 <1>        0.000
      6 P2          3.4028   -1.1832   -3.4268 P.3        1 <1>        0.000
      7 O8          4.3355   -0.0193   -3.9276 O.3        1 <1>        0.000
      8 O15         4.8145    3.3021   -4.3027 O.3        1 <1>        0.000
      9 O9          2.0526   -0.9146   -3.9542 O.2        1 <1>        0.000
     10 O10         3.9782   -2.5021   -4.0535 O.3        1 <1>        0.000
     11 P3          4.2783    0.5654   -5.3892 P.3        1 <1>        0.000
     12 O11         3.1993    1.6941   -5.4387 O.3        1 <1>        0.000
     13 O12         5.5338    1.1391   -5.8193 O.2        1 <1>        0.000
     14 O13         3.7708   -0.6367   -6.2815 O.3        1 <1>        0.000
     15 P4          3.2670    2.9018   -4.4601 P.3        1 <1>        0.000
     16 O14         2.5905    4.1604   -5.0673 O.3        1 <1>        0.000
     17 O16         2.6750    2.5350   -3.2013 O.2        1 <1>        0.000
     18 H           0.8316   -0.6730   -1.1082 H.spc      1 <1>        0.000
     19 H           2.4446   -1.5081    0.6332 H.spc      1 <1>        0.000
     20 H           5.1714    3.5395   -5.1617 H.spc      1 <1>        0.000
     21 H           4.8566   -2.6653   -3.7022 H.spc      1 <1>        0.000
     22 H           2.9369   -0.9617   -5.9343 H.spc      1 <1>        0.000
     23 H           3.0095    4.3754   -5.9038 H.spc      1 <1>        0.000
@<TRIPOS>BOND
     1    7   11 1  
     2   11   12 1  
     3    2    3 1  
     4   15   16 1  
     5    1    2 1  
     6   11   14 1  
     7    6    9 2  
     8   15   17 2  
     9    2    5 1  
    10   15    8 1  
    11    6   10 1  
    12   12   15 1  
    13    6    7 1  
    14    2    4 2  
    15    3    6 1  
    16   11   13 2  
    17    1   18 1  
    18    5   19 1  
    19    8   20 1  
    20   10   21 1  
    21   14   22 1  
    22   16   23 1  
# Name:          frag3-253-4/96164
# Creation time: Sat Jun  5 12:53:18 2010


@<TRIPOS>MOLECULE
frag3-253-4/96164
   23    22     1     1     1
SMALL
USER_CHARGES


@<TRIPOS>ATOM
      1 O4          2.8590    0.1356   -0.1556 O.3        1 <1>        0.000
      2 P1          3.2926   -1.3226   -0.5973 P.3        1 <1>        0.000
      3 O5          3.7237   -1.2917   -2.1019 O.3        1 <1>        0.000
      4 O6          4.2461   -1.8513    0.3509 O.2        1 <1>        0.000
      5 O7          1.9557   -2.2004   -0.5923 O.3        1 <1>        0.000
      6 P2          2.7185   -1.0570   -3.3023 P.3        1 <1>        0.000
      7 O8          3.3866   -0.4360   -4.5589 O.3        1 <1>        0.000
      8 O15         2.8246    4.0588   -5.1940 O.3        1 <1>        0.000
      9 O9          1.6633   -0.1385   -2.8111 O.2        1 <1>        0.000
     10 O10         2.0867   -2.4386   -3.6923 O.3        1 <1>        0.000
     11 P3          3.8344    1.0357   -4.6308 P.3        1 <1>        0.000
     12 O11         3.7245    1.7934   -5.9841 O.3        1 <1>        0.000
     13 O12         3.0197    1.8135   -3.6720 O.2        1 <1>        0.000
     14 O13         5.3863    1.1420   -4.2511 O.3        1 <1>        0.000
     15 P4          3.9590    3.3367   -6.0519 P.3        1 <1>        0.000
     16 O14         5.3095    3.6180   -5.2648 O.3        1 <1>        0.000
     17 O16         4.0638    3.8312   -7.4057 O.2        1 <1>        0.000
     18 H           2.2256    0.4849   -0.7868 H.spc      1 <1>        0.000
     19 H           1.3332   -1.8370   -1.2264 H.spc      1 <1>        0.000
     20 H           2.8076    3.6858   -4.3096 H.spc      1 <1>        0.000
     21 H           2.7763   -3.0266   -4.0090 H.spc      1 <1>        0.000
     22 H           5.9040    0.6337   -4.8798 H.spc      1 <1>        0.000
     23 H           5.2305    3.2864   -4.3674 H.spc      1 <1>        0.000
@<TRIPOS>BOND
     1    7   11 1  
     2   11   12 1  
     3    2    3 1  
     4   15   16 1  
     5    1    2 1  
     6   11   14 1  
     7    6    9 2  
     8   15   17 2  
     9    2    5 1  
    10   15    8 1  
    11    6   10 1  
    12   12   15 1  
    13    6    7 1  
    14    2    4 2  
    15    3    6 1  
    16   11   13 2  
    17    1   18 1  
    18    5   19 1  
    19    8   20 1  
    20   10   21 1  
    21   14   22 1  
    22   16   23 1  
# Name:          frag3-253-4/96164
# Creation time: Sat Jun  5 12:53:19 2010


@<TRIPOS>MOLECULE
frag3-253-4/96164
   23    22     1     1     1
SMALL
USER_CHARGES


@<TRIPOS>ATOM
      1 O4          2.2868    3.9473   -4.9298 O.3        1 <1>        0.000
      2 P1          3.4365    3.1982   -5.6742 P.3        1 <1>        0.000
      3 O5          4.4576    2.5693   -4.6560 O.3        1 <1>        0.000
      4 O6          2.8716    2.1371   -6.4913 O.2        1 <1>        0.000
      5 O7          4.2347    4.2187   -6.5576 O.3        1 <1>        0.000
      6 P2          4.6974    1.0477   -4.4938 P.3        1 <1>        0.000
      7 O8          3.3048    0.2928   -4.4565 O.3        1 <1>        0.000
      8 O15         3.3222   -0.4373    0.6871 O.3        1 <1>        0.000
      9 O9          5.4235    0.6594   -3.2981 O.2        1 <1>        0.000
     10 O10         5.4220    0.5571   -5.8039 O.3        1 <1>        0.000
     11 P3          2.9041   -0.7096   -3.3650 P.3        1 <1>        0.000
     12 O11         3.1488   -0.1399   -1.9080 O.3        1 <1>        0.000
     13 O12         1.5344   -1.1496   -3.3889 O.2        1 <1>        0.000
     14 O13         3.9645   -1.9107   -3.4269 O.3        1 <1>        0.000
     15 P4          2.7462   -0.9957   -0.6570 P.3        1 <1>        0.000
     16 O14         1.1752   -0.8941   -0.5510 O.3        1 <1>        0.000
     17 O16         3.1237   -2.3619   -0.9443 O.2        1 <1>        0.000
     18 H           2.6599    4.6481   -4.3901 H.spc      1 <1>        0.000
     19 H           4.5979    4.9090   -5.9980 H.spc      1 <1>        0.000
     20 H           3.0298    0.4691    0.8072 H.spc      1 <1>        0.000
     21 H           4.9142    0.8315   -6.5710 H.spc      1 <1>        0.000
     22 H           4.8546   -1.5516   -3.4076 H.spc      1 <1>        0.000
     23 H           0.9265    0.0133   -0.3603 H.spc      1 <1>        0.000
@<TRIPOS>BOND
     1    7   11 1  
     2   11   12 1  
     3    2    3 1  
     4   15   16 1  
     5    1    2 1  
     6   11   14 1  
     7    6    9 2  
     8   15   17 2  
     9    2    5 1  
    10   15    8 1  
    11    6   10 1  
    12   12   15 1  
    13    6    7 1  
    14    2    4 2  
    15    3    6 1  
    16   11   13 2  
    17    1   18 1  
    18    5   19 1  
    19    8   20 1  
    20   10   21 1  
    21   14   22 1  
    22   16   23 1  
# Name:          frag3-253-4/96164
# Creation time: Sat Jun  5 12:53:19 2010


@<TRIPOS>MOLECULE
frag3-253-4/96164
   23    22     1     1     1
SMALL
USER_CHARGES


@<TRIPOS>ATOM
      1 O4          4.8753    3.5893   -4.3705 O.3        1 <1>        0.000
      2 P1          3.5138    3.3638   -5.1672 P.3        1 <1>        0.000
      3 O5          3.6243    1.9833   -5.8792 O.3        1 <1>        0.000
      4 O6          2.4288    3.4109   -4.2180 O.2        1 <1>        0.000
      5 O7          3.4269    4.5123   -6.2231 O.3        1 <1>        0.000
      6 P2          4.0719    0.6594   -5.2087 P.3        1 <1>        0.000
      7 O8          3.1420    0.2373   -4.0169 O.3        1 <1>        0.000
      8 O15         1.1164   -0.5529    0.0489 O.3        1 <1>        0.000
      9 O9          5.4450    0.7997   -4.7196 O.2        1 <1>        0.000
     10 O10         3.9662   -0.5118   -6.2530 O.3        1 <1>        0.000
     11 P3          3.2749   -1.1452   -3.2881 P.3        1 <1>        0.000
     12 O11         2.2653   -1.3868   -2.1503 O.3        1 <1>        0.000
     13 O12         3.2736   -2.1994   -4.2730 O.2        1 <1>        0.000
     14 O13         4.6786   -1.0608   -2.4872 O.3        1 <1>        0.000
     15 P4          2.4368   -0.6786   -0.7673 P.3        1 <1>        0.000
     16 O14         3.4121   -1.5771    0.0952 O.3        1 <1>        0.000
     17 O16         3.1020    0.5855   -1.0374 O.2        1 <1>        0.000
     18 H           5.6125    3.5617   -4.9848 H.spc      1 <1>        0.000
     19 H           4.1658    4.4423   -6.8320 H.spc      1 <1>        0.000
     20 H           0.7409   -1.4260    0.1844 H.spc      1 <1>        0.000
     21 H           3.0593   -0.5851   -6.5592 H.spc      1 <1>        0.000
     22 H           4.6366   -0.3491   -1.8443 H.spc      1 <1>        0.000
     23 H           2.9884   -2.4177    0.2835 H.spc      1 <1>        0.000
@<TRIPOS>BOND
     1    7   11 1  
     2   11   12 1  
     3    2    3 1  
     4   15   16 1  
     5    1    2 1  
     6   11   14 1  
     7    6    9 2  
     8   15   17 2  
     9    2    5 1  
    10   15    8 1  
    11    6   10 1  
    12   12   15 1  
    13    6    7 1  
    14    2    4 2  
    15    3    6 1  
    16   11   13 2  
    17    1   18 1  
    18    5   19 1  
    19    8   20 1  
    20   10   21 1  
    21   14   22 1  
    22   16   23 1  
# Name:          frag3-253-4/96164
# Creation time: Sat Jun  5 12:53:19 2010


@<TRIPOS>MOLECULE
frag3-253-4/96164
   23    22     1     1     1
SMALL
USER_CHARGES


@<TRIPOS>ATOM
      1 O4          3.8868    0.0844   -0.2938 O.3        1 <1>        0.000
      2 P1          3.3604   -1.3873   -0.5680 P.3        1 <1>        0.000
      3 O5          2.1048   -1.2733   -1.5129 O.3        1 <1>        0.000
      4 O6          4.4276   -2.1392   -1.2061 O.2        1 <1>        0.000
      5 O7          2.9062   -2.0308    0.7763 O.3        1 <1>        0.000
      6 P2          2.1397   -0.7127   -2.9515 P.3        1 <1>        0.000
      7 O8          3.0847    0.5633   -3.0522 O.3        1 <1>        0.000
      8 O15         5.9823    3.1040   -5.9059 O.3        1 <1>        0.000
      9 O9          0.8552   -0.3942   -3.5487 O.2        1 <1>        0.000
     10 O10         2.9311   -1.7792   -3.8349 O.3        1 <1>        0.000
     11 P3          3.5006    1.2086   -4.4008 P.3        1 <1>        0.000
     12 O11         3.8976    2.7013   -4.4474 O.3        1 <1>        0.000
     13 O12         4.5973    0.4518   -5.0194 O.2        1 <1>        0.000
     14 O13         2.1657    1.1035   -5.3050 O.3        1 <1>        0.000
     15 P4          4.4144    3.3381   -5.7715 P.3        1 <1>        0.000
     16 O14         3.7858    2.4726   -6.9519 O.3        1 <1>        0.000
     17 O16         4.0138    4.7182   -5.9218 O.2        1 <1>        0.000
     18 H           3.1939    0.5974    0.1284 H.spc      1 <1>        0.000
     19 H           2.2027   -1.5028    1.1609 H.spc      1 <1>        0.000
     20 H           6.1759    2.1702   -5.7959 H.spc      1 <1>        0.000
     21 H           3.7750   -1.9731   -3.4205 H.spc      1 <1>        0.000
     22 H           1.4587    1.6021   -4.8889 H.spc      1 <1>        0.000
     23 H           4.0521    1.5557   -6.8518 H.spc      1 <1>        0.000
@<TRIPOS>BOND
     1    7   11 1  
     2   11   12 1  
     3    2    3 1  
     4   15   16 1  
     5    1    2 1  
     6   11   14 1  
     7    6    9 2  
     8   15   17 2  
     9    2    5 1  
    10   15    8 1  
    11    6   10 1  
    12   12   15 1  
    13    6    7 1  
    14    2    4 2  
    15    3    6 1  
    16   11   13 2  
    17    1   18 1  
    18    5   19 1  
    19    8   20 1  
    20   10   21 1  
    21   14   22 1  
    22   16   23 1  
# Name:          frag3-253-4/96164
# Creation time: Sat Jun  5 12:53:19 2010


@<TRIPOS>MOLECULE
frag3-253-4/96164
   23    22     1     1     1
SMALL
USER_CHARGES


@<TRIPOS>ATOM
      1 O4          4.1456   -0.7416   -0.4723 O.3        1 <1>        0.000
      2 P1          2.7904   -1.5191   -0.7626 P.3        1 <1>        0.000
      3 O5          2.6910   -1.7066   -2.3091 O.3        1 <1>        0.000
      4 O6          2.7505   -2.7201    0.0426 O.2        1 <1>        0.000
      5 O7          1.6023   -0.5365   -0.4121 O.3        1 <1>        0.000
      6 P2          2.9042   -0.5716   -3.3602 P.3        1 <1>        0.000
      7 O8          4.3612    0.0478   -3.2797 O.3        1 <1>        0.000
      8 O15         2.0452    2.9770   -4.9001 O.3        1 <1>        0.000
      9 O9          1.9529    0.5219   -3.1197 O.2        1 <1>        0.000
     10 O10         2.7775   -1.1415   -4.8131 O.3        1 <1>        0.000
     11 P3          4.8189    1.2470   -4.1663 P.3        1 <1>        0.000
     12 O11         3.9379    1.3385   -5.4841 O.3        1 <1>        0.000
     13 O12         4.5255    2.5090   -3.4694 O.2        1 <1>        0.000
     14 O13         6.3001    1.1072   -4.6370 O.3        1 <1>        0.000
     15 P4          3.2482    2.6787   -5.8955 P.3        1 <1>        0.000
     16 O14         4.3211    3.8125   -5.5838 O.3        1 <1>        0.000
     17 O16         2.8814    2.7261   -7.2929 O.2        1 <1>        0.000
     18 H           4.1758    0.0564   -1.0051 H.spc      1 <1>        0.000
     19 H           1.6622    0.2461   -0.9648 H.spc      1 <1>        0.000
     20 H           2.3609    2.9286   -3.9948 H.spc      1 <1>        0.000
     21 H           3.4121   -1.8517   -4.9335 H.spc      1 <1>        0.000
     22 H           6.4154    0.2638   -5.0808 H.spc      1 <1>        0.000
     23 H           4.5616    3.7773   -4.6551 H.spc      1 <1>        0.000
@<TRIPOS>BOND
     1    7   11 1  
     2   11   12 1  
     3    2    3 1  
     4   15   16 1  
     5    1    2 1  
     6   11   14 1  
     7    6    9 2  
     8   15   17 2  
     9    2    5 1  
    10   15    8 1  
    11    6   10 1  
    12   12   15 1  
    13    6    7 1  
    14    2    4 2  
    15    3    6 1  
    16   11   13 2  
    17    1   18 1  
    18    5   19 1  
    19    8   20 1  
    20   10   21 1  
    21   14   22 1  
    22   16   23 1  
# Name:          frag3-253-4/96164
# Creation time: Sat Jun  5 12:53:19 2010


@<TRIPOS>MOLECULE
frag3-253-4/96164
   23    22     1     1     1
SMALL
USER_CHARGES


@<TRIPOS>ATOM
      1 O4          3.0575    4.2745   -7.1041 O.3        1 <1>        0.000
      2 P1          3.7997    3.5169   -5.9660 P.3        1 <1>        0.000
      3 O5          3.1081    2.1664   -5.5550 O.3        1 <1>        0.000
      4 O6          5.1854    3.2900   -6.3421 O.2        1 <1>        0.000
      5 O7          3.7293    4.3908   -4.6418 O.3        1 <1>        0.000
      6 P2          3.7373    1.1442   -4.5685 P.3        1 <1>        0.000
      7 O8          3.1683   -0.2957   -4.5474 O.3        1 <1>        0.000
      8 O15         1.3321   -2.1410   -0.7139 O.3        1 <1>        0.000
      9 O9          3.7240    1.6821   -3.1992 O.2        1 <1>        0.000
     10 O10         5.2536    1.0193   -5.0579 O.3        1 <1>        0.000
     11 P3          3.1850   -1.1753   -3.2866 P.3        1 <1>        0.000
     12 O11         2.7249   -0.4090   -1.9825 O.3        1 <1>        0.000
     13 O12         2.3571   -2.3656   -3.3548 O.2        1 <1>        0.000
     14 O13         4.7210   -1.5255   -2.9636 O.3        1 <1>        0.000
     15 P4          2.5780   -1.1567   -0.6208 P.3        1 <1>        0.000
     16 O14         3.8463   -2.1127   -0.5304 O.3        1 <1>        0.000
     17 O16         2.5463   -0.2737    0.5194 O.2        1 <1>        0.000
     18 H           2.1440    4.4199   -6.8474 H.spc      1 <1>        0.000
     19 H           2.8106    4.5343   -4.4029 H.spc      1 <1>        0.000
     20 H           1.4210   -2.6951   -1.4928 H.spc      1 <1>        0.000
     21 H           5.2724    0.6688   -5.9514 H.spc      1 <1>        0.000
     22 H           5.2323   -0.7138   -2.9274 H.spc      1 <1>        0.000
     23 H           3.8603   -2.6968   -1.2921 H.spc      1 <1>        0.000
@<TRIPOS>BOND
     1    7   11 1  
     2   11   12 1  
     3    2    3 1  
     4   15   16 1  
     5    1    2 1  
     6   11   14 1  
     7    6    9 2  
     8   15   17 2  
     9    2    5 1  
    10   15    8 1  
    11    6   10 1  
    12   12   15 1  
    13    6    7 1  
    14    2    4 2  
    15    3    6 1  
    16   11   13 2  
    17    1   18 1  
    18    5   19 1  
    19    8   20 1  
    20   10   21 1  
    21   14   22 1  
    22   16   23 1  
# Name:          frag3-253-4/96164
# Creation time: Sat Jun  5 12:53:19 2010


@<TRIPOS>MOLECULE
frag3-253-4/96164
   23    22     1     1     1
SMALL
USER_CHARGES


@<TRIPOS>ATOM
      1 O4          4.5461    4.1418   -4.6760 O.3        1 <1>        0.000
      2 P1          3.2226    3.3163   -4.9614 P.3        1 <1>        0.000
      3 O5          3.3938    1.9058   -4.2824 O.3        1 <1>        0.000
      4 O6          2.0747    4.0907   -4.5737 O.2        1 <1>        0.000
      5 O7          3.1990    2.9825   -6.5173 O.3        1 <1>        0.000
      6 P2          4.6526    0.9534   -4.5181 P.3        1 <1>        0.000
      7 O8          4.5866   -0.3232   -3.6484 O.3        1 <1>        0.000
      8 O15         4.0476   -0.8520   -0.7112 O.3        1 <1>        0.000
      9 O9          5.8601    1.7476   -4.3947 O.2        1 <1>        0.000
     10 O10         4.4795    0.4375   -6.0243 O.3        1 <1>        0.000
     11 P3          3.2668   -1.1911   -3.5504 P.3        1 <1>        0.000
     12 O11         2.2856   -0.5531   -2.5076 O.3        1 <1>        0.000
     13 O12         2.6622   -1.2417   -4.8692 O.2        1 <1>        0.000
     14 O13         3.5957   -2.6011   -2.9268 O.3        1 <1>        0.000
     15 P4          2.4434   -0.8621   -0.9789 P.3        1 <1>        0.000
     16 O14         1.8504    0.2419   -0.0824 O.3        1 <1>        0.000
     17 O16         1.8872   -2.1644   -0.6925 O.2        1 <1>        0.000
     18 H           5.3092    3.6208   -4.9364 H.spc      1 <1>        0.000
     19 H           3.9759    2.4663   -6.7445 H.spc      1 <1>        0.000
     20 H           4.3980    0.0201   -0.9067 H.spc      1 <1>        0.000
     21 H           3.6776   -0.0860   -6.0919 H.spc      1 <1>        0.000
     22 H           3.9906   -2.4821   -2.0599 H.spc      1 <1>        0.000
     23 H           2.2491    1.0852   -0.3091 H.spc      1 <1>        0.000
@<TRIPOS>BOND
     1    7   11 1  
     2   11   12 1  
     3    2    3 1  
     4   15   16 1  
     5    1    2 1  
     6   11   14 1  
     7    6    9 2  
     8   15   17 2  
     9    2    5 1  
    10   15    8 1  
    11    6   10 1  
    12   12   15 1  
    13    6    7 1  
    14    2    4 2  
    15    3    6 1  
    16   11   13 2  
    17    1   18 1  
    18    5   19 1  
    19    8   20 1  
    20   10   21 1  
    21   14   22 1  
    22   16   23 1  
# Name:          frag3-253-4/96164
# Creation time: Sat Jun  5 12:53:19 2010


@<TRIPOS>MOLECULE
frag3-253-4/96164
   23    22     1     1     1
SMALL
USER_CHARGES


@<TRIPOS>ATOM
      1 O4          4.5745    4.4135   -6.1557 O.3        1 <1>        0.000
      2 P1          3.4487    3.4150   -5.7167 P.3        1 <1>        0.000
      3 O5          3.8257    1.9382   -6.0812 O.3        1 <1>        0.000
      4 O6          3.2380    3.5285   -4.2825 O.2        1 <1>        0.000
      5 O7          2.1245    3.7542   -6.4980 O.3        1 <1>        0.000
      6 P2          4.2061    0.8604   -5.0365 P.3        1 <1>        0.000
      7 O8          2.9829    0.0892   -4.4233 O.3        1 <1>        0.000
      8 O15         1.5624   -2.1767   -0.6364 O.3        1 <1>        0.000
      9 O9          4.9337    1.5133   -3.9279 O.2        1 <1>        0.000
     10 O10         5.1100   -0.2480   -5.6974 O.3        1 <1>        0.000
     11 P3          3.0970   -0.7978   -3.1669 P.3        1 <1>        0.000
     12 O11         2.6298   -0.1752   -1.8124 O.3        1 <1>        0.000
     13 O12         2.4363   -2.0913   -3.2830 O.2        1 <1>        0.000
     14 O13         4.6912   -0.9972   -2.9219 O.3        1 <1>        0.000
     15 P4          2.6496   -1.0152   -0.4972 P.3        1 <1>        0.000
     16 O14         4.0485   -1.7662   -0.4723 O.3        1 <1>        0.000
     17 O16         2.4949   -0.2160    0.6941 O.2        1 <1>        0.000
     18 H           4.7147    4.3397   -7.1025 H.spc      1 <1>        0.000
     19 H           2.2817    3.6744   -7.4417 H.spc      1 <1>        0.000
     20 H           1.7218   -2.6674   -1.4460 H.spc      1 <1>        0.000
     21 H           4.6288   -0.6656   -6.4155 H.spc      1 <1>        0.000
     22 H           5.1123   -0.1377   -2.8475 H.spc      1 <1>        0.000
     23 H           4.1411   -2.2944   -1.2685 H.spc      1 <1>        0.000
@<TRIPOS>BOND
     1    7   11 1  
     2   11   12 1  
     3    2    3 1  
     4   15   16 1  
     5    1    2 1  
     6   11   14 1  
     7    6    9 2  
     8   15   17 2  
     9    2    5 1  
    10   15    8 1  
    11    6   10 1  
    12   12   15 1  
    13    6    7 1  
    14    2    4 2  
    15    3    6 1  
    16   11   13 2  
    17    1   18 1  
    18    5   19 1  
    19    8   20 1  
    20   10   21 1  
    21   14   22 1  
    22   16   23 1  
# Name:          frag3-253-4/96164
# Creation time: Sat Jun  5 12:53:19 2010


@<TRIPOS>MOLECULE
frag3-253-4/96164
   23    22     1     1     1
SMALL
USER_CHARGES


@<TRIPOS>ATOM
      1 O4          2.6212    3.5008   -5.4936 O.3        1 <1>        0.000
      2 P1          3.4243    2.3397   -6.1983 P.3        1 <1>        0.000
      3 O5          4.7082    2.0496   -5.3326 O.3        1 <1>        0.000
      4 O6          2.5874    1.1655   -6.2783 O.2        1 <1>        0.000
      5 O7          3.8908    2.8244   -7.6095 O.3        1 <1>        0.000
      6 P2          4.7240    1.4990   -3.8688 P.3        1 <1>        0.000
      7 O8          3.9123    0.1542   -3.8031 O.3        1 <1>        0.000
      8 O15         3.4346   -1.3524    0.6028 O.3        1 <1>        0.000
      9 O9          4.0080    2.4607   -3.0087 O.2        1 <1>        0.000
     10 O10         6.1745    1.2654   -3.3845 O.3        1 <1>        0.000
     11 P3          2.4969    0.0318   -3.1334 P.3        1 <1>        0.000
     12 O11         2.6745   -0.0931   -1.5729 O.3        1 <1>        0.000
     13 O12         1.7257    1.1967   -3.4759 O.2        1 <1>        0.000
     14 O13         1.8030   -1.3416   -3.5035 O.3        1 <1>        0.000
     15 P4          3.2573   -1.4017   -0.9403 P.3        1 <1>        0.000
     16 O14         2.1617   -2.5291   -1.2276 O.3        1 <1>        0.000
     17 O16         4.4495   -1.7411   -1.6869 O.2        1 <1>        0.000
     18 H           3.1745    4.2834   -5.4385 H.spc      1 <1>        0.000
     19 H           4.4427    3.6039   -7.5126 H.spc      1 <1>        0.000
     20 H           2.5979   -1.1211    1.0127 H.spc      1 <1>        0.000
     21 H           6.6075    0.6364   -3.9662 H.spc      1 <1>        0.000
     22 H           2.3755   -2.0678   -3.2457 H.spc      1 <1>        0.000
     23 H           1.3593   -2.3252   -0.7417 H.spc      1 <1>        0.000
@<TRIPOS>BOND
     1    7   11 1  
     2   11   12 1  
     3    2    3 1  
     4   15   16 1  
     5    1    2 1  
     6   11   14 1  
     7    6    9 2  
     8   15   17 2  
     9    2    5 1  
    10   15    8 1  
    11    6   10 1  
    12   12   15 1  
    13    6    7 1  
    14    2    4 2  
    15    3    6 1  
    16   11   13 2  
    17    1   18 1  
    18    5   19 1  
    19    8   20 1  
    20   10   21 1  
    21   14   22 1  
    22   16   23 1  
# Name:          frag3-253-4/96164
# Creation time: Sat Jun  5 12:53:19 2010


@<TRIPOS>MOLECULE
frag3-253-4/96164
   23    22     1     1     1
SMALL
USER_CHARGES


@<TRIPOS>ATOM
      1 O4          1.6839   -1.2033    0.3660 O.3        1 <1>        0.000
      2 P1          2.6941   -1.1062   -0.8052 P.3        1 <1>        0.000
      3 O5          2.0128   -0.9987   -2.2199 O.3        1 <1>        0.000
      4 O6          3.5984    0.0115   -0.6018 O.2        1 <1>        0.000
      5 O7          3.5326   -2.4593   -0.8899 O.3        1 <1>        0.000
      6 P2          2.7381   -0.5020   -3.4914 P.3        1 <1>        0.000
      7 O8          3.7404    0.6878   -3.1730 O.3        1 <1>        0.000
      8 O15         2.1140    2.7261   -4.5562 O.3        1 <1>        0.000
      9 O9          1.8975   -0.1414   -4.6095 O.2        1 <1>        0.000
     10 O10         3.7344   -1.6999   -3.9045 O.3        1 <1>        0.000
     11 P3          4.8446    1.1682   -4.1899 P.3        1 <1>        0.000
     12 O11         4.1138    1.4917   -5.5559 O.3        1 <1>        0.000
     13 O12         5.4774    2.4091   -3.7802 O.2        1 <1>        0.000
     14 O13         5.8185   -0.0352   -4.4321 O.3        1 <1>        0.000
     15 P4          3.2209    2.7615   -5.7085 P.3        1 <1>        0.000
     16 O14         4.1520    3.9866   -5.3305 O.3        1 <1>        0.000
     17 O16         2.6805    2.9323   -7.0328 O.2        1 <1>        0.000
     18 H           1.0938   -1.9458    0.2174 H.spc      1 <1>        0.000
     19 H           2.9339   -3.1976   -1.0244 H.spc      1 <1>        0.000
     20 H           2.5431    2.6105   -3.7053 H.spc      1 <1>        0.000
     21 H           4.2863   -1.9290   -3.1532 H.spc      1 <1>        0.000
     22 H           5.3124   -0.8065   -4.6978 H.spc      1 <1>        0.000
     23 H           4.5042    3.8587   -4.4466 H.spc      1 <1>        0.000
@<TRIPOS>BOND
     1    7   11 1  
     2   11   12 1  
     3    2    3 1  
     4   15   16 1  
     5    1    2 1  
     6   11   14 1  
     7    6    9 2  
     8   15   17 2  
     9    2    5 1  
    10   15    8 1  
    11    6   10 1  
    12   12   15 1  
    13    6    7 1  
    14    2    4 2  
    15    3    6 1  
    16   11   13 2  
    17    1   18 1  
    18    5   19 1  
    19    8   20 1  
    20   10   21 1  
    21   14   22 1  
    22   16   23 1  
# Name:          frag3-253-4/96164
# Creation time: Sat Jun  5 12:53:19 2010


@<TRIPOS>MOLECULE
frag3-253-4/96164
   23    22     1     1     1
SMALL
USER_CHARGES


@<TRIPOS>ATOM
      1 O4          4.6013    4.3654   -5.1076 O.3        1 <1>        0.000
      2 P1          3.7919    3.2643   -5.8899 P.3        1 <1>        0.000
      3 O5          4.4832    1.8720   -5.6854 O.3        1 <1>        0.000
      4 O6          2.4338    3.2235   -5.3800 O.2        1 <1>        0.000
      5 O7          3.8215    3.5976   -7.4195 O.3        1 <1>        0.000
      6 P2          4.2658    0.9622   -4.4507 P.3        1 <1>        0.000
      7 O8          3.0417   -0.0028   -4.5637 O.3        1 <1>        0.000
      8 O15         2.3908    0.2984   -0.3022 O.3        1 <1>        0.000
      9 O9          4.0808    1.8163   -3.2699 O.2        1 <1>        0.000
     10 O10         5.5231    0.0240   -4.2594 O.3        1 <1>        0.000
     11 P3          2.6058   -0.9387   -3.4154 P.3        1 <1>        0.000
     12 O11         3.6438   -0.8883   -2.2049 O.3        1 <1>        0.000
     13 O12         1.3464   -0.5178   -2.8037 O.2        1 <1>        0.000
     14 O13         2.6130   -2.4539   -3.8506 O.3        1 <1>        0.000
     15 P4          3.1613   -1.0225   -0.7253 P.3        1 <1>        0.000
     16 O14         2.0394   -2.1544   -0.7712 O.3        1 <1>        0.000
     17 O16         4.2103   -1.4165    0.1839 O.2        1 <1>        0.000
     18 H           5.5010    4.3969   -5.4409 H.spc      1 <1>        0.000
     19 H           4.7317    3.6168   -7.7241 H.spc      1 <1>        0.000
     20 H           1.7124    0.4941   -0.9527 H.spc      1 <1>        0.000
     21 H           5.6310   -0.5273   -5.0379 H.spc      1 <1>        0.000
     22 H           3.4622   -2.6688   -4.2434 H.spc      1 <1>        0.000
     23 H           1.3434   -1.8891   -1.3768 H.spc      1 <1>        0.000
@<TRIPOS>BOND
     1    7   11 1  
     2   11   12 1  
     3    2    3 1  
     4   15   16 1  
     5    1    2 1  
     6   11   14 1  
     7    6    9 2  
     8   15   17 2  
     9    2    5 1  
    10   15    8 1  
    11    6   10 1  
    12   12   15 1  
    13    6    7 1  
    14    2    4 2  
    15    3    6 1  
    16   11   13 2  
    17    1   18 1  
    18    5   19 1  
    19    8   20 1  
    20   10   21 1  
    21   14   22 1  
    22   16   23 1  
# Name:          frag3-253-4/96164
# Creation time: Sat Jun  5 12:53:19 2010


@<TRIPOS>MOLECULE
frag3-253-4/96164
   23    22     1     1     1
SMALL
USER_CHARGES


@<TRIPOS>ATOM
      1 O4          5.7344    1.1653   -6.0832 O.3        1 <1>        0.000
      2 P1          4.6173    2.0484   -5.4662 P.3        1 <1>        0.000
      3 O5          3.5931    1.2514   -4.5742 O.3        1 <1>        0.000
      4 O6          5.1999    3.1320   -4.7043 O.2        1 <1>        0.000
      5 O7          3.7123    2.6175   -6.6368 O.3        1 <1>        0.000
      6 P2          2.6329    1.9420   -3.5001 P.3        1 <1>        0.000
      7 O8          1.9380    0.8603   -2.6276 O.3        1 <1>        0.000
      8 O15         3.4398   -1.3593   -0.6702 O.3        1 <1>        0.000
      9 O9          1.6888    2.7784   -4.2190 O.2        1 <1>        0.000
     10 O10         3.6104    2.7686   -2.6001 O.3        1 <1>        0.000
     11 P3          1.7967   -0.6444   -3.0372 P.3        1 <1>        0.000
     12 O11         3.2636   -1.2213   -3.1761 O.3        1 <1>        0.000
     13 O12         1.1308   -1.4561   -2.0460 O.2        1 <1>        0.000
     14 O13         1.1571   -0.6630   -4.4697 O.3        1 <1>        0.000
     15 P4          4.2966   -1.1213   -2.0037 P.3        1 <1>        0.000
     16 O14         5.3383   -2.2583   -2.0676 O.3        1 <1>        0.000
     17 O16         4.9040    0.1886   -2.0334 O.2        1 <1>        0.000
     18 H           5.3354    0.4511   -6.5854 H.spc      1 <1>        0.000
     19 H           3.3341    1.8868   -7.1315 H.spc      1 <1>        0.000
     20 H           3.0550   -2.2386   -0.6911 H.spc      1 <1>        0.000
     21 H           4.2109    2.1708   -2.1489 H.spc      1 <1>        0.000
     22 H           1.6671   -0.0972   -5.0540 H.spc      1 <1>        0.000
     23 H           4.8874   -3.1055   -2.0451 H.spc      1 <1>        0.000
@<TRIPOS>BOND
     1    7   11 1  
     2   11   12 1  
     3    2    3 1  
     4   15   16 1  
     5    1    2 1  
     6   11   14 1  
     7    6    9 2  
     8   15   17 2  
     9    2    5 1  
    10   15    8 1  
    11    6   10 1  
    12   12   15 1  
    13    6    7 1  
    14    2    4 2  
    15    3    6 1  
    16   11   13 2  
    17    1   18 1  
    18    5   19 1  
    19    8   20 1  
    20   10   21 1  
    21   14   22 1  
    22   16   23 1  
# Name:          frag3-253-4/96164
# Creation time: Sat Jun  5 12:53:19 2010


@<TRIPOS>MOLECULE
frag3-253-4/96164
   23    22     1     1     1
SMALL
USER_CHARGES


@<TRIPOS>ATOM
      1 O4          3.4801   -0.2575    0.3998 O.3        1 <1>        0.000
      2 P1          2.7415   -0.6816   -0.8985 P.3        1 <1>        0.000
      3 O5          3.6672   -0.7661   -2.1653 O.3        1 <1>        0.000
      4 O6          2.0570   -1.9450   -0.7002 O.2        1 <1>        0.000
      5 O7          1.7008    0.4512   -1.2974 O.3        1 <1>        0.000
      6 P2          3.2107   -1.3483   -3.5756 P.3        1 <1>        0.000
      7 O8          4.0262   -0.7285   -4.7323 O.3        1 <1>        0.000
      8 O15         3.4009    3.6510   -3.6001 O.3        1 <1>        0.000
      9 O9          1.7897   -1.0245   -3.7150 O.2        1 <1>        0.000
     10 O10         3.4582   -2.8841   -3.4689 O.3        1 <1>        0.000
     11 P3          4.3910    0.7615   -4.8263 P.3        1 <1>        0.000
     12 O11         3.2258    1.7162   -5.2544 O.3        1 <1>        0.000
     13 O12         4.7668    1.2246   -3.4709 O.2        1 <1>        0.000
     14 O13         5.5476    1.0123   -5.8686 O.3        1 <1>        0.000
     15 P4          3.3730    3.2679   -5.1451 P.3        1 <1>        0.000
     16 O14         4.8296    3.5903   -5.6806 O.3        1 <1>        0.000
     17 O16         2.3877    3.9895   -5.9157 O.2        1 <1>        0.000
     18 H           3.9277    0.5791    0.2533 H.spc      1 <1>        0.000
     19 H           2.1662    1.2810   -1.4255 H.spc      1 <1>        0.000
     20 H           4.0766    3.1339   -3.1555 H.spc      1 <1>        0.000
     21 H           4.3995   -3.0499   -3.3793 H.spc      1 <1>        0.000
     22 H           5.2705    0.7011   -6.7335 H.spc      1 <1>        0.000
     23 H           5.4749    3.1054   -5.1610 H.spc      1 <1>        0.000
@<TRIPOS>BOND
     1    7   11 1  
     2   11   12 1  
     3    2    3 1  
     4   15   16 1  
     5    1    2 1  
     6   11   14 1  
     7    6    9 2  
     8   15   17 2  
     9    2    5 1  
    10   15    8 1  
    11    6   10 1  
    12   12   15 1  
    13    6    7 1  
    14    2    4 2  
    15    3    6 1  
    16   11   13 2  
    17    1   18 1  
    18    5   19 1  
    19    8   20 1  
    20   10   21 1  
    21   14   22 1  
    22   16   23 1  
# Name:          frag3-253-4/96164
# Creation time: Sat Jun  5 12:53:19 2010


@<TRIPOS>MOLECULE
frag3-253-4/96164
   23    22     1     1     1
SMALL
USER_CHARGES


@<TRIPOS>ATOM
      1 O4          3.9958    0.1290   -0.5712 O.3        1 <1>        0.000
      2 P1          2.5877   -0.2175   -1.2092 P.3        1 <1>        0.000
      3 O5          2.7045   -0.1936   -2.7757 O.3        1 <1>        0.000
      4 O6          2.2070   -1.5473   -0.7685 O.2        1 <1>        0.000
      5 O7          1.5682    0.8631   -0.7330 O.3        1 <1>        0.000
      6 P2          3.2567   -1.3850   -3.6579 P.3        1 <1>        0.000
      7 O8          3.8178   -0.8689   -5.0003 O.3        1 <1>        0.000
      8 O15         4.7856    3.5075   -4.9406 O.3        1 <1>        0.000
      9 O9          2.2536   -2.4221   -3.7575 O.2        1 <1>        0.000
     10 O10         4.5206   -1.8632   -2.8120 O.3        1 <1>        0.000
     11 P3          4.2816    0.5860   -5.2370 P.3        1 <1>        0.000
     12 O11         3.1106    1.6315   -5.1391 O.3        1 <1>        0.000
     13 O12         5.1684    0.9645   -4.1204 O.2        1 <1>        0.000
     14 O13         4.9284    0.8141   -6.6433 O.3        1 <1>        0.000
     15 P4          3.3138    3.0327   -4.4780 P.3        1 <1>        0.000
     16 O14         2.3393    4.0991   -5.0310 O.3        1 <1>        0.000
     17 O16         3.2144    2.8988   -3.0405 O.2        1 <1>        0.000
     18 H           4.2656    1.0067   -0.8514 H.spc      1 <1>        0.000
     19 H           1.8515    1.7268   -1.0418 H.spc      1 <1>        0.000
     20 H           4.8099    3.5841   -5.8972 H.spc      1 <1>        0.000
     21 H           5.1627   -1.1509   -2.7678 H.spc      1 <1>        0.000
     22 H           4.3073    0.5511   -7.3264 H.spc      1 <1>        0.000
     23 H           2.4367    4.1563   -5.9843 H.spc      1 <1>        0.000
@<TRIPOS>BOND
     1    7   11 1  
     2   11   12 1  
     3    2    3 1  
     4   15   16 1  
     5    1    2 1  
     6   11   14 1  
     7    6    9 2  
     8   15   17 2  
     9    2    5 1  
    10   15    8 1  
    11    6   10 1  
    12   12   15 1  
    13    6    7 1  
    14    2    4 2  
    15    3    6 1  
    16   11   13 2  
    17    1   18 1  
    18    5   19 1  
    19    8   20 1  
    20   10   21 1  
    21   14   22 1  
    22   16   23 1  
# Name:          frag3-253-4/96164
# Creation time: Sat Jun  5 12:53:19 2010


@<TRIPOS>MOLECULE
frag3-253-4/96164
   23    22     1     1     1
SMALL
USER_CHARGES


@<TRIPOS>ATOM
      1 O4          1.7014    0.0921   -0.0660 O.3        1 <1>        0.000
      2 P1          2.7427   -0.2996   -1.1438 P.3        1 <1>        0.000
      3 O5          2.0919   -0.8834   -2.4626 O.3        1 <1>        0.000
      4 O6          3.6098    0.8194   -1.4535 O.2        1 <1>        0.000
      5 O7          3.6181   -1.5305   -0.6237 O.3        1 <1>        0.000
      6 P2          2.9239   -1.5090   -3.6438 P.3        1 <1>        0.000
      7 O8          4.2575   -0.6566   -3.7756 O.3        1 <1>        0.000
      8 O15         4.9800    3.9250   -4.3621 O.3        1 <1>        0.000
      9 O9          2.2339   -1.4704   -4.9243 O.2        1 <1>        0.000
     10 O10         3.3447   -2.9576   -3.2246 O.3        1 <1>        0.000
     11 P3          4.3383    0.6657   -4.5594 P.3        1 <1>        0.000
     12 O11         3.5114    1.8571   -3.9504 O.3        1 <1>        0.000
     13 O12         5.6738    1.1735   -4.8068 O.2        1 <1>        0.000
     14 O13         3.5502    0.3977   -5.9485 O.3        1 <1>        0.000
     15 P4          3.5503    3.2767   -4.6000 P.3        1 <1>        0.000
     16 O14         3.4801    3.0125   -6.1699 O.3        1 <1>        0.000
     17 O16         2.4459    4.1162   -4.2004 O.2        1 <1>        0.000
     18 H           1.1390   -0.6625    0.1232 H.spc      1 <1>        0.000
     19 H           3.0400   -2.2693   -0.4198 H.spc      1 <1>        0.000
     20 H           5.6601    3.3117   -4.6501 H.spc      1 <1>        0.000
     21 H           3.7939   -2.9264   -2.3767 H.spc      1 <1>        0.000
     22 H           2.6711    0.0629   -5.7569 H.spc      1 <1>        0.000
     23 H           4.2156    2.4542   -6.4325 H.spc      1 <1>        0.000
@<TRIPOS>BOND
     1    7   11 1  
     2   11   12 1  
     3    2    3 1  
     4   15   16 1  
     5    1    2 1  
     6   11   14 1  
     7    6    9 2  
     8   15   17 2  
     9    2    5 1  
    10   15    8 1  
    11    6   10 1  
    12   12   15 1  
    13    6    7 1  
    14    2    4 2  
    15    3    6 1  
    16   11   13 2  
    17    1   18 1  
    18    5   19 1  
    19    8   20 1  
    20   10   21 1  
    21   14   22 1  
    22   16   23 1  
# Name:          frag3-253-4/96164
# Creation time: Sat Jun  5 12:53:19 2010


@<TRIPOS>MOLECULE
frag3-253-4/96164
   23    22     1     1     1
SMALL
USER_CHARGES


@<TRIPOS>ATOM
      1 O4          4.0258    3.6850   -5.5401 O.3        1 <1>        0.000
      2 P1          3.5795    2.8885   -4.2586 P.3        1 <1>        0.000
      3 O5          2.7636    1.6365   -4.7432 O.3        1 <1>        0.000
      4 O6          4.7578    2.4695   -3.5248 O.2        1 <1>        0.000
      5 O7          2.6419    3.7847   -3.3915 O.3        1 <1>        0.000
      6 P2          3.3242    0.4664   -5.6594 P.3        1 <1>        0.000
      7 O8          4.4494   -0.2308   -4.8124 O.3        1 <1>        0.000
      8 O15         3.6675    0.0993   -0.1954 O.3        1 <1>        0.000
      9 O9          3.7793    1.0298   -6.9034 O.2        1 <1>        0.000
     10 O10         2.2266   -0.6327   -5.8284 O.3        1 <1>        0.000
     11 P3          4.2533   -0.7261   -3.3553 P.3        1 <1>        0.000
     12 O11         3.0258    0.0161   -2.6576 O.3        1 <1>        0.000
     13 O12         3.8877   -2.1277   -3.3173 O.2        1 <1>        0.000
     14 O13         5.4631   -0.3340   -2.4343 O.3        1 <1>        0.000
     15 P4          2.5558   -0.4126   -1.2194 P.3        1 <1>        0.000
     16 O14         1.2214    0.2653   -0.8354 O.3        1 <1>        0.000
     17 O16         2.4314   -1.8484   -1.2388 O.2        1 <1>        0.000
     18 H           3.2482    3.9643   -6.0289 H.spc      1 <1>        0.000
     19 H           1.8760    4.0407   -3.9106 H.spc      1 <1>        0.000
     20 H           3.7086    1.0580   -0.2224 H.spc      1 <1>        0.000
     21 H           1.9705   -0.9632   -4.9642 H.spc      1 <1>        0.000
     22 H           5.6372    0.6062   -2.5196 H.spc      1 <1>        0.000
     23 H           1.3374    1.2183   -0.8315 H.spc      1 <1>        0.000
@<TRIPOS>BOND
     1    7   11 1  
     2   11   12 1  
     3    2    3 1  
     4   15   16 1  
     5    1    2 1  
     6   11   14 1  
     7    6    9 2  
     8   15   17 2  
     9    2    5 1  
    10   15    8 1  
    11    6   10 1  
    12   12   15 1  
    13    6    7 1  
    14    2    4 2  
    15    3    6 1  
    16   11   13 2  
    17    1   18 1  
    18    5   19 1  
    19    8   20 1  
    20   10   21 1  
    21   14   22 1  
    22   16   23 1  
# Name:          frag3-253-4/96164
# Creation time: Sat Jun  5 12:53:19 2010


@<TRIPOS>MOLECULE
frag3-253-4/96164
   23    22     1     1     1
SMALL
USER_CHARGES


@<TRIPOS>ATOM
      1 O4          2.8304    3.8512   -5.9285 O.3        1 <1>        0.000
      2 P1          3.3273    2.8442   -4.8505 P.3        1 <1>        0.000
      3 O5          3.9847    1.5584   -5.4422 O.3        1 <1>        0.000
      4 O6          4.2573    3.5005   -3.9566 O.2        1 <1>        0.000
      5 O7          2.0474    2.3598   -4.0432 O.3        1 <1>        0.000
      6 P2          5.0031    0.6411   -4.6562 P.3        1 <1>        0.000
      7 O8          4.2282    0.0202   -3.4427 O.3        1 <1>        0.000
      8 O15         2.2361    1.0801   -1.6411 O.3        1 <1>        0.000
      9 O9          6.1687    1.4175   -4.3121 O.2        1 <1>        0.000
     10 O10         5.3504   -0.5876   -5.5790 O.3        1 <1>        0.000
     11 P3          3.0423   -1.0221   -3.6027 P.3        1 <1>        0.000
     12 O11         2.3855   -1.3669   -2.2552 O.3        1 <1>        0.000
     13 O12         2.0543   -0.3978   -4.4782 O.2        1 <1>        0.000
     14 O13         3.6832   -2.3259   -4.2117 O.3        1 <1>        0.000
     15 P4          2.4529   -0.3902   -1.0472 P.3        1 <1>        0.000
     16 O14         1.2725   -0.6181   -0.0733 O.3        1 <1>        0.000
     17 O16         3.7296   -0.5357   -0.3948 O.2        1 <1>        0.000
     18 H           2.2144    3.4095   -6.5176 H.spc      1 <1>        0.000
     19 H           1.4368    1.9261   -4.6438 H.spc      1 <1>        0.000
     20 H           1.3759    1.1294   -2.0644 H.spc      1 <1>        0.000
     21 H           4.5466   -1.0722   -5.7806 H.spc      1 <1>        0.000
     22 H           4.3210   -2.6872   -3.5918 H.spc      1 <1>        0.000
     23 H           0.4438   -0.5123   -0.5463 H.spc      1 <1>        0.000
@<TRIPOS>BOND
     1    7   11 1  
     2   11   12 1  
     3    2    3 1  
     4   15   16 1  
     5    1    2 1  
     6   11   14 1  
     7    6    9 2  
     8   15   17 2  
     9    2    5 1  
    10   15    8 1  
    11    6   10 1  
    12   12   15 1  
    13    6    7 1  
    14    2    4 2  
    15    3    6 1  
    16   11   13 2  
    17    1   18 1  
    18    5   19 1  
    19    8   20 1  
    20   10   21 1  
    21   14   22 1  
    22   16   23 1  
# Name:          frag3-253-4/96164
# Creation time: Sat Jun  5 12:53:19 2010


@<TRIPOS>MOLECULE
frag3-253-4/96164
   23    22     1     1     1
SMALL
USER_CHARGES


@<TRIPOS>ATOM
      1 O4          2.7152    3.4533   -6.1813 O.3        1 <1>        0.000
      2 P1          3.7761    2.3091   -6.4264 P.3        1 <1>        0.000
      3 O5          4.6776    2.2102   -5.1438 O.3        1 <1>        0.000
      4 O6          3.0789    1.0685   -6.6586 O.2        1 <1>        0.000
      5 O7          4.6866    2.7105   -7.6305 O.3        1 <1>        0.000
      6 P2          4.1966    1.7972   -3.7290 P.3        1 <1>        0.000
      7 O8          3.5036    0.3872   -3.7353 O.3        1 <1>        0.000
      8 O15         4.0799   -1.7928    0.3708 O.3        1 <1>        0.000
      9 O9          3.1850    2.7648   -3.2764 O.2        1 <1>        0.000
     10 O10         5.3940    1.7289   -2.7328 O.3        1 <1>        0.000
     11 P3          2.2803    0.0367   -2.8185 P.3        1 <1>        0.000
     12 O11         2.7986   -0.3023   -1.3699 O.3        1 <1>        0.000
     13 O12         1.3829    1.1559   -2.7996 O.2        1 <1>        0.000
     14 O13         1.6051   -1.3264   -3.2569 O.3        1 <1>        0.000
     15 P4          3.5796   -1.6305   -1.0901 P.3        1 <1>        0.000
     16 O14         2.5149   -2.7973   -1.3283 O.3        1 <1>        0.000
     17 O16         4.5990   -1.7441   -2.1086 O.2        1 <1>        0.000
     18 H           3.1717    4.2834   -6.0258 H.spc      1 <1>        0.000
     19 H           5.1295    3.5390   -7.4331 H.spc      1 <1>        0.000
     20 H           3.3383   -1.7027    0.9737 H.spc      1 <1>        0.000
     21 H           6.0377    1.0918   -3.0512 H.spc      1 <1>        0.000
     22 H           2.2625   -2.0259   -3.2460 H.spc      1 <1>        0.000
     23 H           1.8263   -2.7416   -0.6617 H.spc      1 <1>        0.000
@<TRIPOS>BOND
     1    7   11 1  
     2   11   12 1  
     3    2    3 1  
     4   15   16 1  
     5    1    2 1  
     6   11   14 1  
     7    6    9 2  
     8   15   17 2  
     9    2    5 1  
    10   15    8 1  
    11    6   10 1  
    12   12   15 1  
    13    6    7 1  
    14    2    4 2  
    15    3    6 1  
    16   11   13 2  
    17    1   18 1  
    18    5   19 1  
    19    8   20 1  
    20   10   21 1  
    21   14   22 1  
    22   16   23 1  
# Name:          frag3-253-4/96164
# Creation time: Sat Jun  5 12:53:19 2010


@<TRIPOS>MOLECULE
frag3-253-4/96164
   23    22     1     1     1
SMALL
USER_CHARGES


@<TRIPOS>ATOM
      1 O4          2.7104    0.8420   -0.5075 O.3        1 <1>        0.000
      2 P1          2.8510   -0.7205   -0.6483 P.3        1 <1>        0.000
      3 O5          2.0323   -1.1874   -1.9112 O.3        1 <1>        0.000
      4 O6          4.2557   -1.0488   -0.8216 O.2        1 <1>        0.000
      5 O7          2.2430   -1.4239    0.6033 O.3        1 <1>        0.000
      6 P2          2.5028   -1.0359   -3.3765 P.3        1 <1>        0.000
      7 O8          3.2386    0.3438   -3.6071 O.3        1 <1>        0.000
      8 O15         4.9076    4.5551   -4.4741 O.3        1 <1>        0.000
      9 O9          1.5021   -1.2388   -4.3951 O.2        1 <1>        0.000
     10 O10         3.6947   -2.0958   -3.5171 O.3        1 <1>        0.000
     11 P3          4.1089    0.6354   -4.8791 P.3        1 <1>        0.000
     12 O11         4.8970    1.9638   -4.8440 O.3        1 <1>        0.000
     13 O12         4.9587   -0.5019   -5.1408 O.2        1 <1>        0.000
     14 O13         3.0685    0.9037   -6.0828 O.3        1 <1>        0.000
     15 P4          4.1683    3.3238   -5.0777 P.3        1 <1>        0.000
     16 O14         4.1082    3.5666   -6.6404 O.3        1 <1>        0.000
     17 O16         2.8063    3.1478   -4.5952 O.2        1 <1>        0.000
     18 H           1.7850    1.0698   -0.3924 H.spc      1 <1>        0.000
     19 H           1.3170   -1.1843    0.6853 H.spc      1 <1>        0.000
     20 H           5.7946    4.6044   -4.8381 H.spc      1 <1>        0.000
     21 H           4.3447   -1.9380   -2.8284 H.spc      1 <1>        0.000
     22 H           2.5243    1.6654   -5.8700 H.spc      1 <1>        0.000
     23 H           4.9986    3.6853   -6.9791 H.spc      1 <1>        0.000
@<TRIPOS>BOND
     1    7   11 1  
     2   11   12 1  
     3    2    3 1  
     4   15   16 1  
     5    1    2 1  
     6   11   14 1  
     7    6    9 2  
     8   15   17 2  
     9    2    5 1  
    10   15    8 1  
    11    6   10 1  
    12   12   15 1  
    13    6    7 1  
    14    2    4 2  
    15    3    6 1  
    16   11   13 2  
    17    1   18 1  
    18    5   19 1  
    19    8   20 1  
    20   10   21 1  
    21   14   22 1  
    22   16   23 1  
# Name:          frag3-253-4/96164
# Creation time: Sat Jun  5 12:53:19 2010


@<TRIPOS>MOLECULE
frag3-253-4/96164
   23    22     1     1     1
SMALL
USER_CHARGES


@<TRIPOS>ATOM
      1 O4          3.3751    1.0037   -1.1526 O.3        1 <1>        0.000
      2 P1          2.7601   -0.4452   -1.0602 P.3        1 <1>        0.000
      3 O5          2.1164   -0.8177   -2.4537 O.3        1 <1>        0.000
      4 O6          3.8244   -1.3840   -0.7534 O.2        1 <1>        0.000
      5 O7          1.6344   -0.4685    0.0164 O.3        1 <1>        0.000
      6 P2          2.9032   -1.4550   -3.6527 P.3        1 <1>        0.000
      7 O8          4.2526   -0.6328   -3.8022 O.3        1 <1>        0.000
      8 O15         2.5594    4.3032   -4.1136 O.3        1 <1>        0.000
      9 O9          2.1969   -1.3954   -4.9161 O.2        1 <1>        0.000
     10 O10         3.2730   -2.9064   -3.2170 O.3        1 <1>        0.000
     11 P3          4.3801    0.6683   -4.6114 P.3        1 <1>        0.000
     12 O11         3.4912    1.8510   -4.0486 O.3        1 <1>        0.000
     13 O12         5.7121    1.1952   -4.7474 O.2        1 <1>        0.000
     14 O13         3.6713    0.3881   -6.0255 O.3        1 <1>        0.000
     15 P4          3.5440    3.2599   -4.7432 P.3        1 <1>        0.000
     16 O14         4.9987    3.8158   -4.4738 O.3        1 <1>        0.000
     17 O16         3.3611    3.0487   -6.1602 O.2        1 <1>        0.000
     18 H           2.6792    1.6332   -1.3553 H.spc      1 <1>        0.000
     19 H           0.9522    0.1635   -0.2219 H.spc      1 <1>        0.000
     20 H           2.7422    4.3882   -3.1750 H.spc      1 <1>        0.000
     21 H           3.7367   -2.8788   -2.3769 H.spc      1 <1>        0.000
     22 H           2.7894    0.0392   -5.8766 H.spc      1 <1>        0.000
     23 H           5.1174    3.9552   -3.5314 H.spc      1 <1>        0.000
@<TRIPOS>BOND
     1    7   11 1  
     2   11   12 1  
     3    2    3 1  
     4   15   16 1  
     5    1    2 1  
     6   11   14 1  
     7    6    9 2  
     8   15   17 2  
     9    2    5 1  
    10   15    8 1  
    11    6   10 1  
    12   12   15 1  
    13    6    7 1  
    14    2    4 2  
    15    3    6 1  
    16   11   13 2  
    17    1   18 1  
    18    5   19 1  
    19    8   20 1  
    20   10   21 1  
    21   14   22 1  
    22   16   23 1  
# Name:          frag3-253-4/96164
# Creation time: Sat Jun  5 12:53:19 2010


@<TRIPOS>MOLECULE
frag3-253-4/96164
   23    22     1     1     1
SMALL
USER_CHARGES


@<TRIPOS>ATOM
      1 O4          4.4042   -0.7818   -0.4543 O.3        1 <1>        0.000
      2 P1          3.4483   -2.0263   -0.7148 P.3        1 <1>        0.000
      3 O5          2.9761   -1.9487   -2.2026 O.3        1 <1>        0.000
      4 O6          4.1206   -3.2384   -0.3091 O.2        1 <1>        0.000
      5 O7          2.1226   -1.7908    0.1239 O.3        1 <1>        0.000
      6 P2          2.5438   -0.6288   -2.9278 P.3        1 <1>        0.000
      7 O8          3.7540    0.2319   -3.4363 O.3        1 <1>        0.000
      8 O15         3.8602    2.2955   -7.4632 O.3        1 <1>        0.000
      9 O9          1.7496    0.1855   -1.9838 O.2        1 <1>        0.000
     10 O10         1.6943   -0.9908   -4.1978 O.3        1 <1>        0.000
     11 P3          3.5567    1.5360   -4.2467 P.3        1 <1>        0.000
     12 O11         4.7425    2.1262   -5.0531 O.3        1 <1>        0.000
     13 O12         2.4807    1.3122   -5.2406 O.2        1 <1>        0.000
     14 O13         3.1368    2.6874   -3.2161 O.3        1 <1>        0.000
     15 P4          4.4851    3.1055   -6.2448 P.3        1 <1>        0.000
     16 O14         3.3238    4.0765   -5.7548 O.3        1 <1>        0.000
     17 O16         5.6548    3.8779   -6.5935 O.2        1 <1>        0.000
     18 H           3.9584    0.0246   -0.7236 H.spc      1 <1>        0.000
     19 H           1.7001   -0.9799   -0.1685 H.spc      1 <1>        0.000
     20 H           3.0905    1.8079   -7.1607 H.spc      1 <1>        0.000
     21 H           2.2265   -1.5187   -4.7976 H.spc      1 <1>        0.000
     22 H           3.8437    2.8195   -2.5802 H.spc      1 <1>        0.000
     23 H           2.5498    3.5572   -5.5247 H.spc      1 <1>        0.000
@<TRIPOS>BOND
     1    7   11 1  
     2   11   12 1  
     3    2    3 1  
     4   15   16 1  
     5    1    2 1  
     6   11   14 1  
     7    6    9 2  
     8   15   17 2  
     9    2    5 1  
    10   15    8 1  
    11    6   10 1  
    12   12   15 1  
    13    6    7 1  
    14    2    4 2  
    15    3    6 1  
    16   11   13 2  
    17    1   18 1  
    18    5   19 1  
    19    8   20 1  
    20   10   21 1  
    21   14   22 1  
    22   16   23 1  
# Name:          frag3-253-4/96164
# Creation time: Sat Jun  5 12:53:19 2010


@<TRIPOS>MOLECULE
frag3-253-4/96164
   23    22     1     1     1
SMALL
USER_CHARGES


@<TRIPOS>ATOM
      1 O4          3.8830    0.2316   -0.5706 O.3        1 <1>        0.000
      2 P1          3.6147   -1.3286   -0.6771 P.3        1 <1>        0.000
      3 O5          3.4152   -1.6563   -2.1928 O.3        1 <1>        0.000
      4 O6          4.6637   -2.0468    0.0076 O.2        1 <1>        0.000
      5 O7          2.1947   -1.6249   -0.0398 O.3        1 <1>        0.000
      6 P2          2.5918   -0.7879   -3.1954 P.3        1 <1>        0.000
      7 O8          3.4063    0.3658   -3.8851 O.3        1 <1>        0.000
      8 O15         5.6318    1.6492   -5.1661 O.3        1 <1>        0.000
      9 O9          1.4753   -0.1616   -2.4419 O.2        1 <1>        0.000
     10 O10         2.0403   -1.6859   -4.3547 O.3        1 <1>        0.000
     11 P3          2.7163    1.4291   -4.8317 P.3        1 <1>        0.000
     12 O11         3.4093    2.8171   -4.7918 O.3        1 <1>        0.000
     13 O12         2.7944    0.9549   -6.2150 O.2        1 <1>        0.000
     14 O13         1.2437    1.5678   -4.2936 O.3        1 <1>        0.000
     15 P4          4.8214    3.0169   -5.4095 P.3        1 <1>        0.000
     16 O14         4.6484    3.1126   -6.9689 O.3        1 <1>        0.000
     17 O16         5.5036    4.1761   -4.8887 O.2        1 <1>        0.000
     18 H           3.1846    0.7071   -1.0264 H.spc      1 <1>        0.000
     19 H           1.5222   -1.1334   -0.5170 H.spc      1 <1>        0.000
     20 H           5.1337    0.9142   -5.5311 H.spc      1 <1>        0.000
     21 H           2.7753   -2.0812   -4.8291 H.spc      1 <1>        0.000
     22 H           1.2639    1.8811   -3.3864 H.spc      1 <1>        0.000
     23 H           4.1926    2.3302   -7.2878 H.spc      1 <1>        0.000
@<TRIPOS>BOND
     1    7   11 1  
     2   11   12 1  
     3    2    3 1  
     4   15   16 1  
     5    1    2 1  
     6   11   14 1  
     7    6    9 2  
     8   15   17 2  
     9    2    5 1  
    10   15    8 1  
    11    6   10 1  
    12   12   15 1  
    13    6    7 1  
    14    2    4 2  
    15    3    6 1  
    16   11   13 2  
    17    1   18 1  
    18    5   19 1  
    19    8   20 1  
    20   10   21 1  
    21   14   22 1  
    22   16   23 1  
# Name:          frag3-253-4/96164
# Creation time: Sat Jun  5 12:53:19 2010


@<TRIPOS>MOLECULE
frag3-253-4/96164
   23    22     1     1     1
SMALL
USER_CHARGES


@<TRIPOS>ATOM
      1 O4          3.8855   -0.4557    0.0561 O.3        1 <1>        0.000
      2 P1          3.3574   -1.8684   -0.4478 P.3        1 <1>        0.000
      3 O5          3.4341   -1.8772   -2.0113 O.3        1 <1>        0.000
      4 O6          4.0667   -2.9186    0.2409 O.2        1 <1>        0.000
      5 O7          1.7976   -1.9279   -0.1364 O.3        1 <1>        0.000
      6 P2          2.8949   -0.7297   -2.9212 P.3        1 <1>        0.000
      7 O8          3.9402   -0.0244   -3.8401 O.3        1 <1>        0.000
      8 O15         4.3263    2.7876   -7.4641 O.3        1 <1>        0.000
      9 O9          2.2702    0.2942   -2.0364 O.2        1 <1>        0.000
     10 O10         1.8009   -1.3077   -3.9081 O.3        1 <1>        0.000
     11 P3          3.5814    1.1660   -4.7521 P.3        1 <1>        0.000
     12 O11         4.6311    2.2949   -4.9699 O.3        1 <1>        0.000
     13 O12         3.1550    0.7247   -6.0850 O.2        1 <1>        0.000
     14 O13         2.3653    1.9555   -4.0219 O.3        1 <1>        0.000
     15 P4          4.3645    3.4393   -6.0131 P.3        1 <1>        0.000
     16 O14         2.8867    3.9448   -5.7218 O.3        1 <1>        0.000
     17 O16         5.2963    4.5315   -5.8831 O.2        1 <1>        0.000
     18 H           3.4134    0.2432   -0.4023 H.spc      1 <1>        0.000
     19 H           1.3514   -1.2196   -0.6063 H.spc      1 <1>        0.000
     20 H           3.6872    2.0713   -7.4752 H.spc      1 <1>        0.000
     21 H           2.2025   -1.9673   -4.4784 H.spc      1 <1>        0.000
     22 H           2.6488    2.2421   -3.1507 H.spc      1 <1>        0.000
     23 H           2.2750    3.2103   -5.8110 H.spc      1 <1>        0.000
@<TRIPOS>BOND
     1    7   11 1  
     2   11   12 1  
     3    2    3 1  
     4   15   16 1  
     5    1    2 1  
     6   11   14 1  
     7    6    9 2  
     8   15   17 2  
     9    2    5 1  
    10   15    8 1  
    11    6   10 1  
    12   12   15 1  
    13    6    7 1  
    14    2    4 2  
    15    3    6 1  
    16   11   13 2  
    17    1   18 1  
    18    5   19 1  
    19    8   20 1  
    20   10   21 1  
    21   14   22 1  
    22   16   23 1  
# Name:          frag3-253-4/96164
# Creation time: Sat Jun  5 12:53:19 2010


@<TRIPOS>MOLECULE
frag3-253-4/96164
   23    22     1     1     1
SMALL
USER_CHARGES


@<TRIPOS>ATOM
      1 O4          5.0044    3.4946   -6.8627 O.3        1 <1>        0.000
      2 P1          4.6364    2.5218   -5.7134 P.3        1 <1>        0.000
      3 O5          3.1031    2.4171   -5.4253 O.3        1 <1>        0.000
      4 O6          5.2151    1.2135   -5.9445 O.2        1 <1>        0.000
      5 O7          5.2075    3.1281   -4.3456 O.3        1 <1>        0.000
      6 P2          2.4905    1.6400   -4.2302 P.3        1 <1>        0.000
      7 O8          3.2121    0.2463   -4.0298 O.3        1 <1>        0.000
      8 O15         2.6099   -0.5652   -0.2222 O.3        1 <1>        0.000
      9 O9          1.0652    1.3861   -4.3265 O.2        1 <1>        0.000
     10 O10         2.8502    2.4656   -2.9223 O.3        1 <1>        0.000
     11 P3          2.5108   -1.0202   -3.4276 P.3        1 <1>        0.000
     12 O11         3.3744   -1.7257   -2.3493 O.3        1 <1>        0.000
     13 O12         1.3361   -0.5104   -2.7083 O.2        1 <1>        0.000
     14 O13         2.1622   -2.0263   -4.5649 O.3        1 <1>        0.000
     15 P4          3.8857   -0.9635   -1.0885 P.3        1 <1>        0.000
     16 O14         4.7696   -1.8689   -0.1950 O.3        1 <1>        0.000
     17 O16         4.6206    0.1960   -1.5591 O.2        1 <1>        0.000
     18 H           4.6123    4.3539   -6.6910 H.spc      1 <1>        0.000
     19 H           4.8223    3.9945   -4.1955 H.spc      1 <1>        0.000
     20 H           2.1583   -1.3620    0.0653 H.spc      1 <1>        0.000
     21 H           3.7979    2.6154   -2.8903 H.spc      1 <1>        0.000
     22 H           2.9712   -2.3183   -4.9913 H.spc      1 <1>        0.000
     23 H           4.2564   -2.6248    0.0995 H.spc      1 <1>        0.000
@<TRIPOS>BOND
     1    7   11 1  
     2   11   12 1  
     3    2    3 1  
     4   15   16 1  
     5    1    2 1  
     6   11   14 1  
     7    6    9 2  
     8   15   17 2  
     9    2    5 1  
    10   15    8 1  
    11    6   10 1  
    12   12   15 1  
    13    6    7 1  
    14    2    4 2  
    15    3    6 1  
    16   11   13 2  
    17    1   18 1  
    18    5   19 1  
    19    8   20 1  
    20   10   21 1  
    21   14   22 1  
    22   16   23 1  
# Name:          frag3-253-4/96164
# Creation time: Sat Jun  5 12:53:19 2010


@<TRIPOS>MOLECULE
frag3-253-4/96164
   23    22     1     1     1
SMALL
USER_CHARGES


@<TRIPOS>ATOM
      1 O4          2.9796   -0.9022    0.7396 O.3        1 <1>        0.000
      2 P1          2.5478   -1.1581   -0.7330 P.3        1 <1>        0.000
      3 O5          3.5684   -0.6453   -1.8002 O.3        1 <1>        0.000
      4 O6          2.2578   -2.5663   -0.9245 O.2        1 <1>        0.000
      5 O7          1.2322   -0.2989   -0.9835 O.3        1 <1>        0.000
      6 P2          3.3700   -0.8176   -3.3515 P.3        1 <1>        0.000
      7 O8          4.5854   -0.3983   -4.2053 O.3        1 <1>        0.000
      8 O15         2.3062    3.3531   -6.8144 O.3        1 <1>        0.000
      9 O9          2.2023   -0.0222   -3.7696 O.2        1 <1>        0.000
     10 O10         3.0861   -2.3552   -3.5226 O.3        1 <1>        0.000
     11 P3          4.8885    1.0538   -4.6273 P.3        1 <1>        0.000
     12 O11         3.9356    1.5881   -5.7555 O.3        1 <1>        0.000
     13 O12         4.5663    1.9033   -3.4644 O.2        1 <1>        0.000
     14 O13         6.3401    1.2596   -5.1564 O.3        1 <1>        0.000
     15 P4          3.3194    3.0214   -5.6664 P.3        1 <1>        0.000
     16 O14         2.4571    3.0477   -4.3355 O.3        1 <1>        0.000
     17 O16         4.4112    3.9660   -5.5447 O.2        1 <1>        0.000
     18 H           3.1697    0.0312    0.8585 H.spc      1 <1>        0.000
     19 H           1.4299    0.6317   -0.8554 H.spc      1 <1>        0.000
     20 H           1.6154    2.6867   -6.8325 H.spc      1 <1>        0.000
     21 H           3.8576   -2.8547   -3.2453 H.spc      1 <1>        0.000
     22 H           6.4899    0.6830   -5.9092 H.spc      1 <1>        0.000
     23 H           1.7325    2.4227   -4.4126 H.spc      1 <1>        0.000
@<TRIPOS>BOND
     1    7   11 1  
     2   11   12 1  
     3    2    3 1  
     4   15   16 1  
     5    1    2 1  
     6   11   14 1  
     7    6    9 2  
     8   15   17 2  
     9    2    5 1  
    10   15    8 1  
    11    6   10 1  
    12   12   15 1  
    13    6    7 1  
    14    2    4 2  
    15    3    6 1  
    16   11   13 2  
    17    1   18 1  
    18    5   19 1  
    19    8   20 1  
    20   10   21 1  
    21   14   22 1  
    22   16   23 1  
# Name:          frag3-253-4/96164
# Creation time: Sat Jun  5 12:53:19 2010


@<TRIPOS>MOLECULE
frag3-253-4/96164
   23    22     1     1     1
SMALL
USER_CHARGES


@<TRIPOS>ATOM
      1 O4          2.8522   -0.4721    0.5477 O.3        1 <1>        0.000
      2 P1          3.3616   -0.7961   -0.8811 P.3        1 <1>        0.000
      3 O5          2.2171   -1.0132   -1.9449 O.3        1 <1>        0.000
      4 O6          4.3020    0.2166   -1.3285 O.2        1 <1>        0.000
      5 O7          4.0937   -2.2240   -0.8484 O.3        1 <1>        0.000
      6 P2          2.5006   -1.3797   -3.4600 P.3        1 <1>        0.000
      7 O8          3.6842   -0.4601   -3.9600 O.3        1 <1>        0.000
      8 O15         4.0731    3.1699   -6.8444 O.3        1 <1>        0.000
      9 O9          1.3515   -1.1899   -4.3238 O.2        1 <1>        0.000
     10 O10         2.9941   -2.8726   -3.4372 O.3        1 <1>        0.000
     11 P3          3.4618    0.9636   -4.5055 P.3        1 <1>        0.000
     12 O11         4.6609    1.9290   -4.6836 O.3        1 <1>        0.000
     13 O12         2.7776    0.9023   -5.8063 O.2        1 <1>        0.000
     14 O13         2.5272    1.7265   -3.4225 O.3        1 <1>        0.000
     15 P4          4.4602    3.3472   -5.3027 P.3        1 <1>        0.000
     16 O14         3.1557    3.9565   -4.6266 O.3        1 <1>        0.000
     17 O16         5.5804    4.2250   -5.0875 O.2        1 <1>        0.000
     18 H           2.2329   -1.1504    0.8269 H.spc      1 <1>        0.000
     19 H           3.4729   -2.8939   -0.5528 H.spc      1 <1>        0.000
     20 H           3.3226    2.5758   -6.9185 H.spc      1 <1>        0.000
     21 H           3.7532   -2.9487   -2.8544 H.spc      1 <1>        0.000
     22 H           2.9817    1.7615   -2.5776 H.spc      1 <1>        0.000
     23 H           2.4140    3.3653   -4.7747 H.spc      1 <1>        0.000
@<TRIPOS>BOND
     1    7   11 1  
     2   11   12 1  
     3    2    3 1  
     4   15   16 1  
     5    1    2 1  
     6   11   14 1  
     7    6    9 2  
     8   15   17 2  
     9    2    5 1  
    10   15    8 1  
    11    6   10 1  
    12   12   15 1  
    13    6    7 1  
    14    2    4 2  
    15    3    6 1  
    16   11   13 2  
    17    1   18 1  
    18    5   19 1  
    19    8   20 1  
    20   10   21 1  
    21   14   22 1  
    22   16   23 1  
# Name:          frag3-253-4/96164
# Creation time: Sat Jun  5 12:53:19 2010


@<TRIPOS>MOLECULE
frag3-253-4/96164
   23    22     1     1     1
SMALL
USER_CHARGES


@<TRIPOS>ATOM
      1 O4          3.8711    2.7920   -3.0197 O.3        1 <1>        0.000
      2 P1          3.2897    2.8397   -4.4875 P.3        1 <1>        0.000
      3 O5          3.4973    1.4147   -5.0984 O.3        1 <1>        0.000
      4 O6          1.9378    3.3527   -4.4562 O.2        1 <1>        0.000
      5 O7          4.2443    3.7517   -5.3594 O.3        1 <1>        0.000
      6 P2          4.8147    0.5304   -4.9320 P.3        1 <1>        0.000
      7 O8          4.6376   -0.3699   -3.6613 O.3        1 <1>        0.000
      8 O15         0.9833    0.2947   -1.9829 O.3        1 <1>        0.000
      9 O9          5.9456    1.4452   -4.8622 O.2        1 <1>        0.000
     10 O10         4.9071   -0.4507   -6.1493 O.3        1 <1>        0.000
     11 P3          3.3740   -1.2911   -3.4394 P.3        1 <1>        0.000
     12 O11         2.9167   -1.3584   -1.9643 O.3        1 <1>        0.000
     13 O12         2.2737   -0.6396   -4.1705 O.2        1 <1>        0.000
     14 O13         3.6875   -2.7267   -3.9769 O.3        1 <1>        0.000
     15 P4          2.3394   -0.0945   -1.2451 P.3        1 <1>        0.000
     16 O14         1.9855   -0.4032    0.2310 O.3        1 <1>        0.000
     17 O16         3.3486    0.9417   -1.3410 O.2        1 <1>        0.000
     18 H           4.7683    2.4513   -3.0430 H.spc      1 <1>        0.000
     19 H           5.1297    3.3808   -5.3566 H.spc      1 <1>        0.000
     20 H           0.3521   -0.4226   -1.8893 H.spc      1 <1>        0.000
     21 H           4.1417   -1.0302   -6.1506 H.spc      1 <1>        0.000
     22 H           4.4086   -3.1067   -3.4697 H.spc      1 <1>        0.000
     23 H           1.3167   -1.0912    0.2614 H.spc      1 <1>        0.000
@<TRIPOS>BOND
     1    7   11 1  
     2   11   12 1  
     3    2    3 1  
     4   15   16 1  
     5    1    2 1  
     6   11   14 1  
     7    6    9 2  
     8   15   17 2  
     9    2    5 1  
    10   15    8 1  
    11    6   10 1  
    12   12   15 1  
    13    6    7 1  
    14    2    4 2  
    15    3    6 1  
    16   11   13 2  
    17    1   18 1  
    18    5   19 1  
    19    8   20 1  
    20   10   21 1  
    21   14   22 1  
    22   16   23 1  
# Name:          frag3-253-4/96164
# Creation time: Sat Jun  5 12:53:19 2010


@<TRIPOS>MOLECULE
frag3-253-4/96164
   23    22     1     1     1
SMALL
USER_CHARGES


@<TRIPOS>ATOM
      1 O4          1.2656   -1.3955   -0.5495 O.3        1 <1>        0.000
      2 P1          2.7931   -0.9751   -0.6246 P.3        1 <1>        0.000
      3 O5          3.0692   -0.3665   -2.0339 O.3        1 <1>        0.000
      4 O6          3.1331   -0.1775    0.5262 O.2        1 <1>        0.000
      5 O7          3.6228   -2.3427   -0.6256 O.3        1 <1>        0.000
      6 P2          3.0297   -1.2023   -3.3879 P.3        1 <1>        0.000
      7 O8          2.8402   -0.2955   -4.6284 O.3        1 <1>        0.000
      8 O15         3.7464    4.2184   -4.1058 O.3        1 <1>        0.000
      9 O9          2.0375   -2.2586   -3.2342 O.2        1 <1>        0.000
     10 O10         4.4883   -1.8261   -3.5564 O.3        1 <1>        0.000
     11 P3          3.6748    0.9861   -4.8453 P.3        1 <1>        0.000
     12 O11         3.0186    2.2150   -5.5264 O.3        1 <1>        0.000
     13 O12         4.1382    1.4644   -3.5210 O.2        1 <1>        0.000
     14 O13         4.9378    0.6485   -5.7723 O.3        1 <1>        0.000
     15 P4          3.7526    3.5947   -5.5705 P.3        1 <1>        0.000
     16 O14         5.2785    3.2661   -5.8749 O.3        1 <1>        0.000
     17 O16         3.2274    4.4754   -6.5848 O.2        1 <1>        0.000
     18 H           1.0429   -1.9266   -1.3176 H.spc      1 <1>        0.000
     19 H           3.3837   -2.8602   -1.3980 H.spc      1 <1>        0.000
     20 H           4.1076    3.5804   -3.4860 H.spc      1 <1>        0.000
     21 H           5.1285   -1.1177   -3.6563 H.spc      1 <1>        0.000
     22 H           4.6317    0.3394   -6.6281 H.spc      1 <1>        0.000
     23 H           5.6201    2.6799   -5.1957 H.spc      1 <1>        0.000
@<TRIPOS>BOND
     1    7   11 1  
     2   11   12 1  
     3    2    3 1  
     4   15   16 1  
     5    1    2 1  
     6   11   14 1  
     7    6    9 2  
     8   15   17 2  
     9    2    5 1  
    10   15    8 1  
    11    6   10 1  
    12   12   15 1  
    13    6    7 1  
    14    2    4 2  
    15    3    6 1  
    16   11   13 2  
    17    1   18 1  
    18    5   19 1  
    19    8   20 1  
    20   10   21 1  
    21   14   22 1  
    22   16   23 1  
# Name:          frag3-253-4/96164
# Creation time: Sat Jun  5 12:53:19 2010


@<TRIPOS>MOLECULE
frag3-253-4/96164
   23    22     1     1     1
SMALL
USER_CHARGES


@<TRIPOS>ATOM
      1 O4          4.9349   -0.0680   -1.3293 O.3        1 <1>        0.000
      2 P1          3.9780   -1.3293   -1.2592 P.3        1 <1>        0.000
      3 O5          2.5063   -0.8435   -1.5636 O.3        1 <1>        0.000
      4 O6          4.3982   -2.2837   -2.2597 O.2        1 <1>        0.000
      5 O7          4.0167   -1.9186    0.1798 O.3        1 <1>        0.000
      6 P2          1.9386   -0.5548   -3.0052 P.3        1 <1>        0.000
      7 O8          3.0263    0.3154   -3.7637 O.3        1 <1>        0.000
      8 O15         3.6175    3.2615   -6.7564 O.3        1 <1>        0.000
      9 O9          0.6991    0.1753   -3.0105 O.2        1 <1>        0.000
     10 O10         1.8422   -1.9541   -3.6921 O.3        1 <1>        0.000
     11 P3          2.9919    1.8842   -3.8096 P.3        1 <1>        0.000
     12 O11         4.2662    2.5332   -4.3810 O.3        1 <1>        0.000
     13 O12         1.8856    2.2890   -4.6631 O.2        1 <1>        0.000
     14 O13         2.8178    2.3410   -2.2988 O.3        1 <1>        0.000
     15 P4          4.6122    2.3530   -5.8899 P.3        1 <1>        0.000
     16 O14         6.0357    2.8760   -6.2147 O.3        1 <1>        0.000
     17 O16         4.4868    0.9522   -6.1983 O.2        1 <1>        0.000
     18 H           4.6653    0.5739   -0.6684 H.spc      1 <1>        0.000
     19 H           3.7303   -1.2498    0.8061 H.spc      1 <1>        0.000
     20 H           3.7371    4.1834   -6.5167 H.spc      1 <1>        0.000
     21 H           2.6981   -2.3872   -3.6549 H.spc      1 <1>        0.000
     22 H           3.5750    2.0466   -1.7874 H.spc      1 <1>        0.000
     23 H           6.0891    3.8100   -5.9994 H.spc      1 <1>        0.000
@<TRIPOS>BOND
     1    7   11 1  
     2   11   12 1  
     3    2    3 1  
     4   15   16 1  
     5    1    2 1  
     6   11   14 1  
     7    6    9 2  
     8   15   17 2  
     9    2    5 1  
    10   15    8 1  
    11    6   10 1  
    12   12   15 1  
    13    6    7 1  
    14    2    4 2  
    15    3    6 1  
    16   11   13 2  
    17    1   18 1  
    18    5   19 1  
    19    8   20 1  
    20   10   21 1  
    21   14   22 1  
    22   16   23 1  
# Name:          frag3-253-4/96164
# Creation time: Sat Jun  5 12:53:19 2010


@<TRIPOS>MOLECULE
frag3-253-4/96164
   23    22     1     1     1
SMALL
USER_CHARGES


@<TRIPOS>ATOM
      1 O4          4.0891    4.4405   -5.1198 O.3        1 <1>        0.000
      2 P1          3.5787    3.2484   -6.0145 P.3        1 <1>        0.000
      3 O5          4.5074    2.0087   -5.7405 O.3        1 <1>        0.000
      4 O6          2.2197    2.9289   -5.6313 O.2        1 <1>        0.000
      5 O7          3.6990    3.6170   -7.5207 O.3        1 <1>        0.000
      6 P2          4.4305    1.1009   -4.4983 P.3        1 <1>        0.000
      7 O8          3.0290    0.3927   -4.3481 O.3        1 <1>        0.000
      8 O15         3.4033   -0.5547    0.7572 O.3        1 <1>        0.000
      9 O9          4.6844    1.8809   -3.2870 O.2        1 <1>        0.000
     10 O10         5.4365   -0.1146   -4.6037 O.3        1 <1>        0.000
     11 P3          2.7281   -0.6746   -3.2758 P.3        1 <1>        0.000
     12 O11         3.2599   -0.2665   -1.8465 O.3        1 <1>        0.000
     13 O12         1.3365   -1.0058   -3.1083 O.2        1 <1>        0.000
     14 O13         3.6466   -1.9466   -3.6294 O.3        1 <1>        0.000
     15 P4          2.9938   -1.1917   -0.6104 P.3        1 <1>        0.000
     16 O14         1.4161   -1.3576   -0.5552 O.3        1 <1>        0.000
     17 O16         3.5955   -2.4770   -0.8831 O.2        1 <1>        0.000
     18 H           4.9905    4.6607   -5.3659 H.spc      1 <1>        0.000
     19 H           4.6142    3.8202   -7.7271 H.spc      1 <1>        0.000
     20 H           2.9625    0.2920    0.8593 H.spc      1 <1>        0.000
     21 H           5.2528   -0.6121   -5.4039 H.spc      1 <1>        0.000
     22 H           4.5586   -1.6637   -3.7284 H.spc      1 <1>        0.000
     23 H           1.0120   -0.5058   -0.3742 H.spc      1 <1>        0.000
@<TRIPOS>BOND
     1    7   11 1  
     2   11   12 1  
     3    2    3 1  
     4   15   16 1  
     5    1    2 1  
     6   11   14 1  
     7    6    9 2  
     8   15   17 2  
     9    2    5 1  
    10   15    8 1  
    11    6   10 1  
    12   12   15 1  
    13    6    7 1  
    14    2    4 2  
    15    3    6 1  
    16   11   13 2  
    17    1   18 1  
    18    5   19 1  
    19    8   20 1  
    20   10   21 1  
    21   14   22 1  
    22   16   23 1  
# Name:          frag3-253-4/96164
# Creation time: Sat Jun  5 12:53:19 2010


@<TRIPOS>MOLECULE
frag3-253-4/96164
   23    22     1     1     1
SMALL
USER_CHARGES


@<TRIPOS>ATOM
      1 O4          1.6411    0.7460   -0.9934 O.3        1 <1>        0.000
      2 P1          2.6528   -0.4543   -0.8744 P.3        1 <1>        0.000
      3 O5          2.3749   -1.4647   -2.0452 O.3        1 <1>        0.000
      4 O6          4.0042    0.0698   -0.9958 O.2        1 <1>        0.000
      5 O7          2.4391   -1.2055    0.4716 O.3        1 <1>        0.000
      6 P2          2.9115   -1.3312   -3.4832 P.3        1 <1>        0.000
      7 O8          3.0290    0.1986   -3.9085 O.3        1 <1>        0.000
      8 O15         3.1014    3.3683   -3.4522 O.3        1 <1>        0.000
      9 O9          2.1857   -2.0506   -4.5089 O.2        1 <1>        0.000
     10 O10         4.4377   -1.7778   -3.4209 O.3        1 <1>        0.000
     11 P3          3.8019    0.6611   -5.2067 P.3        1 <1>        0.000
     12 O11         3.4925    2.1186   -5.6281 O.3        1 <1>        0.000
     13 O12         5.2344    0.6007   -4.9174 O.2        1 <1>        0.000
     14 O13         3.3562   -0.3082   -6.3547 O.3        1 <1>        0.000
     15 P4          3.9734    3.3233   -4.7882 P.3        1 <1>        0.000
     16 O14         5.4291    2.9664   -4.2910 O.3        1 <1>        0.000
     17 O16         3.9888    4.5683   -5.5181 O.2        1 <1>        0.000
     18 H           0.7433    0.4153   -0.9150 H.spc      1 <1>        0.000
     19 H           1.5384   -1.5351    0.5133 H.spc      1 <1>        0.000
     20 H           3.1357    2.5117   -3.0201 H.spc      1 <1>        0.000
     21 H           4.8871   -1.2823   -2.7323 H.spc      1 <1>        0.000
     22 H           2.4106   -0.2218   -6.4958 H.spc      1 <1>        0.000
     23 H           5.4066    2.1374   -3.8074 H.spc      1 <1>        0.000
@<TRIPOS>BOND
     1    7   11 1  
     2   11   12 1  
     3    2    3 1  
     4   15   16 1  
     5    1    2 1  
     6   11   14 1  
     7    6    9 2  
     8   15   17 2  
     9    2    5 1  
    10   15    8 1  
    11    6   10 1  
    12   12   15 1  
    13    6    7 1  
    14    2    4 2  
    15    3    6 1  
    16   11   13 2  
    17    1   18 1  
    18    5   19 1  
    19    8   20 1  
    20   10   21 1  
    21   14   22 1  
    22   16   23 1  
# Name:          frag3-253-4/96164
# Creation time: Sat Jun  5 12:53:19 2010


@<TRIPOS>MOLECULE
frag3-253-4/96164
   23    22     1     1     1
SMALL
USER_CHARGES


@<TRIPOS>ATOM
      1 O4          4.4127   -2.1601    0.5029 O.3        1 <1>        0.000
      2 P1          3.3203   -1.9058   -0.5736 P.3        1 <1>        0.000
      3 O5          3.8012   -0.9651   -1.7486 O.3        1 <1>        0.000
      4 O6          2.8312   -3.1684   -1.0983 O.2        1 <1>        0.000
      5 O7          2.1231   -1.0854    0.0742 O.3        1 <1>        0.000
      6 P2          2.9405   -0.7115   -3.0466 P.3        1 <1>        0.000
      7 O8          3.6942    0.0306   -4.1838 O.3        1 <1>        0.000
      8 O15         3.2510    2.5528   -7.4180 O.3        1 <1>        0.000
      9 O9          1.7459    0.0630   -2.6812 O.2        1 <1>        0.000
     10 O10         2.5446   -2.1497   -3.5471 O.3        1 <1>        0.000
     11 P3          3.6796    1.5677   -4.3334 P.3        1 <1>        0.000
     12 O11         4.6801    2.2227   -5.3213 O.3        1 <1>        0.000
     13 O12         2.3421    1.9917   -4.7997 O.2        1 <1>        0.000
     14 O13         4.0107    2.1668   -2.8896 O.3        1 <1>        0.000
     15 P4          4.1883    3.2852   -6.3530 P.3        1 <1>        0.000
     16 O14         3.2214    4.2586   -5.5525 O.3        1 <1>        0.000
     17 O16         5.2670    4.0357   -6.9458 O.2        1 <1>        0.000
     18 H           4.7281   -1.3192    0.8420 H.spc      1 <1>        0.000
     19 H           2.4561   -0.2532    0.4179 H.spc      1 <1>        0.000
     20 H           2.5578    2.0746   -6.9571 H.spc      1 <1>        0.000
     21 H           3.3388   -2.6363   -3.7796 H.spc      1 <1>        0.000
     22 H           4.8830    1.8744   -2.6154 H.spc      1 <1>        0.000
     23 H           2.5075    3.7490   -5.1623 H.spc      1 <1>        0.000
@<TRIPOS>BOND
     1    7   11 1  
     2   11   12 1  
     3    2    3 1  
     4   15   16 1  
     5    1    2 1  
     6   11   14 1  
     7    6    9 2  
     8   15   17 2  
     9    2    5 1  
    10   15    8 1  
    11    6   10 1  
    12   12   15 1  
    13    6    7 1  
    14    2    4 2  
    15    3    6 1  
    16   11   13 2  
    17    1   18 1  
    18    5   19 1  
    19    8   20 1  
    20   10   21 1  
    21   14   22 1  
    22   16   23 1  
# Name:          frag3-253-4/96164
# Creation time: Sat Jun  5 12:53:19 2010


@<TRIPOS>MOLECULE
frag3-253-4/96164
   23    22     1     1     1
SMALL
USER_CHARGES


@<TRIPOS>ATOM
      1 O4          4.8465   -1.4903   -1.7918 O.3        1 <1>        0.000
      2 P1          3.3997   -2.1123   -1.5574 P.3        1 <1>        0.000
      3 O5          2.4189   -1.2987   -2.4505 O.3        1 <1>        0.000
      4 O6          3.4610   -3.5401   -1.7848 O.2        1 <1>        0.000
      5 O7          2.9745   -1.7633   -0.0792 O.3        1 <1>        0.000
      6 P2          2.4207    0.2520   -2.6191 P.3        1 <1>        0.000
      7 O8          3.7839    0.7864   -3.2330 O.3        1 <1>        0.000
      8 O15         2.6750    2.7629   -6.7009 O.3        1 <1>        0.000
      9 O9          2.2530    0.8938   -1.3079 O.2        1 <1>        0.000
     10 O10         1.3263    0.7023   -3.6389 O.3        1 <1>        0.000
     11 P3          4.0048    2.3022   -3.6319 P.3        1 <1>        0.000
     12 O11         4.6226    2.4565   -5.0473 O.3        1 <1>        0.000
     13 O12         2.6628    2.8900   -3.7164 O.2        1 <1>        0.000
     14 O13         4.9253    2.9882   -2.5801 O.3        1 <1>        0.000
     15 P4          3.9170    1.8528   -6.2967 P.3        1 <1>        0.000
     16 O14         4.8529    1.8440   -7.5357 O.3        1 <1>        0.000
     17 O16         3.5092    0.5024   -5.9436 O.2        1 <1>        0.000
     18 H           4.8141   -0.5425   -1.6427 H.spc      1 <1>        0.000
     19 H           2.9465   -0.8097    0.0278 H.spc      1 <1>        0.000
     20 H           2.9847    3.6432   -6.9263 H.spc      1 <1>        0.000
     21 H           1.4724    0.2612   -4.4789 H.spc      1 <1>        0.000
     22 H           5.7828    2.5567   -2.5771 H.spc      1 <1>        0.000
     23 H           5.1081    2.7446   -7.7490 H.spc      1 <1>        0.000
@<TRIPOS>BOND
     1    7   11 1  
     2   11   12 1  
     3    2    3 1  
     4   15   16 1  
     5    1    2 1  
     6   11   14 1  
     7    6    9 2  
     8   15   17 2  
     9    2    5 1  
    10   15    8 1  
    11    6   10 1  
    12   12   15 1  
    13    6    7 1  
    14    2    4 2  
    15    3    6 1  
    16   11   13 2  
    17    1   18 1  
    18    5   19 1  
    19    8   20 1  
    20   10   21 1  
    21   14   22 1  
    22   16   23 1  
# Name:          frag3-253-4/96164
# Creation time: Sat Jun  5 12:53:19 2010


@<TRIPOS>MOLECULE
frag3-253-4/96164
   23    22     1     1     1
SMALL
USER_CHARGES


@<TRIPOS>ATOM
      1 O4          4.7859    2.7197   -6.9827 O.3        1 <1>        0.000
      2 P1          3.5795    1.9637   -6.3164 P.3        1 <1>        0.000
      3 O5          4.0700    1.2796   -4.9881 O.3        1 <1>        0.000
      4 O6          2.5283    2.9152   -6.0119 O.2        1 <1>        0.000
      5 O7          3.0743    0.8430   -7.2848 O.3        1 <1>        0.000
      6 P2          4.2096    2.0336   -3.6031 P.3        1 <1>        0.000
      7 O8          2.8713    1.8939   -2.8139 O.3        1 <1>        0.000
      8 O15         4.5078   -1.5347   -0.7564 O.3        1 <1>        0.000
      9 O9          4.6182    3.3941   -3.8707 O.2        1 <1>        0.000
     10 O10         5.2735    1.2499   -2.7392 O.3        1 <1>        0.000
     11 P3          2.3440    0.5455   -2.2789 P.3        1 <1>        0.000
     12 O11         3.2516   -0.6693   -2.8139 O.3        1 <1>        0.000
     13 O12         2.4783    0.4306   -0.8259 O.2        1 <1>        0.000
     14 O13         0.9112    0.2017   -2.8103 O.3        1 <1>        0.000
     15 P4          3.5085   -1.9379   -1.9249 P.3        1 <1>        0.000
     16 O14         2.1226   -2.2163   -1.2083 O.3        1 <1>        0.000
     17 O16         3.9195   -3.0836   -2.6857 O.2        1 <1>        0.000
     18 H           5.4831    2.0916   -7.1852 H.spc      1 <1>        0.000
     19 H           3.7915    0.2312   -7.4662 H.spc      1 <1>        0.000
     20 H           4.1662   -0.7645   -0.2963 H.spc      1 <1>        0.000
     21 H           4.9628    0.3546   -2.5860 H.spc      1 <1>        0.000
     22 H           0.8940    0.2970   -3.7654 H.spc      1 <1>        0.000
     23 H           1.8627   -1.4414   -0.7047 H.spc      1 <1>        0.000
@<TRIPOS>BOND
     1    7   11 1  
     2   11   12 1  
     3    2    3 1  
     4   15   16 1  
     5    1    2 1  
     6   11   14 1  
     7    6    9 2  
     8   15   17 2  
     9    2    5 1  
    10   15    8 1  
    11    6   10 1  
    12   12   15 1  
    13    6    7 1  
    14    2    4 2  
    15    3    6 1  
    16   11   13 2  
    17    1   18 1  
    18    5   19 1  
    19    8   20 1  
    20   10   21 1  
    21   14   22 1  
    22   16   23 1  
# Name:          frag3-253-4/96164
# Creation time: Sat Jun  5 12:53:19 2010


@<TRIPOS>MOLECULE
frag3-253-4/96164
   23    22     1     1     1
SMALL
USER_CHARGES


@<TRIPOS>ATOM
      1 O4          4.4082    3.7589   -3.9063 O.3        1 <1>        0.000
      2 P1          3.5363    3.1685   -5.0792 P.3        1 <1>        0.000
      3 O5          4.2030    1.8314   -5.5432 O.3        1 <1>        0.000
      4 O6          2.1947    2.9308   -4.5943 O.2        1 <1>        0.000
      5 O7          3.5583    4.1657   -6.2808 O.3        1 <1>        0.000
      6 P2          4.3694    0.5760   -4.6625 P.3        1 <1>        0.000
      7 O8          2.9976   -0.0226   -4.1709 O.3        1 <1>        0.000
      8 O15         1.3480    0.0316   -1.4234 O.3        1 <1>        0.000
      9 O9          5.2087    0.8752   -3.5085 O.2        1 <1>        0.000
     10 O10         5.0126   -0.5952   -5.5124 O.3        1 <1>        0.000
     11 P3          2.8734   -1.4370   -3.4883 P.3        1 <1>        0.000
     12 O11         3.3995   -1.3017   -2.0199 O.3        1 <1>        0.000
     13 O12         1.5171   -1.9279   -3.4242 O.2        1 <1>        0.000
     14 O13         3.8761   -2.3788   -4.2618 O.3        1 <1>        0.000
     15 P4          2.9168   -0.1527   -1.0868 P.3        1 <1>        0.000
     16 O14         2.9705   -0.5396    0.4092 O.3        1 <1>        0.000
     17 O16         3.6638    1.0461   -1.3620 O.2        1 <1>        0.000
     18 H           5.3006    3.9191   -4.2218 H.spc      1 <1>        0.000
     19 H           4.4641    4.2953   -6.5711 H.spc      1 <1>        0.000
     20 H           0.8820   -0.7848   -1.2285 H.spc      1 <1>        0.000
     21 H           4.4531   -0.7845   -6.2692 H.spc      1 <1>        0.000
     22 H           4.7510   -1.9836   -4.2594 H.spc      1 <1>        0.000
     23 H           2.4617   -1.3415    0.5496 H.spc      1 <1>        0.000
@<TRIPOS>BOND
     1    7   11 1  
     2   11   12 1  
     3    2    3 1  
     4   15   16 1  
     5    1    2 1  
     6   11   14 1  
     7    6    9 2  
     8   15   17 2  
     9    2    5 1  
    10   15    8 1  
    11    6   10 1  
    12   12   15 1  
    13    6    7 1  
    14    2    4 2  
    15    3    6 1  
    16   11   13 2  
    17    1   18 1  
    18    5   19 1  
    19    8   20 1  
    20   10   21 1  
    21   14   22 1  
    22   16   23 1  
# Name:          frag3-253-4/96164
# Creation time: Sat Jun  5 12:53:19 2010


@<TRIPOS>MOLECULE
frag3-253-4/96164
   23    22     1     1     1
SMALL
USER_CHARGES


@<TRIPOS>ATOM
      1 O4          1.7995   -1.5254    0.5497 O.3        1 <1>        0.000
      2 P1          2.7663   -1.4388   -0.6567 P.3        1 <1>        0.000
      3 O5          2.0475   -1.1770   -2.0304 O.3        1 <1>        0.000
      4 O6          3.7830   -0.4295   -0.4232 O.2        1 <1>        0.000
      5 O7          3.4678   -2.8554   -0.8779 O.3        1 <1>        0.000
      6 P2          2.7938   -0.7628   -3.3257 P.3        1 <1>        0.000
      7 O8          3.9015    0.3157   -3.0197 O.3        1 <1>        0.000
      8 O15         3.9314    4.4596   -5.0623 O.3        1 <1>        0.000
      9 O9          1.9506   -0.2573   -4.3938 O.2        1 <1>        0.000
     10 O10         3.5828   -2.0613   -3.8013 O.3        1 <1>        0.000
     11 P3          4.3564    1.3614   -4.0462 P.3        1 <1>        0.000
     12 O11         3.1514    2.0380   -4.8139 O.3        1 <1>        0.000
     13 O12         5.1538    2.4548   -3.5285 O.2        1 <1>        0.000
     14 O13         5.1101    0.5702   -5.2294 O.3        1 <1>        0.000
     15 P4          3.3896    3.1843   -5.8410 P.3        1 <1>        0.000
     16 O14         4.6184    2.7016   -6.7278 O.3        1 <1>        0.000
     17 O16         2.2502    3.4510   -6.6870 O.2        1 <1>        0.000
     18 H           1.1349   -2.1966    0.3782 H.spc      1 <1>        0.000
     19 H           2.7958   -3.5233   -1.0324 H.spc      1 <1>        0.000
     20 H           4.6848    4.2078   -4.5232 H.spc      1 <1>        0.000
     21 H           4.1340   -2.3805   -3.0830 H.spc      1 <1>        0.000
     22 H           4.5499   -0.1435   -5.5431 H.spc      1 <1>        0.000
     23 H           5.3721    2.5261   -6.1597 H.spc      1 <1>        0.000
@<TRIPOS>BOND
     1    7   11 1  
     2   11   12 1  
     3    2    3 1  
     4   15   16 1  
     5    1    2 1  
     6   11   14 1  
     7    6    9 2  
     8   15   17 2  
     9    2    5 1  
    10   15    8 1  
    11    6   10 1  
    12   12   15 1  
    13    6    7 1  
    14    2    4 2  
    15    3    6 1  
    16   11   13 2  
    17    1   18 1  
    18    5   19 1  
    19    8   20 1  
    20   10   21 1  
    21   14   22 1  
    22   16   23 1  
# Name:          frag3-253-4/96164
# Creation time: Sat Jun  5 12:53:19 2010


@<TRIPOS>MOLECULE
frag3-253-4/96164
   23    22     1     1     1
SMALL
USER_CHARGES


@<TRIPOS>ATOM
      1 O4          5.9095    3.8343   -5.9358 O.3        1 <1>        0.000
      2 P1          4.5583    3.1663   -5.5749 P.3        1 <1>        0.000
      3 O5          4.6604    1.6164   -5.3152 O.3        1 <1>        0.000
      4 O6          3.9413    3.8363   -4.4390 O.2        1 <1>        0.000
      5 O7          3.5831    3.2446   -6.8326 O.3        1 <1>        0.000
      6 P2          3.4556    0.7150   -4.9252 P.3        1 <1>        0.000
      7 O8          3.5768   -0.1322   -3.6306 O.3        1 <1>        0.000
      8 O15         2.9585    0.4150   -0.4016 O.3        1 <1>        0.000
      9 O9          2.9760   -0.1038   -6.0334 O.2        1 <1>        0.000
     10 O10         2.3266    1.8154   -4.5672 O.3        1 <1>        0.000
     11 P3          2.3549   -0.9164   -3.0086 P.3        1 <1>        0.000
     12 O11         2.7460   -1.7297   -1.7518 O.3        1 <1>        0.000
     13 O12         1.3517    0.0663   -2.5964 O.2        1 <1>        0.000
     14 O13         1.8495   -1.9005   -4.1272 O.3        1 <1>        0.000
     15 P4          3.5470   -1.0736   -0.5980 P.3        1 <1>        0.000
     16 O14         3.3056   -1.7796    0.7629 O.3        1 <1>        0.000
     17 O16         4.9532   -1.0449   -0.9406 O.2        1 <1>        0.000
     18 H           6.3000    3.3793   -6.6855 H.spc      1 <1>        0.000
     19 H           3.9913    2.8025   -7.5806 H.spc      1 <1>        0.000
     20 H           2.0269    0.3624   -0.1758 H.spc      1 <1>        0.000
     21 H           2.6322    2.3603   -3.8383 H.spc      1 <1>        0.000
     22 H           2.5513   -2.5161   -4.3512 H.spc      1 <1>        0.000
     23 H           2.3659   -1.7811    0.9591 H.spc      1 <1>        0.000
@<TRIPOS>BOND
     1    7   11 1  
     2   11   12 1  
     3    2    3 1  
     4   15   16 1  
     5    1    2 1  
     6   11   14 1  
     7    6    9 2  
     8   15   17 2  
     9    2    5 1  
    10   15    8 1  
    11    6   10 1  
    12   12   15 1  
    13    6    7 1  
    14    2    4 2  
    15    3    6 1  
    16   11   13 2  
    17    1   18 1  
    18    5   19 1  
    19    8   20 1  
    20   10   21 1  
    21   14   22 1  
    22   16   23 1  
# Name:          frag3-253-4/96164
# Creation time: Sat Jun  5 12:53:19 2010


@<TRIPOS>MOLECULE
frag3-253-4/96164
   23    22     1     1     1
SMALL
USER_CHARGES


@<TRIPOS>ATOM
      1 O4          2.8600    1.1953   -1.0022 O.3        1 <1>        0.000
      2 P1          2.8216   -0.3730   -0.7808 P.3        1 <1>        0.000
      3 O5          2.1111   -1.0008   -2.0252 O.3        1 <1>        0.000
      4 O6          4.1871   -0.8458   -0.6649 O.2        1 <1>        0.000
      5 O7          1.9935   -0.6345    0.5102 O.3        1 <1>        0.000
      6 P2          2.6307   -0.9474   -3.4769 P.3        1 <1>        0.000
      7 O8          3.6281    0.2640   -3.6804 O.3        1 <1>        0.000
      8 O15         4.3216    4.5156   -5.2058 O.3        1 <1>        0.000
      9 O9          1.6121   -0.8957   -4.5047 O.2        1 <1>        0.000
     10 O10         3.5747   -2.2130   -3.6492 O.3        1 <1>        0.000
     11 P3          4.5113    0.4752   -4.9701 P.3        1 <1>        0.000
     12 O11         4.8336    1.9604   -5.2278 O.3        1 <1>        0.000
     13 O12         5.6809   -0.3667   -4.9161 O.2        1 <1>        0.000
     14 O13         3.5155    0.0927   -6.1746 O.3        1 <1>        0.000
     15 P4          3.8114    3.0770   -4.8685 P.3        1 <1>        0.000
     16 O14         2.5398    2.8383   -5.7903 O.3        1 <1>        0.000
     17 O16         3.4209    2.8873   -3.4878 O.2        1 <1>        0.000
     18 H           1.9631    1.5282   -1.0815 H.spc      1 <1>        0.000
     19 H           1.0997   -0.3062    0.3877 H.spc      1 <1>        0.000
     20 H           4.5595    4.5599   -6.1348 H.spc      1 <1>        0.000
     21 H           4.2357   -2.2149   -2.9530 H.spc      1 <1>        0.000
     22 H           2.7584    0.6828   -6.1620 H.spc      1 <1>        0.000
     23 H           2.7852    2.9612   -6.7102 H.spc      1 <1>        0.000
@<TRIPOS>BOND
     1    7   11 1  
     2   11   12 1  
     3    2    3 1  
     4   15   16 1  
     5    1    2 1  
     6   11   14 1  
     7    6    9 2  
     8   15   17 2  
     9    2    5 1  
    10   15    8 1  
    11    6   10 1  
    12   12   15 1  
    13    6    7 1  
    14    2    4 2  
    15    3    6 1  
    16   11   13 2  
    17    1   18 1  
    18    5   19 1  
    19    8   20 1  
    20   10   21 1  
    21   14   22 1  
    22   16   23 1  
# Name:          frag3-253-4/96164
# Creation time: Sat Jun  5 12:53:19 2010


@<TRIPOS>MOLECULE
frag3-253-4/96164
   23    22     1     1     1
SMALL
USER_CHARGES


@<TRIPOS>ATOM
      1 O4          5.0164    3.7618   -5.5647 O.3        1 <1>        0.000
      2 P1          3.5766    3.3258   -5.1071 P.3        1 <1>        0.000
      3 O5          3.2373    1.9599   -5.8104 O.3        1 <1>        0.000
      4 O6          3.5851    3.1320   -3.6753 O.2        1 <1>        0.000
      5 O7          2.5231    4.3731   -5.5607 O.3        1 <1>        0.000
      6 P2          3.6862    0.5638   -5.3473 P.3        1 <1>        0.000
      7 O8          3.4669    0.3636   -3.7883 O.3        1 <1>        0.000
      8 O15         2.7071   -0.9586    0.8195 O.3        1 <1>        0.000
      9 O9          5.1118    0.3736   -5.6116 O.2        1 <1>        0.000
     10 O10         2.8161   -0.5700   -5.9843 O.3        1 <1>        0.000
     11 P3          3.8885   -0.9430   -3.0202 P.3        1 <1>        0.000
     12 O11         3.8965   -0.8054   -1.4870 O.3        1 <1>        0.000
     13 O12         2.9345   -1.9897   -3.3546 O.2        1 <1>        0.000
     14 O13         5.3533   -1.2694   -3.5060 O.3        1 <1>        0.000
     15 P4          2.5568   -0.6587   -0.7154 P.3        1 <1>        0.000
     16 O14         2.1146    0.8513   -0.8203 O.3        1 <1>        0.000
     17 O16         1.5833   -1.4812   -1.3815 O.2        1 <1>        0.000
     18 H           5.0225    3.8936   -6.5156 H.spc      1 <1>        0.000
     19 H           2.5563    4.4659   -6.5156 H.spc      1 <1>        0.000
     20 H           3.3703   -0.3749    1.1950 H.spc      1 <1>        0.000
     21 H           1.8901   -0.4092   -5.7888 H.spc      1 <1>        0.000
     22 H           5.9386   -0.5492   -3.2605 H.spc      1 <1>        0.000
     23 H           2.7617    1.4046   -0.3768 H.spc      1 <1>        0.000
@<TRIPOS>BOND
     1    7   11 1  
     2   11   12 1  
     3    2    3 1  
     4   15   16 1  
     5    1    2 1  
     6   11   14 1  
     7    6    9 2  
     8   15   17 2  
     9    2    5 1  
    10   15    8 1  
    11    6   10 1  
    12   12   15 1  
    13    6    7 1  
    14    2    4 2  
    15    3    6 1  
    16   11   13 2  
    17    1   18 1  
    18    5   19 1  
    19    8   20 1  
    20   10   21 1  
    21   14   22 1  
    22   16   23 1  
# Name:          frag3-253-4/96164
# Creation time: Sat Jun  5 12:53:19 2010


@<TRIPOS>MOLECULE
frag3-253-4/96164
   23    22     1     1     1
SMALL
USER_CHARGES


@<TRIPOS>ATOM
      1 O4          3.2474    0.5714    0.2374 O.3        1 <1>        0.000
      2 P1          2.8655   -0.5690   -0.7456 P.3        1 <1>        0.000
      3 O5          3.0570   -0.1732   -2.2618 O.3        1 <1>        0.000
      4 O6          3.6163   -1.7697   -0.4411 O.2        1 <1>        0.000
      5 O7          1.3059   -0.8453   -0.6567 O.3        1 <1>        0.000
      6 P2          2.8360   -1.1882   -3.4688 P.3        1 <1>        0.000
      7 O8          2.5821   -0.4497   -4.7997 O.3        1 <1>        0.000
      8 O15         5.4839    3.0411   -3.9524 O.3        1 <1>        0.000
      9 O9          1.8079   -2.1306   -3.0767 O.2        1 <1>        0.000
     10 O10         4.2474   -1.8972   -3.6279 O.3        1 <1>        0.000
     11 P3          3.4559    0.7243   -5.2825 P.3        1 <1>        0.000
     12 O11         3.1768    2.0997   -4.5721 O.3        1 <1>        0.000
     13 O12         4.8665    0.4211   -4.9460 O.2        1 <1>        0.000
     14 O13         3.2650    1.0246   -6.8167 O.3        1 <1>        0.000
     15 P4          4.1442    3.3180   -4.7572 P.3        1 <1>        0.000
     16 O14         4.5730    3.2690   -6.2870 O.3        1 <1>        0.000
     17 O16         3.5231    4.5824   -4.4605 O.2        1 <1>        0.000
     18 H           2.7425    1.3593    0.0233 H.spc      1 <1>        0.000
     19 H           0.8270   -0.0389   -0.8615 H.spc      1 <1>        0.000
     20 H           5.8355    2.1839   -4.2038 H.spc      1 <1>        0.000
     21 H           4.9037   -1.2464   -3.8875 H.spc      1 <1>        0.000
     22 H           2.3406    1.2154   -6.9917 H.spc      1 <1>        0.000
     23 H           4.9859    2.4231   -6.4755 H.spc      1 <1>        0.000
@<TRIPOS>BOND
     1    7   11 1  
     2   11   12 1  
     3    2    3 1  
     4   15   16 1  
     5    1    2 1  
     6   11   14 1  
     7    6    9 2  
     8   15   17 2  
     9    2    5 1  
    10   15    8 1  
    11    6   10 1  
    12   12   15 1  
    13    6    7 1  
    14    2    4 2  
    15    3    6 1  
    16   11   13 2  
    17    1   18 1  
    18    5   19 1  
    19    8   20 1  
    20   10   21 1  
    21   14   22 1  
    22   16   23 1  
# Name:          frag3-253-4/96164
# Creation time: Sat Jun  5 12:53:19 2010


@<TRIPOS>MOLECULE
frag3-253-4/96164
   23    22     1     1     1
SMALL
USER_CHARGES


@<TRIPOS>ATOM
      1 O4          3.8152    0.9712   -1.4439 O.3        1 <1>        0.000
      2 P1          3.0901   -0.3000   -0.8398 P.3        1 <1>        0.000
      3 O5          3.1729   -1.4301   -1.9022 O.3        1 <1>        0.000
      4 O6          3.6364   -0.5800    0.4679 O.2        1 <1>        0.000
      5 O7          1.5453    0.0423   -0.7722 O.3        1 <1>        0.000
      6 P2          2.9651   -1.2615   -3.4319 P.3        1 <1>        0.000
      7 O8          3.4565    0.1749   -3.9245 O.3        1 <1>        0.000
      8 O15         5.6222    2.2979   -4.2336 O.3        1 <1>        0.000
      9 O9          1.5565   -1.3678   -3.8074 O.2        1 <1>        0.000
     10 O10         3.8746   -2.2437   -4.2386 O.3        1 <1>        0.000
     11 P3          3.3398    0.6666   -5.4318 P.3        1 <1>        0.000
     12 O11         3.4459    2.2009   -5.5353 O.3        1 <1>        0.000
     13 O12         4.4089    0.0488   -6.1956 O.2        1 <1>        0.000
     14 O13         1.8916    0.2321   -5.8670 O.3        1 <1>        0.000
     15 P4          4.2167    3.0366   -4.4836 P.3        1 <1>        0.000
     16 O14         4.5896    4.4432   -5.0045 O.3        1 <1>        0.000
     17 O16         3.4267    3.0974   -3.2712 O.2        1 <1>        0.000
     18 H           3.4549    1.1607   -2.3133 H.spc      1 <1>        0.000
     19 H           1.2194    0.2218   -1.6572 H.spc      1 <1>        0.000
     20 H           6.1203    2.2742   -5.0539 H.spc      1 <1>        0.000
     21 H           4.7865   -2.1372   -3.9579 H.spc      1 <1>        0.000
     22 H           1.2452    0.6814   -5.3175 H.spc      1 <1>        0.000
     23 H           5.1109    4.3585   -5.8062 H.spc      1 <1>        0.000
@<TRIPOS>BOND
     1    7   11 1  
     2   11   12 1  
     3    2    3 1  
     4   15   16 1  
     5    1    2 1  
     6   11   14 1  
     7    6    9 2  
     8   15   17 2  
     9    2    5 1  
    10   15    8 1  
    11    6   10 1  
    12   12   15 1  
    13    6    7 1  
    14    2    4 2  
    15    3    6 1  
    16   11   13 2  
    17    1   18 1  
    18    5   19 1  
    19    8   20 1  
    20   10   21 1  
    21   14   22 1  
    22   16   23 1  
# Name:          frag3-253-4/96164
# Creation time: Sat Jun  5 12:53:19 2010


@<TRIPOS>MOLECULE
frag3-253-4/96164
   23    22     1     1     1
SMALL
USER_CHARGES


@<TRIPOS>ATOM
      1 O4          3.7103    0.8306   -0.9027 O.3        1 <1>        0.000
      2 P1          3.4444   -0.7159   -0.7167 P.3        1 <1>        0.000
      3 O5          2.3001   -1.0956   -1.7325 O.3        1 <1>        0.000
      4 O6          4.6625   -1.4309   -1.0425 O.2        1 <1>        0.000
      5 O7          2.9386   -0.9987    0.7203 O.3        1 <1>        0.000
      6 P2          2.3822   -0.9623   -3.2715 P.3        1 <1>        0.000
      7 O8          3.0315    0.4241   -3.6821 O.3        1 <1>        0.000
      8 O15         5.4983    1.7349   -5.8582 O.3        1 <1>        0.000
      9 O9          1.1179   -1.0650   -3.9724 O.2        1 <1>        0.000
     10 O10         3.4137   -2.0537   -3.7457 O.3        1 <1>        0.000
     11 P3          2.7084    1.1599   -5.0316 P.3        1 <1>        0.000
     12 O11         3.2567    2.5989   -5.1012 O.3        1 <1>        0.000
     13 O12         3.3344    0.4141   -6.1198 O.2        1 <1>        0.000
     14 O13         1.1392    1.1999   -5.1164 O.3        1 <1>        0.000
     15 P4          4.7735    2.8954   -5.0091 P.3        1 <1>        0.000
     16 O14         5.1647    4.2165   -5.7094 O.3        1 <1>        0.000
     17 O16         5.1775    2.8765   -3.6236 O.2        1 <1>        0.000
     18 H           2.9117    1.3193   -0.6904 H.spc      1 <1>        0.000
     19 H           2.1333   -0.5006    0.8787 H.spc      1 <1>        0.000
     20 H           5.2062    1.7784   -6.7717 H.spc      1 <1>        0.000
     21 H           4.2342   -1.9502   -3.2581 H.spc      1 <1>        0.000
     22 H           0.7925    1.7027   -4.3757 H.spc      1 <1>        0.000
     23 H           4.8792    4.1885   -6.6255 H.spc      1 <1>        0.000
@<TRIPOS>BOND
     1    7   11 1  
     2   11   12 1  
     3    2    3 1  
     4   15   16 1  
     5    1    2 1  
     6   11   14 1  
     7    6    9 2  
     8   15   17 2  
     9    2    5 1  
    10   15    8 1  
    11    6   10 1  
    12   12   15 1  
    13    6    7 1  
    14    2    4 2  
    15    3    6 1  
    16   11   13 2  
    17    1   18 1  
    18    5   19 1  
    19    8   20 1  
    20   10   21 1  
    21   14   22 1  
    22   16   23 1  
# Name:          frag3-253-4/96164
# Creation time: Sat Jun  5 12:53:19 2010


@<TRIPOS>MOLECULE
frag3-253-4/96164
   23    22     1     1     1
SMALL
USER_CHARGES


@<TRIPOS>ATOM
      1 O4          2.5552   -0.0914    0.3331 O.3        1 <1>        0.000
      2 P1          2.3781   -0.3486   -1.1893 P.3        1 <1>        0.000
      3 O5          3.6446   -0.9596   -1.8908 O.3        1 <1>        0.000
      4 O6          1.2118   -1.1787   -1.4259 O.2        1 <1>        0.000
      5 O7          2.2033    1.0532   -1.9218 O.3        1 <1>        0.000
      6 P2          3.6818   -1.4828   -3.3773 P.3        1 <1>        0.000
      7 O8          4.7224   -0.7232   -4.2538 O.3        1 <1>        0.000
      8 O15         4.9356    3.9145   -4.2720 O.3        1 <1>        0.000
      9 O9          2.3411   -1.2107   -3.9467 O.2        1 <1>        0.000
     10 O10         3.9937   -3.0048   -3.3519 O.3        1 <1>        0.000
     11 P3          4.4431    0.6231   -4.9382 P.3        1 <1>        0.000
     12 O11         3.7392    1.6747   -3.9770 O.3        1 <1>        0.000
     13 O12         5.6123    1.3119   -5.4574 O.2        1 <1>        0.000
     14 O13         3.3296    0.3871   -6.0626 O.3        1 <1>        0.000
     15 P4          3.5486    3.1666   -4.4320 P.3        1 <1>        0.000
     16 O14         3.2711    3.0841   -5.9886 O.3        1 <1>        0.000
     17 O16         2.4425    3.8134   -3.7630 O.2        1 <1>        0.000
     18 H           3.3292    0.4582    0.4757 H.spc      1 <1>        0.000
     19 H           2.9784    1.5961   -1.7605 H.spc      1 <1>        0.000
     20 H           5.6167    3.4270   -4.7411 H.spc      1 <1>        0.000
     21 H           4.8668   -3.1452   -2.9784 H.spc      1 <1>        0.000
     22 H           2.5783   -0.0691   -5.6766 H.spc      1 <1>        0.000
     23 H           4.0114    2.6532   -6.4221 H.spc      1 <1>        0.000
@<TRIPOS>BOND
     1    7   11 1  
     2   11   12 1  
     3    2    3 1  
     4   15   16 1  
     5    1    2 1  
     6   11   14 1  
     7    6    9 2  
     8   15   17 2  
     9    2    5 1  
    10   15    8 1  
    11    6   10 1  
    12   12   15 1  
    13    6    7 1  
    14    2    4 2  
    15    3    6 1  
    16   11   13 2  
    17    1   18 1  
    18    5   19 1  
    19    8   20 1  
    20   10   21 1  
    21   14   22 1  
    22   16   23 1  
# Name:          frag3-253-4/96164
# Creation time: Sat Jun  5 12:53:19 2010


@<TRIPOS>MOLECULE
frag3-253-4/96164
   23    22     1     1     1
SMALL
USER_CHARGES


@<TRIPOS>ATOM
      1 O4          3.2133    3.7289   -4.1977 O.3        1 <1>        0.000
      2 P1          3.0701    2.9550   -5.5791 P.3        1 <1>        0.000
      3 O5          3.5738    1.4914   -5.3715 O.3        1 <1>        0.000
      4 O6          1.7431    3.1380   -6.1006 O.2        1 <1>        0.000
      5 O7          4.1624    3.5699   -6.5700 O.3        1 <1>        0.000
      6 P2          4.9851    1.1042   -4.7339 P.3        1 <1>        0.000
      7 O8          4.7800    0.7292   -3.2280 O.3        1 <1>        0.000
      8 O15         1.9041   -1.3329    0.7019 O.3        1 <1>        0.000
      9 O9          5.8834    2.2355   -4.9435 O.2        1 <1>        0.000
     10 O10         5.4981   -0.1982   -5.4460 O.3        1 <1>        0.000
     11 P3          3.7045   -0.2983   -2.7816 P.3        1 <1>        0.000
     12 O11         3.2602   -0.3358   -1.2999 O.3        1 <1>        0.000
     13 O12         2.4904   -0.0657   -3.5807 O.2        1 <1>        0.000
     14 O13         4.2818   -1.7728   -3.0445 O.3        1 <1>        0.000
     15 P4          2.1554   -1.3597   -0.8455 P.3        1 <1>        0.000
     16 O14         0.8110   -0.8964   -1.5361 O.3        1 <1>        0.000
     17 O16         2.5371   -2.6637   -1.3586 O.2        1 <1>        0.000
     18 H           4.1005    3.6043   -3.8528 H.spc      1 <1>        0.000
     19 H           5.0386    3.4360   -6.2014 H.spc      1 <1>        0.000
     20 H           1.6571   -0.4447    0.9695 H.spc      1 <1>        0.000
     21 H           4.8805   -0.9149   -5.2833 H.spc      1 <1>        0.000
     22 H           5.0719   -1.9049   -2.5154 H.spc      1 <1>        0.000
     23 H           0.5588   -0.0345   -1.1969 H.spc      1 <1>        0.000
@<TRIPOS>BOND
     1    7   11 1  
     2   11   12 1  
     3    2    3 1  
     4   15   16 1  
     5    1    2 1  
     6   11   14 1  
     7    6    9 2  
     8   15   17 2  
     9    2    5 1  
    10   15    8 1  
    11    6   10 1  
    12   12   15 1  
    13    6    7 1  
    14    2    4 2  
    15    3    6 1  
    16   11   13 2  
    17    1   18 1  
    18    5   19 1  
    19    8   20 1  
    20   10   21 1  
    21   14   22 1  
    22   16   23 1  
# Name:          frag3-253-4/96164
# Creation time: Sat Jun  5 12:53:19 2010


@<TRIPOS>MOLECULE
frag3-253-4/96164
   23    22     1     1     1
SMALL
USER_CHARGES


@<TRIPOS>ATOM
      1 O4          4.8702    3.4112   -6.7324 O.3        1 <1>        0.000
      2 P1          3.6569    3.6054   -5.7300 P.3        1 <1>        0.000
      3 O5          2.9730    2.2080   -5.4982 O.3        1 <1>        0.000
      4 O6          4.1636    4.1564   -4.4905 O.2        1 <1>        0.000
      5 O7          2.6016    4.5536   -6.3952 O.3        1 <1>        0.000
      6 P2          3.6906    0.9847   -4.8705 P.3        1 <1>        0.000
      7 O8          2.8231   -0.2397   -4.4693 O.3        1 <1>        0.000
      8 O15         1.7322   -2.3801   -0.5212 O.3        1 <1>        0.000
      9 O9          4.4357    1.4330   -3.6727 O.2        1 <1>        0.000
     10 O10         4.7248    0.4578   -5.9608 O.3        1 <1>        0.000
     11 P3          3.0820   -1.0628   -3.1937 P.3        1 <1>        0.000
     12 O11         2.6007   -0.3870   -1.8569 O.3        1 <1>        0.000
     13 O12         2.5154   -2.4015   -3.2011 O.2        1 <1>        0.000
     14 O13         4.6869   -1.1074   -3.0006 O.3        1 <1>        0.000
     15 P4          2.7404   -1.1381   -0.4926 P.3        1 <1>        0.000
     16 O14         4.1903   -1.7822   -0.4815 O.3        1 <1>        0.000
     17 O16         2.5664   -0.2822    0.6520 O.2        1 <1>        0.000
     18 H           4.5458    3.0459   -7.5588 H.spc      1 <1>        0.000
     19 H           2.2879    4.1585   -7.2119 H.spc      1 <1>        0.000
     20 H           1.8993   -2.9085   -1.3051 H.spc      1 <1>        0.000
     21 H           4.2458    0.1658   -6.7398 H.spc      1 <1>        0.000
     22 H           5.0330   -0.2119   -2.9996 H.spc      1 <1>        0.000
     23 H           4.2930   -2.3498   -1.2489 H.spc      1 <1>        0.000
@<TRIPOS>BOND
     1    7   11 1  
     2   11   12 1  
     3    2    3 1  
     4   15   16 1  
     5    1    2 1  
     6   11   14 1  
     7    6    9 2  
     8   15   17 2  
     9    2    5 1  
    10   15    8 1  
    11    6   10 1  
    12   12   15 1  
    13    6    7 1  
    14    2    4 2  
    15    3    6 1  
    16   11   13 2  
    17    1   18 1  
    18    5   19 1  
    19    8   20 1  
    20   10   21 1  
    21   14   22 1  
    22   16   23 1  
# Name:          frag3-253-4/96164
# Creation time: Sat Jun  5 12:53:19 2010


@<TRIPOS>MOLECULE
frag3-253-4/96164
   23    22     1     1     1
SMALL
USER_CHARGES


@<TRIPOS>ATOM
      1 O4          3.6628    3.6462   -6.9848 O.3        1 <1>        0.000
      2 P1          3.0609    3.1930   -5.6000 P.3        1 <1>        0.000
      3 O5          3.3940    1.6757   -5.3669 O.3        1 <1>        0.000
      4 O6          3.6492    3.9948   -4.5432 O.2        1 <1>        0.000
      5 O7          1.5039    3.3532   -5.6412 O.3        1 <1>        0.000
      6 P2          4.7684    1.1596   -4.7904 P.3        1 <1>        0.000
      7 O8          4.6178    0.8421   -3.2688 O.3        1 <1>        0.000
      8 O15         0.8991   -1.1262   -1.1821 O.3        1 <1>        0.000
      9 O9          5.7880    2.1397   -5.1025 O.2        1 <1>        0.000
     10 O10         5.0820   -0.2428   -5.4562 O.3        1 <1>        0.000
     11 P3          3.7194   -0.2907   -2.7356 P.3        1 <1>        0.000
     12 O11         3.3567   -0.3845   -1.2406 O.3        1 <1>        0.000
     13 O12         2.4406   -0.2695   -3.4787 O.2        1 <1>        0.000
     14 O13         4.4808   -1.6885   -3.0364 O.3        1 <1>        0.000
     15 P4          2.3739   -1.4731   -0.7032 P.3        1 <1>        0.000
     16 O14         2.7536   -2.8035   -1.4962 O.3        1 <1>        0.000
     17 O16         2.5026   -1.6967    0.7113 O.2        1 <1>        0.000
     18 H           3.2770    3.1188   -7.6881 H.spc      1 <1>        0.000
     19 H           1.1463    2.8119   -6.3488 H.spc      1 <1>        0.000
     20 H           0.8958   -0.9917   -2.1326 H.spc      1 <1>        0.000
     21 H           4.3880   -0.8660   -5.2290 H.spc      1 <1>        0.000
     22 H           5.3121   -1.7085   -2.5567 H.spc      1 <1>        0.000
     23 H           2.6659   -2.6485   -2.4395 H.spc      1 <1>        0.000
@<TRIPOS>BOND
     1    7   11 1  
     2   11   12 1  
     3    2    3 1  
     4   15   16 1  
     5    1    2 1  
     6   11   14 1  
     7    6    9 2  
     8   15   17 2  
     9    2    5 1  
    10   15    8 1  
    11    6   10 1  
    12   12   15 1  
    13    6    7 1  
    14    2    4 2  
    15    3    6 1  
    16   11   13 2  
    17    1   18 1  
    18    5   19 1  
    19    8   20 1  
    20   10   21 1  
    21   14   22 1  
    22   16   23 1  
# Name:          frag3-253-4/96164
# Creation time: Sat Jun  5 12:53:19 2010


@<TRIPOS>MOLECULE
frag3-253-4/96164
   23    22     1     1     1
SMALL
USER_CHARGES


@<TRIPOS>ATOM
      1 O4          4.1166    2.3596   -7.8611 O.3        1 <1>        0.000
      2 P1          4.0062    2.6834   -6.3455 P.3        1 <1>        0.000
      3 O5          3.9980    1.4099   -5.4211 O.3        1 <1>        0.000
      4 O6          5.0694    3.5873   -5.9468 O.2        1 <1>        0.000
      5 O7          2.5903    3.3393   -6.0577 O.3        1 <1>        0.000
      6 P2          4.0873    1.4657   -3.8422 P.3        1 <1>        0.000
      7 O8          3.7485    0.1169   -3.1586 O.3        1 <1>        0.000
      8 O15         3.5300   -0.2293   -0.3652 O.3        1 <1>        0.000
      9 O9          3.1231    2.4783   -3.3913 O.2        1 <1>        0.000
     10 O10         5.5566    1.9066   -3.5456 O.3        1 <1>        0.000
     11 P3          2.2883   -0.4716   -3.0467 P.3        1 <1>        0.000
     12 O11         2.2185   -1.6191   -2.0138 O.3        1 <1>        0.000
     13 O12         1.4344    0.6198   -2.5986 O.2        1 <1>        0.000
     14 O13         1.9253   -1.0275   -4.4714 O.3        1 <1>        0.000
     15 P4          3.2507   -1.7349   -0.8554 P.3        1 <1>        0.000
     16 O14         2.6610   -2.4833    0.3629 O.3        1 <1>        0.000
     17 O16         4.4498   -2.3723   -1.3570 O.2        1 <1>        0.000
     18 H           3.4086    1.7617   -8.1118 H.spc      1 <1>        0.000
     19 H           1.8970    2.7317   -6.3257 H.spc      1 <1>        0.000
     20 H           2.7132    0.1572   -0.0410 H.spc      1 <1>        0.000
     21 H           6.1614    1.2264   -3.8508 H.spc      1 <1>        0.000
     22 H           2.5269   -1.7404   -4.6983 H.spc      1 <1>        0.000
     23 H           1.8701   -2.0298    0.6635 H.spc      1 <1>        0.000
@<TRIPOS>BOND
     1    7   11 1  
     2   11   12 1  
     3    2    3 1  
     4   15   16 1  
     5    1    2 1  
     6   11   14 1  
     7    6    9 2  
     8   15   17 2  
     9    2    5 1  
    10   15    8 1  
    11    6   10 1  
    12   12   15 1  
    13    6    7 1  
    14    2    4 2  
    15    3    6 1  
    16   11   13 2  
    17    1   18 1  
    18    5   19 1  
    19    8   20 1  
    20   10   21 1  
    21   14   22 1  
    22   16   23 1  
# Name:          frag3-253-4/96164
# Creation time: Sat Jun  5 12:53:19 2010


@<TRIPOS>MOLECULE
frag3-253-4/96164
   23    22     1     1     1
SMALL
USER_CHARGES


@<TRIPOS>ATOM
      1 O4          2.2312    1.0868   -0.6081 O.3        1 <1>        0.000
      2 P1          2.6973   -0.3220   -1.0864 P.3        1 <1>        0.000
      3 O5          2.0785   -0.7002   -2.4840 O.3        1 <1>        0.000
      4 O6          4.1440   -0.3331   -1.1960 O.2        1 <1>        0.000
      5 O7          2.2118   -1.3951   -0.0499 O.3        1 <1>        0.000
      6 P2          2.8704   -1.4131   -3.6333 P.3        1 <1>        0.000
      7 O8          4.2547   -0.6487   -3.7682 O.3        1 <1>        0.000
      8 O15         2.3521    4.1236   -4.3990 O.3        1 <1>        0.000
      9 O9          2.2201   -1.3611   -4.9263 O.2        1 <1>        0.000
     10 O10         3.1814   -2.8651   -3.1547 O.3        1 <1>        0.000
     11 P3          4.4633    0.6274   -4.6022 P.3        1 <1>        0.000
     12 O11         3.3134    1.6901   -4.3611 O.3        1 <1>        0.000
     13 O12         5.6958    1.3285   -4.3604 O.2        1 <1>        0.000
     14 O13         4.2500    0.2022   -6.1242 O.3        1 <1>        0.000
     15 P4          3.5162    3.1667   -4.8372 P.3        1 <1>        0.000
     16 O14         4.7968    3.6928   -4.0698 O.3        1 <1>        0.000
     17 O16         3.7770    3.1492   -6.2544 O.2        1 <1>        0.000
     18 H           1.2741    1.0980   -0.5344 H.spc      1 <1>        0.000
     19 H           1.2538   -1.3720    0.0080 H.spc      1 <1>        0.000
     20 H           2.2428    4.0774   -3.4464 H.spc      1 <1>        0.000
     21 H           3.6099   -2.8330   -2.2962 H.spc      1 <1>        0.000
     22 H           3.4124   -0.2586   -6.2122 H.spc      1 <1>        0.000
     23 H           4.6210    3.7037   -3.1261 H.spc      1 <1>        0.000
@<TRIPOS>BOND
     1    7   11 1  
     2   11   12 1  
     3    2    3 1  
     4   15   16 1  
     5    1    2 1  
     6   11   14 1  
     7    6    9 2  
     8   15   17 2  
     9    2    5 1  
    10   15    8 1  
    11    6   10 1  
    12   12   15 1  
    13    6    7 1  
    14    2    4 2  
    15    3    6 1  
    16   11   13 2  
    17    1   18 1  
    18    5   19 1  
    19    8   20 1  
    20   10   21 1  
    21   14   22 1  
    22   16   23 1  
# Name:          frag3-253-4/96164 -- energy: -4.687303
# Creation time: Sat Jun  5 12:53:19 2010


@<TRIPOS>MOLECULE
frag3-253-4/96164 -- energy: -4.687303
   23    22     1     1     1
SMALL
USER_CHARGES


@<TRIPOS>ATOM
      1 O4          4.4156   -0.3079   -0.9104 O.3        1 <1>        0.000
      2 P1          3.0150   -1.0426   -0.8717 P.3        1 <1>        0.000
      3 O5          2.1656   -0.5231   -2.0971 O.3        1 <1>        0.000
      4 O6          3.2484   -2.4705   -0.9928 O.2        1 <1>        0.000
      5 O7          2.2717   -0.6718    0.4419 O.3        1 <1>        0.000
      6 P2          2.5311   -0.7582   -3.6028 P.3        1 <1>        0.000
      7 O8          4.0631   -0.3990   -3.7777 O.3        1 <1>        0.000
      8 O15         3.4878    3.2868   -7.2623 O.3        1 <1>        0.000
      9 O9          1.7732    0.0487   -4.5424 O.2        1 <1>        0.000
     10 O10         2.3497   -2.2948   -3.8349 O.3        1 <1>        0.000
     11 P3          4.6007    1.0322   -4.0420 P.3        1 <1>        0.000
     12 O11         4.3038    1.5307   -5.5009 O.3        1 <1>        0.000
     13 O12         3.7902    1.9322   -3.1928 O.2        1 <1>        0.000
     14 O13         6.1314    1.1808   -3.8170 O.3        1 <1>        0.000
     15 P4          3.5763    2.9015   -5.7502 P.3        1 <1>        0.000
     16 O14         2.0927    2.6980   -5.2446 O.3        1 <1>        0.000
     17 O16         4.2376    3.8859   -4.9175 O.2        1 <1>        0.000
     18 H           4.2811    0.6393   -0.8314 H.spc      1 <1>        0.000
     19 H           2.1407    0.2786    0.4768 H.spc      1 <1>        0.000
     20 H           3.0390    2.5879   -7.7437 H.spc      1 <1>        0.000
     21 H           2.8702   -2.7784   -3.1893 H.spc      1 <1>        0.000
     22 H           6.5991    0.5730   -4.3945 H.spc      1 <1>        0.000
     23 H           1.6545    2.0458   -5.7962 H.spc      1 <1>        0.000
@<TRIPOS>BOND
     1    7   11 1  
     2   11   12 1  
     3    2    3 1  
     4   15   16 1  
     5    1    2 1  
     6   11   14 1  
     7    6    9 2  
     8   15   17 2  
     9    2    5 1  
    10   15    8 1  
    11    6   10 1  
    12   12   15 1  
    13    6    7 1  
    14    2    4 2  
    15    3    6 1  
    16   11   13 2  
    17    1   18 1  
    18    5   19 1  
    19    8   20 1  
    20   10   21 1  
    21   14   22 1  
    22   16   23 1  
# Name:          frag3-253-4/96164 -- energy: -4.617114
# Creation time: Sat Jun  5 12:53:19 2010


@<TRIPOS>MOLECULE
frag3-253-4/96164 -- energy: -4.617114
   23    22     1     1     1
SMALL
USER_CHARGES


@<TRIPOS>ATOM
      1 O4          4.1309    0.0699   -0.6807 O.3        1 <1>        0.000
      2 P1          3.0873   -1.1038   -0.8107 P.3        1 <1>        0.000
      3 O5          2.1116   -0.7828   -2.0113 O.3        1 <1>        0.000
      4 O6          3.8085   -2.3330   -1.0867 O.2        1 <1>        0.000
      5 O7          2.2511   -1.1949    0.4991 O.3        1 <1>        0.000
      6 P2          2.4644   -0.9881   -3.5281 P.3        1 <1>        0.000
      7 O8          3.9175   -0.4012   -3.7459 O.3        1 <1>        0.000
      8 O15         3.5549    3.3075   -7.3995 O.3        1 <1>        0.000
      9 O9          1.5665   -0.3249   -4.4440 O.2        1 <1>        0.000
     10 O10         2.5115   -2.5394   -3.7272 O.3        1 <1>        0.000
     11 P3          4.1997    1.0844   -4.0441 P.3        1 <1>        0.000
     12 O11         3.8599    1.5271   -5.5118 O.3        1 <1>        0.000
     13 O12         3.2962    1.8765   -3.1885 O.2        1 <1>        0.000
     14 O13         5.7112    1.4639   -3.8593 O.3        1 <1>        0.000
     15 P4          3.8491    3.0472   -5.8765 P.3        1 <1>        0.000
     16 O14         2.6439    3.7009   -5.0891 O.3        1 <1>        0.000
     17 O16         5.0899    3.6195   -5.4112 O.2        1 <1>        0.000
     18 H           3.6670    0.8903   -0.4978 H.spc      1 <1>        0.000
     19 H           1.7922   -0.3640    0.6429 H.spc      1 <1>        0.000
     20 H           2.7185    2.9004   -7.6368 H.spc      1 <1>        0.000
     21 H           3.1219   -2.9238   -3.0937 H.spc      1 <1>        0.000
     22 H           6.2498    0.9193   -4.4380 H.spc      1 <1>        0.000
     23 H           1.8180    3.3211   -5.3977 H.spc      1 <1>        0.000
@<TRIPOS>BOND
     1    7   11 1  
     2   11   12 1  
     3    2    3 1  
     4   15   16 1  
     5    1    2 1  
     6   11   14 1  
     7    6    9 2  
     8   15   17 2  
     9    2    5 1  
    10   15    8 1  
    11    6   10 1  
    12   12   15 1  
    13    6    7 1  
    14    2    4 2  
    15    3    6 1  
    16   11   13 2  
    17    1   18 1  
    18    5   19 1  
    19    8   20 1  
    20   10   21 1  
    21   14   22 1  
    22   16   23 1  
# Name:          frag3-253-4/96164 -- energy: -3.992197
# Creation time: Sat Jun  5 12:53:19 2010


@<TRIPOS>MOLECULE
frag3-253-4/96164 -- energy: -3.992197
   23    22     1     1     1
SMALL
USER_CHARGES


@<TRIPOS>ATOM
      1 O4          4.2177    0.0527   -0.7183 O.3        1 <1>        0.000
      2 P1          3.1363   -1.1016   -0.8161 P.3        1 <1>        0.000
      3 O5          2.1285   -0.7557   -1.9722 O.3        1 <1>        0.000
      4 O6          3.8336   -2.3460   -1.1121 O.2        1 <1>        0.000
      5 O7          2.3997   -1.1700    0.5557 O.3        1 <1>        0.000
      6 P2          2.4276   -0.9724   -3.4978 P.3        1 <1>        0.000
      7 O8          3.8792   -0.4187   -3.7722 O.3        1 <1>        0.000
      8 O15         2.3525    3.6465   -5.5868 O.3        1 <1>        0.000
      9 O9          1.5019   -0.2877   -4.3827 O.2        1 <1>        0.000
     10 O10         2.4310   -2.5237   -3.7033 O.3        1 <1>        0.000
     11 P3          4.1739    1.0616   -4.0877 P.3        1 <1>        0.000
     12 O11         3.7873    1.5154   -5.5402 O.3        1 <1>        0.000
     13 O12         3.3229    1.8871   -3.1993 O.2        1 <1>        0.000
     14 O13         5.7009    1.4212   -3.9536 O.3        1 <1>        0.000
     15 P4          3.7716    3.0237   -5.9291 P.3        1 <1>        0.000
     16 O14         4.7756    3.7336   -4.9153 O.3        1 <1>        0.000
     17 O16         4.2138    3.2626   -7.2843 O.2        1 <1>        0.000
     18 H           3.7796    0.8844   -0.5233 H.spc      1 <1>        0.000
     19 H           1.9521   -0.3366    0.7192 H.spc      1 <1>        0.000
     20 H           2.1284    3.4473   -4.6748 H.spc      1 <1>        0.000
     21 H           3.0574   -2.9244   -3.0961 H.spc      1 <1>        0.000
     22 H           6.2128    0.8642   -4.5447 H.spc      1 <1>        0.000
     23 H           4.4835    3.5760   -4.0145 H.spc      1 <1>        0.000
@<TRIPOS>BOND
     1    7   11 1  
     2   11   12 1  
     3    2    3 1  
     4   15   16 1  
     5    1    2 1  
     6   11   14 1  
     7    6    9 2  
     8   15   17 2  
     9    2    5 1  
    10   15    8 1  
    11    6   10 1  
    12   12   15 1  
    13    6    7 1  
    14    2    4 2  
    15    3    6 1  
    16   11   13 2  
    17    1   18 1  
    18    5   19 1  
    19    8   20 1  
    20   10   21 1  
    21   14   22 1  
    22   16   23 1  
# Name:          frag3-253-4/96164 -- energy: -1.509785
# Creation time: Sat Jun  5 12:53:19 2010


@<TRIPOS>MOLECULE
frag3-253-4/96164 -- energy: -1.509785
   23    22     1     1     1
SMALL
USER_CHARGES


@<TRIPOS>ATOM
      1 O4          2.6737   -0.6790    0.0225 O.3        1 <1>        0.000
      2 P1          2.8549    0.1218   -1.3162 P.3        1 <1>        0.000
      3 O5          3.7520   -0.6929   -2.3192 O.3        1 <1>        0.000
      4 O6          1.5477    0.3481   -1.9146 O.2        1 <1>        0.000
      5 O7          3.5717    1.4776   -0.9967 O.3        1 <1>        0.000
      6 P2          3.1826   -1.6195   -3.4715 P.3        1 <1>        0.000
      7 O8          2.4495   -0.6719   -4.4897 O.3        1 <1>        0.000
      8 O15         5.6708    2.3427   -3.8992 O.3        1 <1>        0.000
      9 O9          2.3288   -2.6323   -2.8877 O.2        1 <1>        0.000
     10 O10         4.3870   -2.2233   -4.2772 O.3        1 <1>        0.000
     11 P3          3.1027    0.6087   -5.0670 P.3        1 <1>        0.000
     12 O11         3.1644    1.8299   -4.0790 O.3        1 <1>        0.000
     13 O12         4.5400    0.2972   -5.3253 O.2        1 <1>        0.000
     14 O13         2.3788    1.1479   -6.3506 O.3        1 <1>        0.000
     15 P4          4.2377    2.9547   -4.2393 P.3        1 <1>        0.000
     16 O14         4.2871    3.2645   -5.7982 O.3        1 <1>        0.000
     17 O16         3.9245    4.1547   -3.5062 O.2        1 <1>        0.000
     18 H           3.5333   -0.8312    0.4219 H.spc      1 <1>        0.000
     19 H           4.4295    1.3000   -0.6039 H.spc      1 <1>        0.000
     20 H           5.8109    1.5494   -4.4214 H.spc      1 <1>        0.000
     21 H           4.9172   -1.5101   -4.6404 H.spc      1 <1>        0.000
     22 H           1.4604    1.3356   -6.1436 H.spc      1 <1>        0.000
     23 H           4.4963    2.4591   -6.2769 H.spc      1 <1>        0.000
@<TRIPOS>BOND
     1    7   11 1  
     2   11   12 1  
     3    2    3 1  
     4   15   16 1  
     5    1    2 1  
     6   11   14 1  
     7    6    9 2  
     8   15   17 2  
     9    2    5 1  
    10   15    8 1  
    11    6   10 1  
    12   12   15 1  
    13    6    7 1  
    14    2    4 2  
    15    3    6 1  
    16   11   13 2  
    17    1   18 1  
    18    5   19 1  
    19    8   20 1  
    20   10   21 1  
    21   14   22 1  
    22   16   23 1  
# Name:          frag3-253-4/96164 -- energy: -3.515326
# Creation time: Sat Jun  5 12:53:19 2010


@<TRIPOS>MOLECULE
frag3-253-4/96164 -- energy: -3.515326
   23    22     1     1     1
SMALL
USER_CHARGES


@<TRIPOS>ATOM
      1 O4          3.1979   -0.4305   -0.1682 O.3        1 <1>        0.000
      2 P1          4.1119   -1.1031   -1.2661 P.3        1 <1>        0.000
      3 O5          3.1804   -1.7136   -2.3642 O.3        1 <1>        0.000
      4 O6          4.9623   -0.0687   -1.8364 O.2        1 <1>        0.000
      5 O7          4.9355   -2.2465   -0.6034 O.3        1 <1>        0.000
      6 P2          2.2093   -0.9327   -3.3033 P.3        1 <1>        0.000
      7 O8          3.0084    0.1811   -4.0847 O.3        1 <1>        0.000
      8 O15         3.1242    2.4941   -6.6350 O.3        1 <1>        0.000
      9 O9          1.2335   -0.2216   -2.4634 O.2        1 <1>        0.000
     10 O10         1.5212   -1.8604   -4.3367 O.3        1 <1>        0.000
     11 P3          2.8957    1.7216   -3.7796 P.3        1 <1>        0.000
     12 O11         4.0968    2.5396   -4.3096 O.3        1 <1>        0.000
     13 O12         1.7001    2.2379   -4.4462 O.2        1 <1>        0.000
     14 O13         2.8447    1.8480   -2.2127 O.3        1 <1>        0.000
     15 P4          4.5012    2.5007   -5.7990 P.3        1 <1>        0.000
     16 O14         5.2486    3.7791   -6.2504 O.3        1 <1>        0.000
     17 O16         5.2821    1.3038   -6.0566 O.2        1 <1>        0.000
     18 H           2.6269   -1.0959    0.2227 H.spc      1 <1>        0.000
     19 H           4.3358   -2.9034   -0.2423 H.spc      1 <1>        0.000
     20 H           2.6315    3.2956   -6.4442 H.spc      1 <1>        0.000
     21 H           2.1908   -2.3040   -4.8626 H.spc      1 <1>        0.000
     22 H           3.6542    1.4935   -1.8377 H.spc      1 <1>        0.000
     23 H           4.7049    4.5484   -6.0656 H.spc      1 <1>        0.000
@<TRIPOS>BOND
     1    7   11 1  
     2   11   12 1  
     3    2    3 1  
     4   15   16 1  
     5    1    2 1  
     6   11   14 1  
     7    6    9 2  
     8   15   17 2  
     9    2    5 1  
    10   15    8 1  
    11    6   10 1  
    12   12   15 1  
    13    6    7 1  
    14    2    4 2  
    15    3    6 1  
    16   11   13 2  
    17    1   18 1  
    18    5   19 1  
    19    8   20 1  
    20   10   21 1  
    21   14   22 1  
    22   16   23 1  
# Name:          frag3-253-4/96164 -- energy: -2.061093
# Creation time: Sat Jun  5 12:53:19 2010


@<TRIPOS>MOLECULE
frag3-253-4/96164 -- energy: -2.061093
   23    22     1     1     1
SMALL
USER_CHARGES


@<TRIPOS>ATOM
      1 O4          3.8498    0.6369   -1.3637 O.3        1 <1>        0.000
      2 P1          2.7065   -0.4354   -1.1371 P.3        1 <1>        0.000
      3 O5          2.0750   -0.7581   -2.5549 O.3        1 <1>        0.000
      4 O6          3.3074   -1.6312   -0.5685 O.2        1 <1>        0.000
      5 O7          1.5965    0.1607   -0.2271 O.3        1 <1>        0.000
      6 P2          2.8596   -1.4287   -3.7453 P.3        1 <1>        0.000
      7 O8          4.2587   -0.6973   -3.8428 O.3        1 <1>        0.000
      8 O15         4.8550    3.8757   -4.0276 O.3        1 <1>        0.000
      9 O9          2.1846   -1.3090   -5.0278 O.2        1 <1>        0.000
     10 O10         3.0884   -2.9088   -3.3063 O.3        1 <1>        0.000
     11 P3          4.4579    0.6583   -4.5385 P.3        1 <1>        0.000
     12 O11         3.4216    1.7623   -4.0484 O.3        1 <1>        0.000
     13 O12         5.7653    1.2667   -4.3886 O.2        1 <1>        0.000
     14 O13         4.0430    0.4838   -6.0765 O.3        1 <1>        0.000
     15 P4          3.5115    3.2274   -4.5916 P.3        1 <1>        0.000
     16 O14         3.7419    3.1147   -6.1531 O.3        1 <1>        0.000
     17 O16         2.3310    4.0108   -4.3174 O.2        1 <1>        0.000
     18 H           3.4693    1.4342   -1.7394 H.spc      1 <1>        0.000
     19 H           1.2309    0.9452   -0.6423 H.spc      1 <1>        0.000
     20 H           5.5981    3.3074   -4.2430 H.spc      1 <1>        0.000
     21 H           3.5355   -2.9240   -2.4569 H.spc      1 <1>        0.000
     22 H           3.1741    0.0789   -6.1284 H.spc      1 <1>        0.000
     23 H           4.5291    2.5919   -6.3224 H.spc      1 <1>        0.000
@<TRIPOS>BOND
     1    7   11 1  
     2   11   12 1  
     3    2    3 1  
     4   15   16 1  
     5    1    2 1  
     6   11   14 1  
     7    6    9 2  
     8   15   17 2  
     9    2    5 1  
    10   15    8 1  
    11    6   10 1  
    12   12   15 1  
    13    6    7 1  
    14    2    4 2  
    15    3    6 1  
    16   11   13 2  
    17    1   18 1  
    18    5   19 1  
    19    8   20 1  
    20   10   21 1  
    21   14   22 1  
    22   16   23 1  
# Name:          frag3-253-4/96164 -- energy: -4.194669
# Creation time: Sat Jun  5 12:53:19 2010


@<TRIPOS>MOLECULE
frag3-253-4/96164 -- energy: -4.194669
   23    22     1     1     1
SMALL
USER_CHARGES


@<TRIPOS>ATOM
      1 O4          4.1648    3.3131   -3.1999 O.3        1 <1>        0.000
      2 P1          3.9307    3.1670   -4.7590 P.3        1 <1>        0.000
      3 O5          4.7748    1.9586   -5.2797 O.3        1 <1>        0.000
      4 O6          2.5121    2.9326   -4.9799 O.2        1 <1>        0.000
      5 O7          4.4085    4.4926   -5.4262 O.3        1 <1>        0.000
      6 P2          4.3887    0.4745   -5.1200 P.3        1 <1>        0.000
      7 O8          3.5791    0.2316   -3.7780 O.3        1 <1>        0.000
      8 O15         2.4630    1.2396   -1.1398 O.3        1 <1>        0.000
      9 O9          5.4725   -0.4803   -5.2042 O.2        1 <1>        0.000
     10 O10         3.2777    0.1952   -6.2289 O.3        1 <1>        0.000
     11 P3          2.7848   -1.1095   -3.4769 P.3        1 <1>        0.000
     12 O11         2.0066   -1.0454   -2.1483 O.3        1 <1>        0.000
     13 O12         1.9320   -1.3820   -4.6133 O.2        1 <1>        0.000
     14 O13         3.9139   -2.2064   -3.2424 O.3        1 <1>        0.000
     15 P4          2.6107   -0.3269   -0.8978 P.3        1 <1>        0.000
     16 O14         1.8328   -0.6820    0.3906 O.3        1 <1>        0.000
     17 O16         4.0012   -0.7435   -0.8116 O.2        1 <1>        0.000
     18 H           5.0968    3.4688   -3.0306 H.spc      1 <1>        0.000
     19 H           5.3462    4.6134   -5.2598 H.spc      1 <1>        0.000
     20 H           1.5319    1.4681   -1.1898 H.spc      1 <1>        0.000
     21 H           2.5747    0.8438   -6.1465 H.spc      1 <1>        0.000
     22 H           4.4399   -1.9640   -2.4768 H.spc      1 <1>        0.000
     23 H           0.9211   -0.3947    0.3020 H.spc      1 <1>        0.000
@<TRIPOS>BOND
     1    7   11 1  
     2   11   12 1  
     3    2    3 1  
     4   15   16 1  
     5    1    2 1  
     6   11   14 1  
     7    6    9 2  
     8   15   17 2  
     9    2    5 1  
    10   15    8 1  
    11    6   10 1  
    12   12   15 1  
    13    6    7 1  
    14    2    4 2  
    15    3    6 1  
    16   11   13 2  
    17    1   18 1  
    18    5   19 1  
    19    8   20 1  
    20   10   21 1  
    21   14   22 1  
    22   16   23 1  
# Name:          frag3-253-4/96164 -- energy: -4.777683
# Creation time: Sat Jun  5 12:53:19 2010


@<TRIPOS>MOLECULE
frag3-253-4/96164 -- energy: -4.777683
   23    22     1     1     1
SMALL
USER_CHARGES


@<TRIPOS>ATOM
      1 O4          3.3293   -1.5688   -0.4654 O.3        1 <1>        0.000
      2 P1          3.9625   -0.4691   -1.4079 P.3        1 <1>        0.000
      3 O5          3.7894   -0.9887   -2.8897 O.3        1 <1>        0.000
      4 O6          3.2327    0.7752   -1.2223 O.2        1 <1>        0.000
      5 O7          5.4782   -0.3214   -1.1003 O.3        1 <1>        0.000
      6 P2          2.4009   -1.2820   -3.6038 P.3        1 <1>        0.000
      7 O8          1.6493    0.0892   -3.6868 O.3        1 <1>        0.000
      8 O15         4.7780    2.1680   -6.3859 O.3        1 <1>        0.000
      9 O9          1.6987   -2.2998   -2.8488 O.2        1 <1>        0.000
     10 O10         2.6855   -1.6988   -5.0860 O.3        1 <1>        0.000
     11 P3          2.3010    1.3707   -4.2561 P.3        1 <1>        0.000
     12 O11         3.8938    1.3375   -4.1282 O.3        1 <1>        0.000
     13 O12         2.0746    1.5009   -5.6968 O.2        1 <1>        0.000
     14 O13         1.9162    2.6683   -3.4523 O.3        1 <1>        0.000
     15 P4          4.7818    2.4253   -4.8185 P.3        1 <1>        0.000
     16 O14         3.9843    3.7848   -4.6255 O.3        1 <1>        0.000
     17 O16         6.0976    2.5374   -4.2409 O.2        1 <1>        0.000
     18 H           3.8025   -2.3964   -0.5783 H.spc      1 <1>        0.000
     19 H           5.9150   -1.1654   -1.2366 H.spc      1 <1>        0.000
     20 H           3.8718    2.1051   -6.6965 H.spc      1 <1>        0.000
     21 H           3.1504   -0.9880   -5.5335 H.spc      1 <1>        0.000
     22 H           2.0845    2.5262   -2.5179 H.spc      1 <1>        0.000
     23 H           3.1102    3.6996   -5.0133 H.spc      1 <1>        0.000
@<TRIPOS>BOND
     1    7   11 1  
     2   11   12 1  
     3    2    3 1  
     4   15   16 1  
     5    1    2 1  
     6   11   14 1  
     7    6    9 2  
     8   15   17 2  
     9    2    5 1  
    10   15    8 1  
    11    6   10 1  
    12   12   15 1  
    13    6    7 1  
    14    2    4 2  
    15    3    6 1  
    16   11   13 2  
    17    1   18 1  
    18    5   19 1  
    19    8   20 1  
    20   10   21 1  
    21   14   22 1  
    22   16   23 1  
# Name:          frag3-253-4/96164 -- energy: 2.501250
# Creation time: Sat Jun  5 12:53:19 2010


@<TRIPOS>MOLECULE
frag3-253-4/96164 -- energy: 2.501250
   23    22     1     1     1
SMALL
USER_CHARGES


@<TRIPOS>ATOM
      1 O4          2.7903    2.0300   -7.0207 O.3        1 <1>        0.000
      2 P1          4.1518    2.3618   -6.2932 P.3        1 <1>        0.000
      3 O5          3.8342    2.9412   -4.8647 O.3        1 <1>        0.000
      4 O6          4.9242    1.1327   -6.1761 O.2        1 <1>        0.000
      5 O7          4.9183    3.4510   -7.1066 O.3        1 <1>        0.000
      6 P2          3.4170    2.0823   -3.6468 P.3        1 <1>        0.000
      7 O8          2.5870    0.8154   -4.0991 O.3        1 <1>        0.000
      8 O15         4.3528   -0.2341   -0.6113 O.3        1 <1>        0.000
      9 O9          2.6993    2.7816   -2.5990 O.2        1 <1>        0.000
     10 O10         4.7745    1.4553   -3.0894 O.3        1 <1>        0.000
     11 P3          2.2170   -0.3500   -3.1391 P.3        1 <1>        0.000
     12 O11         3.4376   -1.2789   -2.7750 O.3        1 <1>        0.000
     13 O12         1.8650    0.2672   -1.8335 O.2        1 <1>        0.000
     14 O13         1.0946   -1.2854   -3.6872 O.3        1 <1>        0.000
     15 P4          3.8189   -1.5711   -1.2925 P.3        1 <1>        0.000
     16 O14         2.4516   -1.8750   -0.5404 O.3        1 <1>        0.000
     17 O16         4.7201   -2.6951   -1.1407 O.2        1 <1>        0.000
     18 H           2.2700    2.8324   -7.1049 H.spc      1 <1>        0.000
     19 H           4.3805    4.2442   -7.1630 H.spc      1 <1>        0.000
     20 H           3.7140    0.4697   -0.7464 H.spc      1 <1>        0.000
     21 H           5.2304    0.9987   -3.8003 H.spc      1 <1>        0.000
     22 H           1.3712   -1.6565   -4.5283 H.spc      1 <1>        0.000
     23 H           1.8579   -1.1277   -0.6437 H.spc      1 <1>        0.000
@<TRIPOS>BOND
     1    7   11 1  
     2   11   12 1  
     3    2    3 1  
     4   15   16 1  
     5    1    2 1  
     6   11   14 1  
     7    6    9 2  
     8   15   17 2  
     9    2    5 1  
    10   15    8 1  
    11    6   10 1  
    12   12   15 1  
    13    6    7 1  
    14    2    4 2  
    15    3    6 1  
    16   11   13 2  
    17    1   18 1  
    18    5   19 1  
    19    8   20 1  
    20   10   21 1  
    21   14   22 1  
    22   16   23 1  
# Name:          frag3-253-4/96164 -- energy: -0.234100
# Creation time: Sat Jun  5 12:53:19 2010


@<TRIPOS>MOLECULE
frag3-253-4/96164 -- energy: -0.234100
   23    22     1     1     1
SMALL
USER_CHARGES


@<TRIPOS>ATOM
      1 O4          3.6238    4.0157   -5.2375 O.3        1 <1>        0.000
      2 P1          3.0866    2.8191   -4.3727 P.3        1 <1>        0.000
      3 O5          3.2569    1.4938   -5.2159 O.3        1 <1>        0.000
      4 O6          3.8766    2.7218   -3.1621 O.2        1 <1>        0.000
      5 O7          1.5696    3.0057   -4.0656 O.3        1 <1>        0.000
      6 P2          4.6277    0.7293   -5.4430 P.3        1 <1>        0.000
      7 O8          5.0945    0.2456   -4.0195 O.3        1 <1>        0.000
      8 O15         1.1789    0.4860   -0.5603 O.3        1 <1>        0.000
      9 O9          5.5583    1.6079   -6.1045 O.2        1 <1>        0.000
     10 O10         4.3603   -0.5981   -6.2328 O.3        1 <1>        0.000
     11 P3          4.1979   -0.5936   -3.0688 P.3        1 <1>        0.000
     12 O11         3.2386    0.2185   -2.1397 O.3        1 <1>        0.000
     13 O12         3.2867   -1.3805   -3.9445 O.2        1 <1>        0.000
     14 O13         5.0333   -1.4972   -2.1002 O.3        1 <1>        0.000
     15 P4          2.1076   -0.5090   -1.3262 P.3        1 <1>        0.000
     16 O14         1.2135   -1.2272   -2.4224 O.3        1 <1>        0.000
     17 O16         2.7431   -1.5090   -0.4995 O.2        1 <1>        0.000
     18 H           3.1046    4.0861   -6.0419 H.spc      1 <1>        0.000
     19 H           1.0823    3.0657   -4.8905 H.spc      1 <1>        0.000
     20 H           0.8005    1.1120   -1.1821 H.spc      1 <1>        0.000
     21 H           3.7356   -1.1394   -5.7445 H.spc      1 <1>        0.000
     22 H           5.6023   -0.9444   -1.5596 H.spc      1 <1>        0.000
     23 H           0.7902   -0.5644   -2.9729 H.spc      1 <1>        0.000
@<TRIPOS>BOND
     1    7   11 1  
     2   11   12 1  
     3    2    3 1  
     4   15   16 1  
     5    1    2 1  
     6   11   14 1  
     7    6    9 2  
     8   15   17 2  
     9    2    5 1  
    10   15    8 1  
    11    6   10 1  
    12   12   15 1  
    13    6    7 1  
    14    2    4 2  
    15    3    6 1  
    16   11   13 2  
    17    1   18 1  
    18    5   19 1  
    19    8   20 1  
    20   10   21 1  
    21   14   22 1  
    22   16   23 1  
# Name:          frag3-253-4/96164 -- energy: 2.443121
# Creation time: Sat Jun  5 12:53:19 2010


@<TRIPOS>MOLECULE
frag3-253-4/96164 -- energy: 2.443121
   23    22     1     1     1
SMALL
USER_CHARGES


@<TRIPOS>ATOM
      1 O4          3.8685    3.9693   -4.1333 O.3        1 <1>        0.000
      2 P1          3.2977    3.1985   -5.3865 P.3        1 <1>        0.000
      3 O5          4.3516    2.1042   -5.8000 O.3        1 <1>        0.000
      4 O6          2.0407    2.5717   -5.0153 O.2        1 <1>        0.000
      5 O7          3.1280    4.1785   -6.5879 O.3        1 <1>        0.000
      6 P2          4.7126    0.8491   -4.9614 P.3        1 <1>        0.000
      7 O8          3.4542   -0.0596   -4.6887 O.3        1 <1>        0.000
      8 O15         1.0972   -1.7217   -1.0029 O.3        1 <1>        0.000
      9 O9          5.2296    1.2764   -3.6421 O.2        1 <1>        0.000
     10 O10         5.7579   -0.0467   -5.7037 O.3        1 <1>        0.000
     11 P3          3.2412   -0.8414   -3.3779 P.3        1 <1>        0.000
     12 O11         2.6355   -0.0291   -2.1841 O.3        1 <1>        0.000
     13 O12         2.4539   -2.0563   -3.5029 O.2        1 <1>        0.000
     14 O13         4.7388   -1.1806   -2.8428 O.3        1 <1>        0.000
     15 P4          2.3206   -0.7227   -0.8227 P.3        1 <1>        0.000
     16 O14         3.5688   -1.6705   -0.5330 O.3        1 <1>        0.000
     17 O16         2.1572    0.2098    0.2700 O.2        1 <1>        0.000
     18 H           4.7001    4.3877   -4.3679 H.spc      1 <1>        0.000
     19 H           3.9777    4.5708   -6.8019 H.spc      1 <1>        0.000
     20 H           1.2714   -2.3092   -1.7419 H.spc      1 <1>        0.000
     21 H           5.4029   -0.3121   -6.5553 H.spc      1 <1>        0.000
     22 H           5.2423   -0.3667   -2.7670 H.spc      1 <1>        0.000
     23 H           3.6753   -2.2886   -1.2597 H.spc      1 <1>        0.000
@<TRIPOS>BOND
     1    7   11 1  
     2   11   12 1  
     3    2    3 1  
     4   15   16 1  
     5    1    2 1  
     6   11   14 1  
     7    6    9 2  
     8   15   17 2  
     9    2    5 1  
    10   15    8 1  
    11    6   10 1  
    12   12   15 1  
    13    6    7 1  
    14    2    4 2  
    15    3    6 1  
    16   11   13 2  
    17    1   18 1  
    18    5   19 1  
    19    8   20 1  
    20   10   21 1  
    21   14   22 1  
    22   16   23 1  
# Name:          frag3-253-4/96164 -- energy: -0.450644
# Creation time: Sat Jun  5 12:53:19 2010


@<TRIPOS>MOLECULE
frag3-253-4/96164 -- energy: -0.450644
   23    22     1     1     1
SMALL
USER_CHARGES


@<TRIPOS>ATOM
      1 O4          2.3039    0.0338   -0.4501 O.3        1 <1>        0.000
      2 P1          3.5897   -0.7501   -0.9502 P.3        1 <1>        0.000
      3 O5          3.1433   -1.8231   -1.9974 O.3        1 <1>        0.000
      4 O6          4.4939    0.2218   -1.5520 O.2        1 <1>        0.000
      5 O7          4.2315   -1.4341    0.2985 O.3        1 <1>        0.000
      6 P2          2.5893   -1.5215   -3.4279 P.3        1 <1>        0.000
      7 O8          3.6274   -0.6414   -4.2315 O.3        1 <1>        0.000
      8 O15         3.9073    3.2399   -6.8138 O.3        1 <1>        0.000
      9 O9          1.3587   -0.7227   -3.2948 O.2        1 <1>        0.000
     10 O10         2.3463   -2.8264   -4.2350 O.3        1 <1>        0.000
     11 P3          3.4062    0.8509   -4.5724 P.3        1 <1>        0.000
     12 O11         4.6240    1.7724   -4.8436 O.3        1 <1>        0.000
     13 O12         2.5138    0.9871   -5.7323 O.2        1 <1>        0.000
     14 O13         2.7283    1.5079   -3.2602 O.3        1 <1>        0.000
     15 P4          4.4148    3.2450   -5.3016 P.3        1 <1>        0.000
     16 O14         3.1926    3.8125   -4.4635 O.3        1 <1>        0.000
     17 O16         5.5830    4.0767   -5.0875 O.2        1 <1>        0.000
     18 H           1.6896   -0.5848   -0.0481 H.spc      1 <1>        0.000
     19 H           3.6117   -2.0663    0.6696 H.spc      1 <1>        0.000
     20 H           3.1356    2.6739   -6.8893 H.spc      1 <1>        0.000
     21 H           3.1679   -3.3186   -4.3004 H.spc      1 <1>        0.000
     22 H           3.3222    1.4112   -2.5122 H.spc      1 <1>        0.000
     23 H           2.4220    3.2587   -4.6085 H.spc      1 <1>        0.000
@<TRIPOS>BOND
     1    7   11 1  
     2   11   12 1  
     3    2    3 1  
     4   15   16 1  
     5    1    2 1  
     6   11   14 1  
     7    6    9 2  
     8   15   17 2  
     9    2    5 1  
    10   15    8 1  
    11    6   10 1  
    12   12   15 1  
    13    6    7 1  
    14    2    4 2  
    15    3    6 1  
    16   11   13 2  
    17    1   18 1  
    18    5   19 1  
    19    8   20 1  
    20   10   21 1  
    21   14   22 1  
    22   16   23 1  
# Name:          frag3-253-4/96164 -- energy: -2.284385
# Creation time: Sat Jun  5 12:53:19 2010


@<TRIPOS>MOLECULE
frag3-253-4/96164 -- energy: -2.284385
   23    22     1     1     1
SMALL
USER_CHARGES


@<TRIPOS>ATOM
      1 O4          3.7549   -0.6806    0.3062 O.3        1 <1>        0.000
      2 P1          3.0601   -1.6645   -0.6997 P.3        1 <1>        0.000
      3 O5          2.0792   -0.8665   -1.6394 O.3        1 <1>        0.000
      4 O6          4.0831   -2.3132   -1.5110 O.2        1 <1>        0.000
      5 O7          2.2115   -2.7160    0.0864 O.3        1 <1>        0.000
      6 P2          2.4716   -0.3070   -3.0294 P.3        1 <1>        0.000
      7 O8          3.9038    0.3529   -2.9836 O.3        1 <1>        0.000
      8 O15         2.9470    3.9856   -5.6145 O.3        1 <1>        0.000
      9 O9          1.5469    0.6578   -3.5940 O.2        1 <1>        0.000
     10 O10         2.6205   -1.5811   -3.9663 O.3        1 <1>        0.000
     11 P3          4.3200    1.4918   -3.9336 P.3        1 <1>        0.000
     12 O11         3.4691    1.4963   -5.2740 O.3        1 <1>        0.000
     13 O12         4.0752    2.8011   -3.3333 O.2        1 <1>        0.000
     14 O13         5.8038    1.3233   -4.4572 O.3        1 <1>        0.000
     15 P4          3.5626    2.6820   -6.2818 P.3        1 <1>        0.000
     16 O14         5.1202    2.9923   -6.4041 O.3        1 <1>        0.000
     17 O16         3.0245    2.3747   -7.5859 O.2        1 <1>        0.000
     18 H           3.0865   -0.2497    0.8439 H.spc      1 <1>        0.000
     19 H           1.5475   -2.2623    0.6107 H.spc      1 <1>        0.000
     20 H           3.3509    4.1249   -4.7548 H.spc      1 <1>        0.000
     21 H           3.2368   -2.1998   -3.5676 H.spc      1 <1>        0.000
     22 H           5.9095    0.4494   -4.8402 H.spc      1 <1>        0.000
     23 H           5.4739    3.1960   -5.5352 H.spc      1 <1>        0.000
@<TRIPOS>BOND
     1    7   11 1  
     2   11   12 1  
     3    2    3 1  
     4   15   16 1  
     5    1    2 1  
     6   11   14 1  
     7    6    9 2  
     8   15   17 2  
     9    2    5 1  
    10   15    8 1  
    11    6   10 1  
    12   12   15 1  
    13    6    7 1  
    14    2    4 2  
    15    3    6 1  
    16   11   13 2  
    17    1   18 1  
    18    5   19 1  
    19    8   20 1  
    20   10   21 1  
    21   14   22 1  
    22   16   23 1  
# Name:          frag3-253-4/96164 -- energy: -3.132966
# Creation time: Sat Jun  5 12:53:19 2010


@<TRIPOS>MOLECULE
frag3-253-4/96164 -- energy: -3.132966
   23    22     1     1     1
SMALL
USER_CHARGES


@<TRIPOS>ATOM
      1 O4          1.3832    0.2040   -0.8332 O.3        1 <1>        0.000
      2 P1          2.8109   -0.4318   -0.9646 P.3        1 <1>        0.000
      3 O5          2.7595   -1.5994   -2.0239 O.3        1 <1>        0.000
      4 O6          3.7430    0.5865   -1.4251 O.2        1 <1>        0.000
      5 O7          3.2636   -1.0514    0.3950 O.3        1 <1>        0.000
      6 P2          3.0160   -1.4456   -3.5517 P.3        1 <1>        0.000
      7 O8          4.3719   -0.6790   -3.8052 O.3        1 <1>        0.000
      8 O15         4.7794    3.9031   -4.3479 O.3        1 <1>        0.000
      9 O9          1.9466   -0.6186   -4.1396 O.2        1 <1>        0.000
     10 O10         3.1137   -2.8322   -4.2517 O.3        1 <1>        0.000
     11 P3          4.4643    0.6426   -4.5958 P.3        1 <1>        0.000
     12 O11         3.4307    1.7362   -4.1291 O.3        1 <1>        0.000
     13 O12         5.7653    1.2883   -4.5909 O.2        1 <1>        0.000
     14 O13         3.9685    0.3080   -6.0945 O.3        1 <1>        0.000
     15 P4          3.4325    3.1572   -4.7566 P.3        1 <1>        0.000
     16 O14         3.5690    2.9390   -6.3269 O.3        1 <1>        0.000
     17 O16         2.2357    3.9221   -4.4735 O.2        1 <1>        0.000
     18 H           0.7636   -0.4635   -0.5296 H.spc      1 <1>        0.000
     19 H           2.6287   -1.7172    0.6691 H.spc      1 <1>        0.000
     20 H           5.5305    3.3446   -4.5611 H.spc      1 <1>        0.000
     21 H           3.8172   -3.3449   -3.8469 H.spc      1 <1>        0.000
     22 H           3.1083   -0.1166   -6.0585 H.spc      1 <1>        0.000
     23 H           4.3631    2.4318   -6.5105 H.spc      1 <1>        0.000
@<TRIPOS>BOND
     1    7   11 1  
     2   11   12 1  
     3    2    3 1  
     4   15   16 1  
     5    1    2 1  
     6   11   14 1  
     7    6    9 2  
     8   15   17 2  
     9    2    5 1  
    10   15    8 1  
    11    6   10 1  
    12   12   15 1  
    13    6    7 1  
    14    2    4 2  
    15    3    6 1  
    16   11   13 2  
    17    1   18 1  
    18    5   19 1  
    19    8   20 1  
    20   10   21 1  
    21   14   22 1  
    22   16   23 1  
# Name:          frag3-253-4/96164 -- energy: -3.289943
# Creation time: Sat Jun  5 12:53:19 2010


@<TRIPOS>MOLECULE
frag3-253-4/96164 -- energy: -3.289943
   23    22     1     1     1
SMALL
USER_CHARGES


@<TRIPOS>ATOM
      1 O4          4.0018   -1.2708    0.2437 O.3        1 <1>        0.000
      2 P1          3.8432   -1.1536   -1.2913 P.3        1 <1>        0.000
      3 O5          2.3930   -0.7695   -1.7668 O.3        1 <1>        0.000
      4 O6          4.8137   -0.2185   -1.8349 O.2        1 <1>        0.000
      5 O7          4.0595   -2.5901   -1.9532 O.3        1 <1>        0.000
      6 P2          1.9991   -0.4775   -3.2634 P.3        1 <1>        0.000
      7 O8          3.1221    0.4733   -3.8423 O.3        1 <1>        0.000
      8 O15         3.1129    1.5650   -6.4554 O.3        1 <1>        0.000
      9 O9          0.7192    0.1799   -3.4206 O.2        1 <1>        0.000
     10 O10         2.0772   -1.8494   -4.0171 O.3        1 <1>        0.000
     11 P3          3.2185    2.0216   -3.5152 P.3        1 <1>        0.000
     12 O11         4.1661    2.7548   -4.4883 O.3        1 <1>        0.000
     13 O12         1.8689    2.5456   -3.6901 O.2        1 <1>        0.000
     14 O13         3.7669    2.1466   -2.0518 O.3        1 <1>        0.000
     15 P4          4.4899    2.1846   -5.8964 P.3        1 <1>        0.000
     16 O14         4.8783    3.3048   -6.8929 O.3        1 <1>        0.000
     17 O16         5.5237    1.1824   -5.7792 O.2        1 <1>        0.000
     18 H           3.3538   -1.8916    0.5848 H.spc      1 <1>        0.000
     19 H           3.4179   -3.2069   -1.5933 H.spc      1 <1>        0.000
     20 H           2.4533    2.2596   -6.5188 H.spc      1 <1>        0.000
     21 H           2.9433   -2.2399   -3.8796 H.spc      1 <1>        0.000
     22 H           4.6547    1.7836   -2.0119 H.spc      1 <1>        0.000
     23 H           4.1677    3.9484   -6.9420 H.spc      1 <1>        0.000
@<TRIPOS>BOND
     1    7   11 1  
     2   11   12 1  
     3    2    3 1  
     4   15   16 1  
     5    1    2 1  
     6   11   14 1  
     7    6    9 2  
     8   15   17 2  
     9    2    5 1  
    10   15    8 1  
    11    6   10 1  
    12   12   15 1  
    13    6    7 1  
    14    2    4 2  
    15    3    6 1  
    16   11   13 2  
    17    1   18 1  
    18    5   19 1  
    19    8   20 1  
    20   10   21 1  
    21   14   22 1  
    22   16   23 1  
# Name:          frag3-253-4/96164 -- energy: 2.717355
# Creation time: Sat Jun  5 12:53:19 2010


@<TRIPOS>MOLECULE
frag3-253-4/96164 -- energy: 2.717355
   23    22     1     1     1
SMALL
USER_CHARGES


@<TRIPOS>ATOM
      1 O4          4.4838    3.7297   -3.9423 O.3        1 <1>        0.000
      2 P1          3.3415    3.1207   -4.8534 P.3        1 <1>        0.000
      3 O5          3.9558    1.9153   -5.6351 O.3        1 <1>        0.000
      4 O6          2.2728    2.6757   -3.9884 O.2        1 <1>        0.000
      5 O7          2.8805    4.2004   -5.8713 O.3        1 <1>        0.000
      6 P2          4.5032    0.6108   -5.0220 P.3        1 <1>        0.000
      7 O8          3.4327   -0.1520   -4.1520 O.3        1 <1>        0.000
      8 O15         1.9824    0.3733    0.1313 O.3        1 <1>        0.000
      9 O9          5.6217    0.9381   -4.1106 O.2        1 <1>        0.000
     10 O10         4.9479   -0.3967   -6.1259 O.3        1 <1>        0.000
     11 P3          3.8014   -1.2744   -3.0956 P.3        1 <1>        0.000
     12 O11         3.4933   -0.7803   -1.6563 O.3        1 <1>        0.000
     13 O12         3.0659   -2.4903   -3.3297 O.2        1 <1>        0.000
     14 O13         5.3705   -1.4247   -3.2469 O.3        1 <1>        0.000
     15 P4          2.0520   -0.3291   -1.2599 P.3        1 <1>        0.000
     16 O14         1.6743    0.7725   -2.3321 O.3        1 <1>        0.000
     17 O16         1.1742   -1.4600   -1.4250 O.2        1 <1>        0.000
     18 H           5.2064    4.0328   -4.4969 H.spc      1 <1>        0.000
     19 H           3.6247    4.4605   -6.4192 H.spc      1 <1>        0.000
     20 H           2.5977    1.1100    0.1477 H.spc      1 <1>        0.000
     21 H           4.2033   -0.5895   -6.7003 H.spc      1 <1>        0.000
     22 H           5.7898   -0.5780   -3.0770 H.spc      1 <1>        0.000
     23 H           2.2548    1.5301   -2.2290 H.spc      1 <1>        0.000
@<TRIPOS>BOND
     1    7   11 1  
     2   11   12 1  
     3    2    3 1  
     4   15   16 1  
     5    1    2 1  
     6   11   14 1  
     7    6    9 2  
     8   15   17 2  
     9    2    5 1  
    10   15    8 1  
    11    6   10 1  
    12   12   15 1  
    13    6    7 1  
    14    2    4 2  
    15    3    6 1  
    16   11   13 2  
    17    1   18 1  
    18    5   19 1  
    19    8   20 1  
    20   10   21 1  
    21   14   22 1  
    22   16   23 1  
# Name:          frag3-253-4/96164 -- energy: 0.287177
# Creation time: Sat Jun  5 12:53:19 2010


@<TRIPOS>MOLECULE
frag3-253-4/96164 -- energy: 0.287177
   23    22     1     1     1
SMALL
USER_CHARGES


@<TRIPOS>ATOM
      1 O4          3.5904    3.4508   -3.5608 O.3        1 <1>        0.000
      2 P1          3.4020    3.1312   -5.1056 P.3        1 <1>        0.000
      3 O5          3.4686    1.5877   -5.2889 O.3        1 <1>        0.000
      4 O6          2.2344    3.8186   -5.5983 O.2        1 <1>        0.000
      5 O7          4.7227    3.6668   -5.8224 O.3        1 <1>        0.000
      6 P2          4.6592    0.6785   -4.7754 P.3        1 <1>        0.000
      7 O8          4.2437   -0.0371   -3.4432 O.3        1 <1>        0.000
      8 O15         1.4295    0.3914   -1.3425 O.3        1 <1>        0.000
      9 O9          5.8496    1.5112   -4.6571 O.2        1 <1>        0.000
     10 O10         4.8731   -0.5090   -5.7915 O.3        1 <1>        0.000
     11 P3          3.1007   -1.1349   -3.4062 P.3        1 <1>        0.000
     12 O11         2.8022   -1.6581   -1.9863 O.3        1 <1>        0.000
     13 O12         1.8811   -0.5105   -3.9190 O.2        1 <1>        0.000
     14 O13         3.5962   -2.3331   -4.3123 O.3        1 <1>        0.000
     15 P4          2.5284   -0.6532   -0.8255 P.3        1 <1>        0.000
     16 O14         1.8974   -1.3676    0.3987 O.3        1 <1>        0.000
     17 O16         3.7747   -0.0040   -0.4788 O.2        1 <1>        0.000
     18 H           4.3679    2.9930   -3.2330 H.spc      1 <1>        0.000
     19 H           5.4853    3.1956   -5.4790 H.spc      1 <1>        0.000
     20 H           0.6212   -0.0781   -1.5610 H.spc      1 <1>        0.000
     21 H           4.0706   -1.0334   -5.8426 H.spc      1 <1>        0.000
     22 H           4.3957   -2.7082   -3.9358 H.spc      1 <1>        0.000
     23 H           1.0749   -1.7863    0.1345 H.spc      1 <1>        0.000
@<TRIPOS>BOND
     1    7   11 1  
     2   11   12 1  
     3    2    3 1  
     4   15   16 1  
     5    1    2 1  
     6   11   14 1  
     7    6    9 2  
     8   15   17 2  
     9    2    5 1  
    10   15    8 1  
    11    6   10 1  
    12   12   15 1  
    13    6    7 1  
    14    2    4 2  
    15    3    6 1  
    16   11   13 2  
    17    1   18 1  
    18    5   19 1  
    19    8   20 1  
    20   10   21 1  
    21   14   22 1  
    22   16   23 1  
# Name:          frag3-253-4/96164 -- energy: -4.454679
# Creation time: Sat Jun  5 12:53:19 2010


@<TRIPOS>MOLECULE
frag3-253-4/96164 -- energy: -4.454679
   23    22     1     1     1
SMALL
USER_CHARGES


@<TRIPOS>ATOM
      1 O4          4.4229   -0.3133   -0.9679 O.3        1 <1>        0.000
      2 P1          3.2876   -1.4276   -1.0250 P.3        1 <1>        0.000
      3 O5          2.0720   -0.8264   -1.8118 O.3        1 <1>        0.000
      4 O6          3.8359   -2.5791   -1.7147 O.2        1 <1>        0.000
      5 O7          2.8915   -1.7526    0.4437 O.3        1 <1>        0.000
      6 P2          2.0818   -0.4306   -3.3180 P.3        1 <1>        0.000
      7 O8          3.4977    0.2306   -3.6229 O.3        1 <1>        0.000
      8 O15         4.8683    1.0424   -6.2136 O.3        1 <1>        0.000
      9 O9          1.0730    0.5333   -3.7029 O.2        1 <1>        0.000
     10 O10         2.0024   -1.7546   -4.1483 O.3        1 <1>        0.000
     11 P3          3.7482    1.7819   -3.5356 P.3        1 <1>        0.000
     12 O11         3.2601    2.4631   -4.8562 O.3        1 <1>        0.000
     13 O12         3.0347    2.2767   -2.3828 O.2        1 <1>        0.000
     14 O13         5.2962    2.0929   -3.5300 O.3        1 <1>        0.000
     15 P4          4.1665    2.5068   -6.1254 P.3        1 <1>        0.000
     16 O14         3.3585    2.6452   -7.4290 O.3        1 <1>        0.000
     17 O16         5.1567    3.5401   -5.9748 O.2        1 <1>        0.000
     18 H           4.0854    0.4628   -0.5148 H.spc      1 <1>        0.000
     19 H           2.5348   -0.9643    0.8596 H.spc      1 <1>        0.000
     20 H           4.1908    0.3696   -6.3136 H.spc      1 <1>        0.000
     21 H           2.6899   -2.3568   -3.8547 H.spc      1 <1>        0.000
     22 H           5.6965    1.7334   -4.3250 H.spc      1 <1>        0.000
     23 H           2.7143    1.9354   -7.4818 H.spc      1 <1>        0.000
@<TRIPOS>BOND
     1    7   11 1  
     2   11   12 1  
     3    2    3 1  
     4   15   16 1  
     5    1    2 1  
     6   11   14 1  
     7    6    9 2  
     8   15   17 2  
     9    2    5 1  
    10   15    8 1  
    11    6   10 1  
    12   12   15 1  
    13    6    7 1  
    14    2    4 2  
    15    3    6 1  
    16   11   13 2  
    17    1   18 1  
    18    5   19 1  
    19    8   20 1  
    20   10   21 1  
    21   14   22 1  
    22   16   23 1  
# Name:          frag3-253-4/96164 -- energy: -3.792765
# Creation time: Sat Jun  5 12:53:19 2010


@<TRIPOS>MOLECULE
frag3-253-4/96164 -- energy: -3.792765
   23    22     1     1     1
SMALL
USER_CHARGES


@<TRIPOS>ATOM
      1 O4          2.3608   -1.2584    0.0558 O.3        1 <1>        0.000
      2 P1          3.5776   -0.6932   -0.7586 P.3        1 <1>        0.000
      3 O5          3.7510   -1.5390   -2.0666 O.3        1 <1>        0.000
      4 O6          3.2918    0.6825   -1.1265 O.2        1 <1>        0.000
      5 O7          4.8802   -0.8205    0.0835 O.3        1 <1>        0.000
      6 P2          3.1362   -1.2278   -3.4539 P.3        1 <1>        0.000
      7 O8          3.5252    0.2064   -3.9617 O.3        1 <1>        0.000
      8 O15         4.6223    2.7253   -6.6666 O.3        1 <1>        0.000
      9 O9          1.6737   -1.2370   -3.3106 O.2        1 <1>        0.000
     10 O10         3.6146   -2.2451   -4.5273 O.3        1 <1>        0.000
     11 P3          2.5610    1.1347   -4.7865 P.3        1 <1>        0.000
     12 O11         2.9749    2.6212   -4.7471 O.3        1 <1>        0.000
     13 O12         2.5867    0.7106   -6.1800 O.2        1 <1>        0.000
     14 O13         1.1465    0.9952   -4.1123 O.3        1 <1>        0.000
     15 P4          4.4161    3.0620   -5.1193 P.3        1 <1>        0.000
     16 O14         4.6093    4.5878   -4.9682 O.3        1 <1>        0.000
     17 O16         5.3262    2.3242   -4.2695 O.2        1 <1>        0.000
     18 H           2.5387   -2.1683    0.3047 H.spc      1 <1>        0.000
     19 H           5.0290   -1.7431    0.3031 H.spc      1 <1>        0.000
     20 H           3.9998    3.2356   -7.1897 H.spc      1 <1>        0.000
     21 H           4.5717   -2.2120   -4.5938 H.spc      1 <1>        0.000
     22 H           1.1977    1.2896   -3.2000 H.spc      1 <1>        0.000
     23 H           3.9923    5.0459   -5.5436 H.spc      1 <1>        0.000
@<TRIPOS>BOND
     1    7   11 1  
     2   11   12 1  
     3    2    3 1  
     4   15   16 1  
     5    1    2 1  
     6   11   14 1  
     7    6    9 2  
     8   15   17 2  
     9    2    5 1  
    10   15    8 1  
    11    6   10 1  
    12   12   15 1  
    13    6    7 1  
    14    2    4 2  
    15    3    6 1  
    16   11   13 2  
    17    1   18 1  
    18    5   19 1  
    19    8   20 1  
    20   10   21 1  
    21   14   22 1  
    22   16   23 1  
# Name:          frag3-253-4/96164 -- energy: -3.948794
# Creation time: Sat Jun  5 12:53:19 2010


@<TRIPOS>MOLECULE
frag3-253-4/96164 -- energy: -3.948794
   23    22     1     1     1
SMALL
USER_CHARGES


@<TRIPOS>ATOM
      1 O4          4.4284   -0.6192   -0.8807 O.3        1 <1>        0.000
      2 P1          3.6794   -1.9087   -1.4537 P.3        1 <1>        0.000
      3 O5          2.4532   -1.3727   -2.2558 O.3        1 <1>        0.000
      4 O6          4.6248   -2.6726   -2.2370 O.2        1 <1>        0.000
      5 O7          3.1180   -2.7180   -0.2358 O.3        1 <1>        0.000
      6 P2          2.1694    0.1175   -2.5896 P.3        1 <1>        0.000
      7 O8          3.3072    0.7741   -3.4681 O.3        1 <1>        0.000
      8 O15         3.1213    1.1314   -6.4619 O.3        1 <1>        0.000
      9 O9          2.0781    0.8927   -1.3391 O.2        1 <1>        0.000
     10 O10         0.8721    0.2719   -3.4528 O.3        1 <1>        0.000
     11 P3          3.3112    2.3087   -3.8654 P.3        1 <1>        0.000
     12 O11         4.3971    2.6571   -4.9092 O.3        1 <1>        0.000
     13 O12         2.0083    2.5775   -4.4929 O.2        1 <1>        0.000
     14 O13         3.5415    3.0932   -2.5298 O.3        1 <1>        0.000
     15 P4          4.5512    1.8401   -6.2252 P.3        1 <1>        0.000
     16 O14         4.7769    2.7828   -7.4356 O.3        1 <1>        0.000
     17 O16         5.6159    0.8732   -6.0827 O.2        1 <1>        0.000
     18 H           3.8138   -0.0998   -0.3571 H.spc      1 <1>        0.000
     19 H           2.4973   -2.1713    0.2515 H.spc      1 <1>        0.000
     20 H           2.4427    1.8045   -6.5514 H.spc      1 <1>        0.000
     21 H           0.9618   -0.2430   -4.2581 H.spc      1 <1>        0.000
     22 H           4.4060    2.8727   -2.1755 H.spc      1 <1>        0.000
     23 H           4.0497    3.4069   -7.4937 H.spc      1 <1>        0.000
@<TRIPOS>BOND
     1    7   11 1  
     2   11   12 1  
     3    2    3 1  
     4   15   16 1  
     5    1    2 1  
     6   11   14 1  
     7    6    9 2  
     8   15   17 2  
     9    2    5 1  
    10   15    8 1  
    11    6   10 1  
    12   12   15 1  
    13    6    7 1  
    14    2    4 2  
    15    3    6 1  
    16   11   13 2  
    17    1   18 1  
    18    5   19 1  
    19    8   20 1  
    20   10   21 1  
    21   14   22 1  
    22   16   23 1  
# Name:          frag3-253-4/96164 -- energy: -4.157096
# Creation time: Sat Jun  5 12:53:19 2010


@<TRIPOS>MOLECULE
frag3-253-4/96164 -- energy: -4.157096
   23    22     1     1     1
SMALL
USER_CHARGES


@<TRIPOS>ATOM
      1 O4          3.5132    3.0825   -3.3411 O.3        1 <1>        0.000
      2 P1          3.1798    2.9570   -4.8952 P.3        1 <1>        0.000
      3 O5          3.5328    1.4953   -5.3293 O.3        1 <1>        0.000
      4 O6          1.8323    3.4079   -5.1294 O.2        1 <1>        0.000
      5 O7          4.2350    3.8505   -5.6780 O.3        1 <1>        0.000
      6 P2          4.8409    0.7127   -4.8630 P.3        1 <1>        0.000
      7 O8          4.4909   -0.0849   -3.5504 O.3        1 <1>        0.000
      8 O15         3.2650    0.7326   -1.1232 O.3        1 <1>        0.000
      9 O9          5.9126    1.6836   -4.6931 O.2        1 <1>        0.000
     10 O10         5.1875   -0.3854   -5.9288 O.3        1 <1>        0.000
     11 P3          3.2301   -1.0497   -3.4684 P.3        1 <1>        0.000
     12 O11         2.9692   -1.6190   -2.0537 O.3        1 <1>        0.000
     13 O12         2.0554   -0.2319   -3.8176 O.2        1 <1>        0.000
     14 O13         3.4886   -2.2219   -4.4883 O.3        1 <1>        0.000
     15 P4          2.5291   -0.6790   -0.8900 P.3        1 <1>        0.000
     16 O14         0.9958   -0.3786   -1.0748 O.3        1 <1>        0.000
     17 O16         2.7958   -1.2429    0.4093 O.2        1 <1>        0.000
     18 H           4.4112    2.7824   -3.1824 H.spc      1 <1>        0.000
     19 H           5.1210    3.5255   -5.5019 H.spc      1 <1>        0.000
     20 H           3.0539    1.0612   -2.0002 H.spc      1 <1>        0.000
     21 H           4.4533   -0.9993   -6.0045 H.spc      1 <1>        0.000
     22 H           4.2621   -2.7194   -4.2130 H.spc      1 <1>        0.000
     23 H           0.8469   -0.0047   -1.9464 H.spc      1 <1>        0.000
@<TRIPOS>BOND
     1    7   11 1  
     2   11   12 1  
     3    2    3 1  
     4   15   16 1  
     5    1    2 1  
     6   11   14 1  
     7    6    9 2  
     8   15   17 2  
     9    2    5 1  
    10   15    8 1  
    11    6   10 1  
    12   12   15 1  
    13    6    7 1  
    14    2    4 2  
    15    3    6 1  
    16   11   13 2  
    17    1   18 1  
    18    5   19 1  
    19    8   20 1  
    20   10   21 1  
    21   14   22 1  
    22   16   23 1  
# Name:          frag3-253-4/96164 -- energy: -3.813253
# Creation time: Sat Jun  5 12:53:19 2010


@<TRIPOS>MOLECULE
frag3-253-4/96164 -- energy: -3.813253
   23    22     1     1     1
SMALL
USER_CHARGES


@<TRIPOS>ATOM
      1 O4          2.1560    2.3896   -5.6982 O.3        1 <1>        0.000
      2 P1          3.6183    2.3404   -6.2902 P.3        1 <1>        0.000
      3 O5          4.4544    1.3274   -5.4338 O.3        1 <1>        0.000
      4 O6          3.5581    2.0932   -7.7194 O.2        1 <1>        0.000
      5 O7          4.3192    3.7337   -5.9844 O.3        1 <1>        0.000
      6 P2          4.6086    1.3774   -3.8489 P.3        1 <1>        0.000
      7 O8          3.9798    0.1215   -3.1792 O.3        1 <1>        0.000
      8 O15         3.6230   -0.1820   -0.3994 O.3        1 <1>        0.000
      9 O9          3.8405    2.5695   -3.4132 O.2        1 <1>        0.000
     10 O10         6.1172    1.5334   -3.5150 O.3        1 <1>        0.000
     11 P3          2.4231   -0.1628   -3.1117 P.3        1 <1>        0.000
     12 O11         2.0935   -1.2801   -2.0913 O.3        1 <1>        0.000
     13 O12         1.7939    1.0800   -2.6736 O.2        1 <1>        0.000
     14 O13         1.9910   -0.6268   -4.5479 O.3        1 <1>        0.000
     15 P4          3.0571   -1.5986   -0.9100 P.3        1 <1>        0.000
     16 O14         2.3005   -2.2236    0.2890 O.3        1 <1>        0.000
     17 O16         4.1197   -2.4632   -1.3880 O.2        1 <1>        0.000
     18 H           2.1999    2.5532   -4.7533 H.spc      1 <1>        0.000
     19 H           4.3474    3.8749   -5.0353 H.spc      1 <1>        0.000
     20 H           2.8933    0.3608   -0.0919 H.spc      1 <1>        0.000
     21 H           6.5908    0.7508   -3.8063 H.spc      1 <1>        0.000
     22 H           2.4416   -1.4455   -4.7675 H.spc      1 <1>        0.000
     23 H           1.6076   -1.6244    0.5762 H.spc      1 <1>        0.000
@<TRIPOS>BOND
     1    7   11 1  
     2   11   12 1  
     3    2    3 1  
     4   15   16 1  
     5    1    2 1  
     6   11   14 1  
     7    6    9 2  
     8   15   17 2  
     9    2    5 1  
    10   15    8 1  
    11    6   10 1  
    12   12   15 1  
    13    6    7 1  
    14    2    4 2  
    15    3    6 1  
    16   11   13 2  
    17    1   18 1  
    18    5   19 1  
    19    8   20 1  
    20   10   21 1  
    21   14   22 1  
    22   16   23 1  
# Name:          frag3-253-4/96164 -- energy: -3.639420
# Creation time: Sat Jun  5 12:53:19 2010


@<TRIPOS>MOLECULE
frag3-253-4/96164 -- energy: -3.639420
   23    22     1     1     1
SMALL
USER_CHARGES


@<TRIPOS>ATOM
      1 O4          4.1255   -1.3594   -0.1311 O.3        1 <1>        0.000
      2 P1          3.4596   -2.1443   -1.3318 P.3        1 <1>        0.000
      3 O5          3.4505   -1.2187   -2.5859 O.3        1 <1>        0.000
      4 O6          4.0862   -3.4440   -1.4644 O.2        1 <1>        0.000
      5 O7          1.9206   -2.3030   -0.9420 O.3        1 <1>        0.000
      6 P2          2.6490    0.1372   -2.6918 P.3        1 <1>        0.000
      7 O8          2.9902    1.0264   -3.9105 O.3        1 <1>        0.000
      8 O15         2.3379    2.9337   -6.3593 O.3        1 <1>        0.000
      9 O9          2.9425    0.9075   -1.4613 O.2        1 <1>        0.000
     10 O10         1.1293   -0.2704   -2.7133 O.3        1 <1>        0.000
     11 P3          4.0088    2.2255   -3.8444 P.3        1 <1>        0.000
     12 O11         4.5831    2.5542   -5.2459 O.3        1 <1>        0.000
     13 O12         3.3227    3.3933   -3.3172 O.2        1 <1>        0.000
     14 O13         5.1997    1.7111   -2.9400 O.3        1 <1>        0.000
     15 P4          3.7665    2.2335   -6.5359 P.3        1 <1>        0.000
     16 O14         4.4228    2.8552   -7.7925 O.3        1 <1>        0.000
     17 O16         3.6590    0.7909   -6.6481 O.2        1 <1>        0.000
     18 H           3.7101   -0.4984   -0.0436 H.spc      1 <1>        0.000
     19 H           1.5216   -1.4339   -0.8584 H.spc      1 <1>        0.000
     20 H           2.4550    3.8839   -6.2892 H.spc      1 <1>        0.000
     21 H           0.9442   -0.7692   -3.5124 H.spc      1 <1>        0.000
     22 H           5.6023    0.9421   -3.3500 H.spc      1 <1>        0.000
     23 H           4.4782    3.8076   -7.6852 H.spc      1 <1>        0.000
@<TRIPOS>BOND
     1    7   11 1  
     2   11   12 1  
     3    2    3 1  
     4   15   16 1  
     5    1    2 1  
     6   11   14 1  
     7    6    9 2  
     8   15   17 2  
     9    2    5 1  
    10   15    8 1  
    11    6   10 1  
    12   12   15 1  
    13    6    7 1  
    14    2    4 2  
    15    3    6 1  
    16   11   13 2  
    17    1   18 1  
    18    5   19 1  
    19    8   20 1  
    20   10   21 1  
    21   14   22 1  
    22   16   23 1  
# Name:          frag3-253-4/96164 -- energy: -4.265461
# Creation time: Sat Jun  5 12:53:20 2010


@<TRIPOS>MOLECULE
frag3-253-4/96164 -- energy: -4.265461
   23    22     1     1     1
SMALL
USER_CHARGES


@<TRIPOS>ATOM
      1 O4          4.4317   -0.0713   -1.0184 O.3        1 <1>        0.000
      2 P1          3.0902   -0.8838   -0.8343 P.3        1 <1>        0.000
      3 O5          2.1756   -0.5879   -2.0867 O.3        1 <1>        0.000
      4 O6          3.4187   -2.2961   -0.7772 O.2        1 <1>        0.000
      5 O7          2.3551   -0.3928    0.4436 O.3        1 <1>        0.000
      6 P2          2.5269   -0.9637   -3.5660 P.3        1 <1>        0.000
      7 O8          4.0283   -0.5427   -3.8102 O.3        1 <1>        0.000
      8 O15         4.8544    3.5593   -5.9897 O.3        1 <1>        0.000
      9 O9          1.7091   -0.3035   -4.5619 O.2        1 <1>        0.000
     10 O10         2.4230   -2.5219   -3.6277 O.3        1 <1>        0.000
     11 P3          4.4732    0.8725   -4.2253 P.3        1 <1>        0.000
     12 O11         3.5481    1.4699   -5.3589 O.3        1 <1>        0.000
     13 O12         4.2857    1.7863   -3.0975 O.2        1 <1>        0.000
     14 O13         5.9072    0.9324   -4.8544 O.3        1 <1>        0.000
     15 P4          3.4093    3.0140   -5.5502 P.3        1 <1>        0.000
     16 O14         2.4488    3.3815   -6.7048 O.3        1 <1>        0.000
     17 O16         2.9689    3.5768   -4.2958 O.2        1 <1>        0.000
     18 H           4.2332    0.8671   -1.0583 H.spc      1 <1>        0.000
     19 H           2.1596    0.5433    0.3592 H.spc      1 <1>        0.000
     20 H           5.1053    3.1597   -6.8257 H.spc      1 <1>        0.000
     21 H           2.9827   -2.9059   -2.9488 H.spc      1 <1>        0.000
     22 H           5.9612    0.3117   -5.5848 H.spc      1 <1>        0.000
     23 H           2.7693    2.9930   -7.5221 H.spc      1 <1>        0.000
@<TRIPOS>BOND
     1    7   11 1  
     2   11   12 1  
     3    2    3 1  
     4   15   16 1  
     5    1    2 1  
     6   11   14 1  
     7    6    9 2  
     8   15   17 2  
     9    2    5 1  
    10   15    8 1  
    11    6   10 1  
    12   12   15 1  
    13    6    7 1  
    14    2    4 2  
    15    3    6 1  
    16   11   13 2  
    17    1   18 1  
    18    5   19 1  
    19    8   20 1  
    20   10   21 1  
    21   14   22 1  
    22   16   23 1  
# Name:          frag3-253-4/96164 -- energy: -3.053947
# Creation time: Sat Jun  5 12:53:20 2010


@<TRIPOS>MOLECULE
frag3-253-4/96164 -- energy: -3.053947
   23    22     1     1     1
SMALL
USER_CHARGES


@<TRIPOS>ATOM
      1 O4          3.4726    0.2634   -0.3784 O.3        1 <1>        0.000
      2 P1          2.5656   -0.9882   -0.7371 P.3        1 <1>        0.000
      3 O5          1.9701   -0.7561   -2.1729 O.3        1 <1>        0.000
      4 O6          3.4055   -2.1721   -0.7043 O.2        1 <1>        0.000
      5 O7          1.3901   -1.0687    0.2814 O.3        1 <1>        0.000
      6 P2          2.8048   -0.6168   -3.4571 P.3        1 <1>        0.000
      7 O8          3.7702    0.6400   -3.4544 O.3        1 <1>        0.000
      8 O15         3.9036    3.5906   -4.0997 O.3        1 <1>        0.000
      9 O9          2.0891   -0.6663   -4.7148 O.2        1 <1>        0.000
     10 O10         3.8564   -1.8357   -3.3850 O.3        1 <1>        0.000
     11 P3          4.8142    0.9170   -4.6113 P.3        1 <1>        0.000
     12 O11         4.0833    1.6863   -5.7635 O.3        1 <1>        0.000
     13 O12         5.9286    1.7347   -4.1763 O.2        1 <1>        0.000
     14 O13         5.2198   -0.5063   -5.1550 O.3        1 <1>        0.000
     15 P4          3.2962    3.0005   -5.4732 P.3        1 <1>        0.000
     16 O14         3.5996    4.0759   -6.5530 O.3        1 <1>        0.000
     17 O16         1.8841    2.7304   -5.3607 O.2        1 <1>        0.000
     18 H           2.9372    1.0601   -0.3939 H.spc      1 <1>        0.000
     19 H           0.8637   -0.2679    0.2248 H.spc      1 <1>        0.000
     20 H           4.8423    3.7577   -4.2120 H.spc      1 <1>        0.000
     21 H           4.3291   -1.8001   -2.5502 H.spc      1 <1>        0.000
     22 H           4.4301   -0.9829   -5.4213 H.spc      1 <1>        0.000
     23 H           4.5468    4.2260   -6.5962 H.spc      1 <1>        0.000
@<TRIPOS>BOND
     1    7   11 1  
     2   11   12 1  
     3    2    3 1  
     4   15   16 1  
     5    1    2 1  
     6   11   14 1  
     7    6    9 2  
     8   15   17 2  
     9    2    5 1  
    10   15    8 1  
    11    6   10 1  
    12   12   15 1  
    13    6    7 1  
    14    2    4 2  
    15    3    6 1  
    16   11   13 2  
    17    1   18 1  
    18    5   19 1  
    19    8   20 1  
    20   10   21 1  
    21   14   22 1  
    22   16   23 1  
# Name:          frag3-253-4/96164 -- energy: 1.070189
# Creation time: Sat Jun  5 12:53:20 2010


@<TRIPOS>MOLECULE
frag3-253-4/96164 -- energy: 1.070189
   23    22     1     1     1
SMALL
USER_CHARGES


@<TRIPOS>ATOM
      1 O4          4.8146    3.1348   -3.4167 O.3        1 <1>        0.000
      2 P1          4.2709    3.3905   -4.8796 P.3        1 <1>        0.000
      3 O5          3.1416    2.3634   -5.1738 O.3        1 <1>        0.000
      4 O6          3.9504    4.7899   -5.0422 O.2        1 <1>        0.000
      5 O7          5.4288    2.9540   -5.8860 O.3        1 <1>        0.000
      6 P2          3.2966    0.8184   -5.0690 P.3        1 <1>        0.000
      7 O8          3.0043    0.2145   -3.6473 O.3        1 <1>        0.000
      8 O15         1.5698    0.1603   -1.2402 O.3        1 <1>        0.000
      9 O9          4.6888    0.4641   -5.4359 O.2        1 <1>        0.000
     10 O10         2.2730    0.0852   -6.0095 O.3        1 <1>        0.000
     11 P3          2.9745   -1.3531   -3.3720 P.3        1 <1>        0.000
     12 O11         3.2026   -1.6636   -1.8739 O.3        1 <1>        0.000
     13 O12         1.6818   -1.8705   -3.7939 O.2        1 <1>        0.000
     14 O13         4.1974   -1.9234   -4.1897 O.3        1 <1>        0.000
     15 P4          2.9139   -0.5916   -0.7761 P.3        1 <1>        0.000
     16 O14         2.6025   -1.2551    0.5872 O.3        1 <1>        0.000
     17 O16         4.0422    0.3110   -0.6968 O.2        1 <1>        0.000
     18 H           5.0262    2.2041   -3.3133 H.spc      1 <1>        0.000
     19 H           5.6255    2.0227   -5.7612 H.spc      1 <1>        0.000
     20 H           0.8483   -0.4717   -1.2798 H.spc      1 <1>        0.000
     21 H           1.3787    0.3265   -5.7572 H.spc      1 <1>        0.000
     22 H           5.0112   -1.5386   -3.8562 H.spc      1 <1>        0.000
     23 H           1.8503   -1.8438    0.4909 H.spc      1 <1>        0.000
@<TRIPOS>BOND
     1    7   11 1  
     2   11   12 1  
     3    2    3 1  
     4   15   16 1  
     5    1    2 1  
     6   11   14 1  
     7    6    9 2  
     8   15   17 2  
     9    2    5 1  
    10   15    8 1  
    11    6   10 1  
    12   12   15 1  
    13    6    7 1  
    14    2    4 2  
    15    3    6 1  
    16   11   13 2  
    17    1   18 1  
    18    5   19 1  
    19    8   20 1  
    20   10   21 1  
    21   14   22 1  
    22   16   23 1  
# Name:          frag3-253-4/96164 -- energy: -3.802238
# Creation time: Sat Jun  5 12:53:20 2010


@<TRIPOS>MOLECULE
frag3-253-4/96164 -- energy: -3.802238
   23    22     1     1     1
SMALL
USER_CHARGES


@<TRIPOS>ATOM
      1 O4          3.4475    0.4787    0.0917 O.3        1 <1>        0.000
      2 P1          2.7720   -0.2673   -1.0921 P.3        1 <1>        0.000
      3 O5          3.6760   -0.4052   -2.3701 O.3        1 <1>        0.000
      4 O6          2.3147   -1.5756   -0.6617 O.2        1 <1>        0.000
      5 O7          1.5399    0.6008   -1.6020 O.3        1 <1>        0.000
      6 P2          3.3661   -1.3994   -3.5685 P.3        1 <1>        0.000
      7 O8          3.9824   -0.8879   -4.8994 O.3        1 <1>        0.000
      8 O15         5.3071    3.2858   -3.9477 O.3        1 <1>        0.000
      9 O9          1.9076   -1.4816   -3.6842 O.2        1 <1>        0.000
     10 O10         4.0105   -2.7649   -3.1851 O.3        1 <1>        0.000
     11 P3          3.9540    0.5825   -5.3490 P.3        1 <1>        0.000
     12 O11         3.4547    1.5438   -4.1752 O.3        1 <1>        0.000
     13 O12         5.2669    1.1109   -5.7007 O.2        1 <1>        0.000
     14 O13         2.8700    0.7857   -6.4789 O.3        1 <1>        0.000
     15 P4          3.7555    3.0783   -4.2188 P.3        1 <1>        0.000
     16 O14         3.5323    3.5015   -5.7264 O.3        1 <1>        0.000
     17 O16         2.8967    3.8427   -3.3472 O.2        1 <1>        0.000
     18 H           3.7458    1.3419   -0.2040 H.spc      1 <1>        0.000
     19 H           1.8527    1.4635   -1.8841 H.spc      1 <1>        0.000
     20 H           5.8128    2.7487   -4.5620 H.spc      1 <1>        0.000
     21 H           4.9628   -2.6614   -3.1214 H.spc      1 <1>        0.000
     22 H           2.0325    0.4183   -6.1871 H.spc      1 <1>        0.000
     23 H           4.1105    2.9841   -6.2918 H.spc      1 <1>        0.000
@<TRIPOS>BOND
     1    7   11 1  
     2   11   12 1  
     3    2    3 1  
     4   15   16 1  
     5    1    2 1  
     6   11   14 1  
     7    6    9 2  
     8   15   17 2  
     9    2    5 1  
    10   15    8 1  
    11    6   10 1  
    12   12   15 1  
    13    6    7 1  
    14    2    4 2  
    15    3    6 1  
    16   11   13 2  
    17    1   18 1  
    18    5   19 1  
    19    8   20 1  
    20   10   21 1  
    21   14   22 1  
    22   16   23 1  
# Name:          frag3-253-4/96164 -- energy: -3.406060
# Creation time: Sat Jun  5 12:53:20 2010


@<TRIPOS>MOLECULE
frag3-253-4/96164 -- energy: -3.406060
   23    22     1     1     1
SMALL
USER_CHARGES


@<TRIPOS>ATOM
      1 O4          1.9085   -1.4384   -0.1482 O.3        1 <1>        0.000
      2 P1          3.2582   -0.7254   -0.5334 P.3        1 <1>        0.000
      3 O5          3.8345   -1.4052   -1.8171 O.3        1 <1>        0.000
      4 O6          2.9880    0.6731   -0.7960 O.2        1 <1>        0.000
      5 O7          4.2902   -0.9140    0.6217 O.3        1 <1>        0.000
      6 P2          3.3341   -1.1697   -3.2567 P.3        1 <1>        0.000
      7 O8          3.4540    0.3367   -3.7070 O.3        1 <1>        0.000
      8 O15         5.1984    2.7365   -5.9342 O.3        1 <1>        0.000
      9 O9          1.9240   -1.5587   -3.3584 O.2        1 <1>        0.000
     10 O10         4.2150   -1.9371   -4.3062 O.3        1 <1>        0.000
     11 P3          3.0631    0.8317   -5.1410 P.3        1 <1>        0.000
     12 O11         2.8017    2.3468   -5.2467 O.3        1 <1>        0.000
     13 O12         4.1694    0.5370   -6.0563 O.2        1 <1>        0.000
     14 O13         1.7437    0.0584   -5.5211 O.3        1 <1>        0.000
     15 P4          3.9527    3.3748   -5.1258 P.3        1 <1>        0.000
     16 O14         3.6442    4.7032   -5.8532 O.3        1 <1>        0.000
     17 O16         4.2740    3.5792   -3.7358 O.2        1 <1>        0.000
     18 H           2.0773   -2.3669    0.0279 H.spc      1 <1>        0.000
     19 H           4.4415   -1.8512    0.7642 H.spc      1 <1>        0.000
     20 H           4.9523    2.6134   -6.8539 H.spc      1 <1>        0.000
     21 H           5.1304   -1.6625   -4.2158 H.spc      1 <1>        0.000
     22 H           1.0510    0.2830   -4.8955 H.spc      1 <1>        0.000
     23 H           3.4361    4.5224   -6.7728 H.spc      1 <1>        0.000
@<TRIPOS>BOND
     1    7   11 1  
     2   11   12 1  
     3    2    3 1  
     4   15   16 1  
     5    1    2 1  
     6   11   14 1  
     7    6    9 2  
     8   15   17 2  
     9    2    5 1  
    10   15    8 1  
    11    6   10 1  
    12   12   15 1  
    13    6    7 1  
    14    2    4 2  
    15    3    6 1  
    16   11   13 2  
    17    1   18 1  
    18    5   19 1  
    19    8   20 1  
    20   10   21 1  
    21   14   22 1  
    22   16   23 1  
# Name:          frag3-253-4/96164 -- energy: -3.576526
# Creation time: Sat Jun  5 12:53:20 2010


@<TRIPOS>MOLECULE
frag3-253-4/96164 -- energy: -3.576526
   23    22     1     1     1
SMALL
USER_CHARGES


@<TRIPOS>ATOM
      1 O4          2.5885    0.9009   -1.0586 O.3        1 <1>        0.000
      2 P1          2.6213   -0.6424   -0.6906 P.3        1 <1>        0.000
      3 O5          3.4447   -1.3665   -1.8029 O.3        1 <1>        0.000
      4 O6          3.0858   -0.8027    0.6666 O.2        1 <1>        0.000
      5 O7          1.1501   -1.2067   -0.8727 O.3        1 <1>        0.000
      6 P2          3.3557   -1.0425   -3.3221 P.3        1 <1>        0.000
      7 O8          4.3215    0.0996   -3.8155 O.3        1 <1>        0.000
      8 O15         4.3722    2.9190   -3.4468 O.3        1 <1>        0.000
      9 O9          1.9660   -0.6274   -3.6347 O.2        1 <1>        0.000
     10 O10         3.7360   -2.3141   -4.1682 O.3        1 <1>        0.000
     11 P3          4.2958    0.6284   -5.3060 P.3        1 <1>        0.000
     12 O11         3.2565    1.7964   -5.4331 O.3        1 <1>        0.000
     13 O12         5.5833    1.1677   -5.7121 O.2        1 <1>        0.000
     14 O13         3.7907   -0.5836   -6.1746 O.3        1 <1>        0.000
     15 P4          3.5515    3.1905   -4.8063 P.3        1 <1>        0.000
     16 O14         4.5696    3.9334   -5.7451 O.3        1 <1>        0.000
     17 O16         2.3648    3.9790   -4.5924 O.2        1 <1>        0.000
     18 H           2.2795    1.0070   -1.9613 H.spc      1 <1>        0.000
     19 H           0.8724   -1.0850   -1.7835 H.spc      1 <1>        0.000
     20 H           5.1500    2.3919   -3.6437 H.spc      1 <1>        0.000
     21 H           4.6357   -2.5773   -3.9614 H.spc      1 <1>        0.000
     22 H           2.9395   -0.8799   -5.8441 H.spc      1 <1>        0.000
     23 H           5.3479    3.3851   -5.8688 H.spc      1 <1>        0.000
@<TRIPOS>BOND
     1    7   11 1  
     2   11   12 1  
     3    2    3 1  
     4   15   16 1  
     5    1    2 1  
     6   11   14 1  
     7    6    9 2  
     8   15   17 2  
     9    2    5 1  
    10   15    8 1  
    11    6   10 1  
    12   12   15 1  
    13    6    7 1  
    14    2    4 2  
    15    3    6 1  
    16   11   13 2  
    17    1   18 1  
    18    5   19 1  
    19    8   20 1  
    20   10   21 1  
    21   14   22 1  
    22   16   23 1  
# Name:          frag3-253-4/96164 -- energy: -1.072571
# Creation time: Sat Jun  5 12:53:20 2010


@<TRIPOS>MOLECULE
frag3-253-4/96164 -- energy: -1.072571
   23    22     1     1     1
SMALL
USER_CHARGES


@<TRIPOS>ATOM
      1 O4          5.6241    2.0866   -4.3948 O.3        1 <1>        0.000
      2 P1          4.2855    2.9407   -4.3509 P.3        1 <1>        0.000
      3 O5          3.0930    1.9451   -4.5443 O.3        1 <1>        0.000
      4 O6          4.2759    3.7544   -3.1613 O.2        1 <1>        0.000
      5 O7          4.2521    3.8276   -5.6653 O.3        1 <1>        0.000
      6 P2          3.0795    0.7353   -5.5974 P.3        1 <1>        0.000
      7 O8          3.7084   -0.5090   -4.8981 O.3        1 <1>        0.000
      8 O15         3.3042    0.8608    0.0577 O.3        1 <1>        0.000
      9 O9          3.7977    1.1810   -6.7829 O.2        1 <1>        0.000
     10 O10         1.5836    0.3899   -5.8978 O.3        1 <1>        0.000
     11 P3          3.2330   -1.0163   -3.5109 P.3        1 <1>        0.000
     12 O11         3.7727   -0.1770   -2.2913 O.3        1 <1>        0.000
     13 O12         1.7630   -0.8367   -3.4568 O.2        1 <1>        0.000
     14 O13         3.6860   -2.4828   -3.1979 O.3        1 <1>        0.000
     15 P4          3.1868   -0.4083   -0.8469 P.3        1 <1>        0.000
     16 O14         1.6332   -0.6510   -1.0798 O.3        1 <1>        0.000
     17 O16         3.7753   -1.6115   -0.2966 O.2        1 <1>        0.000
     18 H           5.6307    1.5446   -5.1871 H.spc      1 <1>        0.000
     19 H           4.2594    3.2556   -6.4362 H.spc      1 <1>        0.000
     20 H           2.8899    1.6061   -0.3833 H.spc      1 <1>        0.000
     21 H           1.1541    0.1023   -5.0888 H.spc      1 <1>        0.000
     22 H           4.6431   -2.5383   -3.2475 H.spc      1 <1>        0.000
     23 H           1.2375    0.1439   -1.4448 H.spc      1 <1>        0.000
@<TRIPOS>BOND
     1    7   11 1  
     2   11   12 1  
     3    2    3 1  
     4   15   16 1  
     5    1    2 1  
     6   11   14 1  
     7    6    9 2  
     8   15   17 2  
     9    2    5 1  
    10   15    8 1  
    11    6   10 1  
    12   12   15 1  
    13    6    7 1  
    14    2    4 2  
    15    3    6 1  
    16   11   13 2  
    17    1   18 1  
    18    5   19 1  
    19    8   20 1  
    20   10   21 1  
    21   14   22 1  
    22   16   23 1  
# Name:          frag3-253-4/96164 -- energy: -4.909109
# Creation time: Sat Jun  5 12:53:20 2010


@<TRIPOS>MOLECULE
frag3-253-4/96164 -- energy: -4.909109
   23    22     1     1     1
SMALL
USER_CHARGES


@<TRIPOS>ATOM
      1 O4          2.7337    1.2468   -1.2458 O.3        1 <1>        0.000
      2 P1          2.7594   -0.2776   -0.8403 P.3        1 <1>        0.000
      3 O5          2.1666   -1.0799   -2.0582 O.3        1 <1>        0.000
      4 O6          4.1401   -0.6651   -0.6105 O.2        1 <1>        0.000
      5 O7          1.8518   -0.5172    0.3940 O.3        1 <1>        0.000
      6 P2          2.7792   -1.1484   -3.4727 P.3        1 <1>        0.000
      7 O8          3.2991    0.2673   -3.9534 O.3        1 <1>        0.000
      8 O15         5.2160    2.4132   -3.6237 O.3        1 <1>        0.000
      9 O9          1.9143   -1.6730   -4.5119 O.2        1 <1>        0.000
     10 O10         4.1044   -2.0010   -3.3240 O.3        1 <1>        0.000
     11 P3          3.7616    0.5679   -5.4391 P.3        1 <1>        0.000
     12 O11         3.8524    2.0834   -5.7087 O.3        1 <1>        0.000
     13 O12         5.0670   -0.0373   -5.6388 O.2        1 <1>        0.000
     14 O13         2.6181   -0.0322   -6.3345 O.3        1 <1>        0.000
     15 P4          4.1204    3.1068   -4.5799 P.3        1 <1>        0.000
     16 O14         4.7850    4.4031   -5.0943 O.3        1 <1>        0.000
     17 O16         2.8849    3.3720   -3.8736 O.2        1 <1>        0.000
     18 H           1.8267    1.5200   -1.4017 H.spc      1 <1>        0.000
     19 H           0.9546   -0.2451    0.1877 H.spc      1 <1>        0.000
     20 H           6.0196    2.2525   -4.1237 H.spc      1 <1>        0.000
     21 H           4.6495   -1.6246   -2.6292 H.spc      1 <1>        0.000
     22 H           1.7929    0.4194   -6.1429 H.spc      1 <1>        0.000
     23 H           5.5981    4.1835   -5.5549 H.spc      1 <1>        0.000
@<TRIPOS>BOND
     1    7   11 1  
     2   11   12 1  
     3    2    3 1  
     4   15   16 1  
     5    1    2 1  
     6   11   14 1  
     7    6    9 2  
     8   15   17 2  
     9    2    5 1  
    10   15    8 1  
    11    6   10 1  
    12   12   15 1  
    13    6    7 1  
    14    2    4 2  
    15    3    6 1  
    16   11   13 2  
    17    1   18 1  
    18    5   19 1  
    19    8   20 1  
    20   10   21 1  
    21   14   22 1  
    22   16   23 1  
# Name:          frag3-253-4/96164 -- energy: -3.867701
# Creation time: Sat Jun  5 12:53:20 2010


@<TRIPOS>MOLECULE
frag3-253-4/96164 -- energy: -3.867701
   23    22     1     1     1
SMALL
USER_CHARGES


@<TRIPOS>ATOM
      1 O4          3.1320    3.7731   -5.3867 O.3        1 <1>        0.000
      2 P1          2.8041    2.5372   -4.4669 P.3        1 <1>        0.000
      3 O5          3.2815    1.2328   -5.2018 O.3        1 <1>        0.000
      4 O6          3.5281    2.6893   -3.2154 O.2        1 <1>        0.000
      5 O7          1.2641    2.4630   -4.2417 O.3        1 <1>        0.000
      6 P2          4.7838    0.7413   -5.3153 P.3        1 <1>        0.000
      7 O8          5.2599    0.4696   -3.8462 O.3        1 <1>        0.000
      8 O15         2.5918   -1.7509   -0.9752 O.3        1 <1>        0.000
      9 O9          5.5532    1.7513   -6.0102 O.2        1 <1>        0.000
     10 O10         4.8009   -0.6488   -6.0340 O.3        1 <1>        0.000
     11 P3          4.4443   -0.3750   -2.8352 P.3        1 <1>        0.000
     12 O11         3.2004    0.3534   -2.2133 O.3        1 <1>        0.000
     13 O12         3.8434   -1.4984   -3.5864 O.2        1 <1>        0.000
     14 O13         5.2730   -0.8547   -1.5893 O.3        1 <1>        0.000
     15 P4          1.9657   -0.4431   -1.6665 P.3        1 <1>        0.000
     16 O14         1.2329    0.3509   -0.5586 O.3        1 <1>        0.000
     17 O16         1.0951   -0.7621   -2.7726 O.2        1 <1>        0.000
     18 H           2.6599    3.6860   -6.2181 H.spc      1 <1>        0.000
     19 H           0.8225    2.3630   -5.0882 H.spc      1 <1>        0.000
     20 H           3.1607   -1.4862   -0.2486 H.spc      1 <1>        0.000
     21 H           4.2766   -1.2751   -5.5295 H.spc      1 <1>        0.000
     22 H           5.6405   -0.0914   -1.1377 H.spc      1 <1>        0.000
     23 H           1.8457    0.5418    0.1553 H.spc      1 <1>        0.000
@<TRIPOS>BOND
     1    7   11 1  
     2   11   12 1  
     3    2    3 1  
     4   15   16 1  
     5    1    2 1  
     6   11   14 1  
     7    6    9 2  
     8   15   17 2  
     9    2    5 1  
    10   15    8 1  
    11    6   10 1  
    12   12   15 1  
    13    6    7 1  
    14    2    4 2  
    15    3    6 1  
    16   11   13 2  
    17    1   18 1  
    18    5   19 1  
    19    8   20 1  
    20   10   21 1  
    21   14   22 1  
    22   16   23 1  
# Name:          frag3-253-4/96164 -- energy: -3.734367
# Creation time: Sat Jun  5 12:53:20 2010


@<TRIPOS>MOLECULE
frag3-253-4/96164 -- energy: -3.734367
   23    22     1     1     1
SMALL
USER_CHARGES


@<TRIPOS>ATOM
      1 O4          3.6642    3.9929   -5.5074 O.3        1 <1>        0.000
      2 P1          2.8347    2.7154   -5.0712 P.3        1 <1>        0.000
      3 O5          3.6144    1.4434   -5.5763 O.3        1 <1>        0.000
      4 O6          2.7165    2.7187   -3.6243 O.2        1 <1>        0.000
      5 O7          1.4377    2.7587   -5.7717 O.3        1 <1>        0.000
      6 P2          5.0596    1.0266   -5.0835 P.3        1 <1>        0.000
      7 O8          4.9401    0.7124   -3.5434 O.3        1 <1>        0.000
      8 O15         1.0243   -0.2071   -1.2239 O.3        1 <1>        0.000
      9 O9          5.9972    2.0873   -5.3913 O.2        1 <1>        0.000
     10 O10         5.4566   -0.3450   -5.7399 O.3        1 <1>        0.000
     11 P3          3.8519   -0.2249   -2.9629 P.3        1 <1>        0.000
     12 O11         3.5760   -0.2624   -1.4437 O.3        1 <1>        0.000
     13 O12         2.5588    0.0894   -3.6089 O.2        1 <1>        0.000
     14 O13         4.2714   -1.7435   -3.3227 O.3        1 <1>        0.000
     15 P4          2.3450   -1.0248   -0.8671 P.3        1 <1>        0.000
     16 O14         2.2269   -2.3715   -1.7101 O.3        1 <1>        0.000
     17 O16         2.4786   -1.3367    0.5330 O.2        1 <1>        0.000
     18 H           3.7514    4.0054   -6.4634 H.spc      1 <1>        0.000
     19 H           1.5583    2.7552   -6.7241 H.spc      1 <1>        0.000
     20 H           1.0010   -0.0351   -2.1681 H.spc      1 <1>        0.000
     21 H           4.8058   -1.0107   -5.5059 H.spc      1 <1>        0.000
     22 H           5.1105   -1.9501   -2.9046 H.spc      1 <1>        0.000
     23 H           2.1381   -2.1577   -2.6418 H.spc      1 <1>        0.000
@<TRIPOS>BOND
     1    7   11 1  
     2   11   12 1  
     3    2    3 1  
     4   15   16 1  
     5    1    2 1  
     6   11   14 1  
     7    6    9 2  
     8   15   17 2  
     9    2    5 1  
    10   15    8 1  
    11    6   10 1  
    12   12   15 1  
    13    6    7 1  
    14    2    4 2  
    15    3    6 1  
    16   11   13 2  
    17    1   18 1  
    18    5   19 1  
    19    8   20 1  
    20   10   21 1  
    21   14   22 1  
    22   16   23 1  
# Name:          frag3-253-4/96164 -- energy: -3.869380
# Creation time: Sat Jun  5 12:53:20 2010


@<TRIPOS>MOLECULE
frag3-253-4/96164 -- energy: -3.869380
   23    22     1     1     1
SMALL
USER_CHARGES


@<TRIPOS>ATOM
      1 O4          3.4760   -0.6405    0.3363 O.3        1 <1>        0.000
      2 P1          2.9623   -1.6760   -0.7189 P.3        1 <1>        0.000
      3 O5          2.0280   -0.9524   -1.7640 O.3        1 <1>        0.000
      4 O6          4.0987   -2.2479   -1.4193 O.2        1 <1>        0.000
      5 O7          2.1120   -2.7776   -0.0118 O.3        1 <1>        0.000
      6 P2          2.5045   -0.3681   -3.1107 P.3        1 <1>        0.000
      7 O8          3.8753    0.3968   -2.9395 O.3        1 <1>        0.000
      8 O15         3.0587    2.4382   -7.6534 O.3        1 <1>        0.000
      9 O9          1.5795    0.5193   -3.7755 O.2        1 <1>        0.000
     10 O10         2.8424   -1.6358   -4.0132 O.3        1 <1>        0.000
     11 P3          4.3150    1.5641   -3.8450 P.3        1 <1>        0.000
     12 O11         3.5983    1.4964   -5.2632 O.3        1 <1>        0.000
     13 O12         3.9026    2.8361   -3.2812 O.2        1 <1>        0.000
     14 O13         5.8414    1.4789   -4.2175 O.3        1 <1>        0.000
     15 P4          3.7448    2.6839   -6.2625 P.3        1 <1>        0.000
     16 O14         2.9661    3.9080   -5.6282 O.3        1 <1>        0.000
     17 O16         5.1484    3.0056   -6.3476 O.2        1 <1>        0.000
     18 H           2.7269   -0.2606    0.8011 H.spc      1 <1>        0.000
     19 H           1.3711   -2.3674    0.4403 H.spc      1 <1>        0.000
     20 H           2.1311    2.2304   -7.5191 H.spc      1 <1>        0.000
     21 H           3.4578   -2.2052   -3.5456 H.spc      1 <1>        0.000
     22 H           6.0328    0.6116   -4.5819 H.spc      1 <1>        0.000
     23 H           2.0316    3.6961   -5.5706 H.spc      1 <1>        0.000
@<TRIPOS>BOND
     1    7   11 1  
     2   11   12 1  
     3    2    3 1  
     4   15   16 1  
     5    1    2 1  
     6   11   14 1  
     7    6    9 2  
     8   15   17 2  
     9    2    5 1  
    10   15    8 1  
    11    6   10 1  
    12   12   15 1  
    13    6    7 1  
    14    2    4 2  
    15    3    6 1  
    16   11   13 2  
    17    1   18 1  
    18    5   19 1  
    19    8   20 1  
    20   10   21 1  
    21   14   22 1  
    22   16   23 1  
# Name:          frag3-253-4/96164 -- energy: -4.678044
# Creation time: Sat Jun  5 12:53:20 2010


@<TRIPOS>MOLECULE
frag3-253-4/96164 -- energy: -4.678044
   23    22     1     1     1
SMALL
USER_CHARGES


@<TRIPOS>ATOM
      1 O4          4.0283    3.3978   -3.5556 O.3        1 <1>        0.000
      2 P1          3.4434    3.0126   -4.9725 P.3        1 <1>        0.000
      3 O5          4.4250    1.9906   -5.6356 O.3        1 <1>        0.000
      4 O6          2.1354    2.4157   -4.7796 O.2        1 <1>        0.000
      5 O7          3.3823    4.2949   -5.8565 O.3        1 <1>        0.000
      6 P2          4.7759    0.5758   -5.1070 P.3        1 <1>        0.000
      7 O8          3.4650   -0.2823   -4.9133 O.3        1 <1>        0.000
      8 O15         2.3978    0.8774    0.0557 O.3        1 <1>        0.000
      9 O9          5.3768    0.7052   -3.7638 O.2        1 <1>        0.000
     10 O10         5.7045   -0.2174   -6.0655 O.3        1 <1>        0.000
     11 P3          3.0213   -0.9022   -3.5692 P.3        1 <1>        0.000
     12 O11         3.0115    0.1345   -2.3865 O.3        1 <1>        0.000
     13 O12         1.7100   -1.5177   -3.5822 O.2        1 <1>        0.000
     14 O13         4.1880   -1.9156   -3.1455 O.3        1 <1>        0.000
     15 P4          2.5364   -0.3019   -0.9673 P.3        1 <1>        0.000
     16 O14         1.0621   -0.8556   -1.1570 O.3        1 <1>        0.000
     17 O16         3.3903   -1.3829   -0.5140 O.2        1 <1>        0.000
     18 H           4.8954    3.7949   -3.6658 H.spc      1 <1>        0.000
     19 H           4.2664    4.6551   -5.9574 H.spc      1 <1>        0.000
     20 H           1.8212    1.5517   -0.3111 H.spc      1 <1>        0.000
     21 H           5.2890   -0.2853   -6.9283 H.spc      1 <1>        0.000
     22 H           5.0299   -1.4544   -3.1546 H.spc      1 <1>        0.000
     23 H           0.4907   -0.1449   -1.4572 H.spc      1 <1>        0.000
@<TRIPOS>BOND
     1    7   11 1  
     2   11   12 1  
     3    2    3 1  
     4   15   16 1  
     5    1    2 1  
     6   11   14 1  
     7    6    9 2  
     8   15   17 2  
     9    2    5 1  
    10   15    8 1  
    11    6   10 1  
    12   12   15 1  
    13    6    7 1  
    14    2    4 2  
    15    3    6 1  
    16   11   13 2  
    17    1   18 1  
    18    5   19 1  
    19    8   20 1  
    20   10   21 1  
    21   14   22 1  
    22   16   23 1  
# Name:          frag3-253-4/96164 -- energy: -1.483886
# Creation time: Sat Jun  5 12:53:20 2010


@<TRIPOS>MOLECULE
frag3-253-4/96164 -- energy: -1.483886
   23    22     1     1     1
SMALL
USER_CHARGES


@<TRIPOS>ATOM
      1 O4          4.3186   -0.8353   -0.0569 O.3        1 <1>        0.000
      2 P1          3.2906   -1.7960   -0.7608 P.3        1 <1>        0.000
      3 O5          2.1702   -0.9108   -1.4367 O.3        1 <1>        0.000
      4 O6          3.9901   -2.5485   -1.7934 O.2        1 <1>        0.000
      5 O7          2.6040   -2.7270    0.2767 O.3        1 <1>        0.000
      6 P2          2.2993   -0.2274   -2.8217 P.3        1 <1>        0.000
      7 O8          3.7203    0.4322   -2.9832 O.3        1 <1>        0.000
      8 O15         2.5598    3.1975   -6.4518 O.3        1 <1>        0.000
      9 O9          1.2958    0.7773   -3.1112 O.2        1 <1>        0.000
     10 O10         2.2533   -1.4097   -3.8735 O.3        1 <1>        0.000
     11 P3          3.9748    1.6463   -3.8986 P.3        1 <1>        0.000
     12 O11         4.0120    1.3405   -5.4359 O.3        1 <1>        0.000
     13 O12         2.8490    2.5818   -3.7323 O.2        1 <1>        0.000
     14 O13         5.3584    2.3474   -3.6072 O.3        1 <1>        0.000
     15 P4          3.9808    2.4884   -6.4861 P.3        1 <1>        0.000
     16 O14         4.9791    3.5975   -5.9342 O.3        1 <1>        0.000
     17 O16         4.3978    2.0749   -7.8086 O.2        1 <1>        0.000
     18 H           3.8692   -0.3331    0.6267 H.spc      1 <1>        0.000
     19 H           2.1562   -2.1931    0.9370 H.spc      1 <1>        0.000
     20 H           2.3480    3.4438   -5.5484 H.spc      1 <1>        0.000
     21 H           2.9278   -2.0570   -3.6553 H.spc      1 <1>        0.000
     22 H           6.0686    1.7122   -3.7242 H.spc      1 <1>        0.000
     23 H           4.6999    3.8697   -5.0570 H.spc      1 <1>        0.000
@<TRIPOS>BOND
     1    7   11 1  
     2   11   12 1  
     3    2    3 1  
     4   15   16 1  
     5    1    2 1  
     6   11   14 1  
     7    6    9 2  
     8   15   17 2  
     9    2    5 1  
    10   15    8 1  
    11    6   10 1  
    12   12   15 1  
    13    6    7 1  
    14    2    4 2  
    15    3    6 1  
    16   11   13 2  
    17    1   18 1  
    18    5   19 1  
    19    8   20 1  
    20   10   21 1  
    21   14   22 1  
    22   16   23 1  
# Name:          frag3-253-4/96164 -- energy: -3.058970
# Creation time: Sat Jun  5 12:53:20 2010


@<TRIPOS>MOLECULE
frag3-253-4/96164 -- energy: -3.058970
   23    22     1     1     1
SMALL
USER_CHARGES


@<TRIPOS>ATOM
      1 O4          3.0251    3.9707   -5.6649 O.3        1 <1>        0.000
      2 P1          2.8990    2.7314   -4.7072 P.3        1 <1>        0.000
      3 O5          3.5131    1.4664   -5.4168 O.3        1 <1>        0.000
      4 O6          3.6460    2.9999   -3.4878 O.2        1 <1>        0.000
      5 O7          1.3905    2.4567   -4.4066 O.3        1 <1>        0.000
      6 P2          4.9892    0.9375   -5.1949 P.3        1 <1>        0.000
      7 O8          5.0832    0.4794   -3.6947 O.3        1 <1>        0.000
      8 O15         0.9991   -0.0074   -1.9151 O.3        1 <1>        0.000
      9 O9          5.9185    1.9890   -5.5527 O.2        1 <1>        0.000
     10 O10         5.1905   -0.3727   -6.0363 O.3        1 <1>        0.000
     11 P3          4.0563   -0.4725   -3.0314 P.3        1 <1>        0.000
     12 O11         3.5396   -0.1643   -1.6083 O.3        1 <1>        0.000
     13 O12         2.8360   -0.4600   -3.8918 O.2        1 <1>        0.000
     14 O13         4.6594   -1.9439   -2.9630 O.3        1 <1>        0.000
     15 P4          2.1783   -0.7128   -1.1020 P.3        1 <1>        0.000
     16 O14         2.1093   -2.2324   -1.5713 O.3        1 <1>        0.000
     17 O16         2.0209   -0.6361    0.3296 O.2        1 <1>        0.000
     18 H           2.5344    3.8009   -6.4724 H.spc      1 <1>        0.000
     19 H           0.9277    2.2838   -5.2297 H.spc      1 <1>        0.000
     20 H           1.1646   -0.0944   -2.8567 H.spc      1 <1>        0.000
     21 H           4.5507   -1.0320   -5.7578 H.spc      1 <1>        0.000
     22 H           5.4428   -1.9419   -2.4082 H.spc      1 <1>        0.000
     23 H           2.2146   -2.2769   -2.5245 H.spc      1 <1>        0.000
@<TRIPOS>BOND
     1    7   11 1  
     2   11   12 1  
     3    2    3 1  
     4   15   16 1  
     5    1    2 1  
     6   11   14 1  
     7    6    9 2  
     8   15   17 2  
     9    2    5 1  
    10   15    8 1  
    11    6   10 1  
    12   12   15 1  
    13    6    7 1  
    14    2    4 2  
    15    3    6 1  
    16   11   13 2  
    17    1   18 1  
    18    5   19 1  
    19    8   20 1  
    20   10   21 1  
    21   14   22 1  
    22   16   23 1  
# Name:          frag3-253-4/96164 -- energy: -2.328584
# Creation time: Sat Jun  5 12:53:20 2010


@<TRIPOS>MOLECULE
frag3-253-4/96164 -- energy: -2.328584
   23    22     1     1     1
SMALL
USER_CHARGES


@<TRIPOS>ATOM
      1 O4          3.0295    0.5396   -0.9135 O.3        1 <1>        0.000
      2 P1          3.2567   -1.0243   -0.7971 P.3        1 <1>        0.000
      3 O5          3.5738   -1.5801   -2.2358 O.3        1 <1>        0.000
      4 O6          4.2320   -1.2988    0.2314 O.2        1 <1>        0.000
      5 O7          1.8540   -1.6924   -0.4451 O.3        1 <1>        0.000
      6 P2          2.6576   -1.3370   -3.5204 P.3        1 <1>        0.000
      7 O8          3.4085   -0.5226   -4.6139 O.3        1 <1>        0.000
      8 O15         2.8047    3.7116   -6.1396 O.3        1 <1>        0.000
      9 O9          1.4929   -0.5441   -3.0470 O.2        1 <1>        0.000
     10 O10         2.2044   -2.7253   -4.0563 O.3        1 <1>        0.000
     11 P3          3.7406    0.9808   -4.4865 P.3        1 <1>        0.000
     12 O11         4.3819    1.7248   -5.6861 O.3        1 <1>        0.000
     13 O12         2.4981    1.7185   -4.1676 O.2        1 <1>        0.000
     14 O13         4.7994    1.1291   -3.2876 O.3        1 <1>        0.000
     15 P4          4.2974    3.2838   -5.7806 P.3        1 <1>        0.000
     16 O14         4.5325    3.8238   -4.3008 O.3        1 <1>        0.000
     17 O16         5.2899    3.8414   -6.6689 O.2        1 <1>        0.000
     18 H           2.3806    0.7175   -1.5982 H.spc      1 <1>        0.000
     19 H           1.2236   -1.4963   -1.1420 H.spc      1 <1>        0.000
     20 H           2.1983    3.3088   -5.5138 H.spc      1 <1>        0.000
     21 H           2.9722   -3.2177   -4.3555 H.spc      1 <1>        0.000
     22 H           5.5996    0.6464   -3.5073 H.spc      1 <1>        0.000
     23 H           3.8698    3.4495   -3.7157 H.spc      1 <1>        0.000
@<TRIPOS>BOND
     1    7   11 1  
     2   11   12 1  
     3    2    3 1  
     4   15   16 1  
     5    1    2 1  
     6   11   14 1  
     7    6    9 2  
     8   15   17 2  
     9    2    5 1  
    10   15    8 1  
    11    6   10 1  
    12   12   15 1  
    13    6    7 1  
    14    2    4 2  
    15    3    6 1  
    16   11   13 2  
    17    1   18 1  
    18    5   19 1  
    19    8   20 1  
    20   10   21 1  
    21   14   22 1  
    22   16   23 1  
# Name:          frag3-253-4/96164 -- energy: -1.274343
# Creation time: Sat Jun  5 12:53:20 2010


@<TRIPOS>MOLECULE
frag3-253-4/96164 -- energy: -1.274343
   23    22     1     1     1
SMALL
USER_CHARGES


@<TRIPOS>ATOM
      1 O4          2.7404    3.2369   -7.1059 O.3        1 <1>        0.000
      2 P1          3.2634    2.9169   -5.6748 P.3        1 <1>        0.000
      3 O5          4.1931    1.6617   -5.5974 O.3        1 <1>        0.000
      4 O6          3.9206    4.0760   -5.1140 O.2        1 <1>        0.000
      5 O7          1.9902    2.5419   -4.7843 O.3        1 <1>        0.000
      6 P2          4.9791    1.2318   -4.2870 P.3        1 <1>        0.000
      7 O8          3.9024    0.8541   -3.2031 O.3        1 <1>        0.000
      8 O15         1.6184   -0.8851    0.4025 O.3        1 <1>        0.000
      9 O9          5.8800    2.2879   -3.9032 O.2        1 <1>        0.000
     10 O10         5.7325   -0.1156   -4.6088 O.3        1 <1>        0.000
     11 P3          2.9247   -0.3665   -3.3568 P.3        1 <1>        0.000
     12 O11         1.9681   -0.6021   -2.1764 O.3        1 <1>        0.000
     13 O12         2.2466   -0.2681   -4.6308 O.2        1 <1>        0.000
     14 O13         3.8818   -1.6787   -3.2964 O.3        1 <1>        0.000
     15 P4          2.4917   -1.2277   -0.8406 P.3        1 <1>        0.000
     16 O14         2.4335   -2.8003   -1.0138 O.3        1 <1>        0.000
     17 O16         3.8876   -0.8343   -0.7243 O.2        1 <1>        0.000
     18 H           2.3064    2.4608   -7.4677 H.spc      1 <1>        0.000
     19 H           1.5551    1.7721   -5.1582 H.spc      1 <1>        0.000
     20 H           0.7163   -1.1748    0.2481 H.spc      1 <1>        0.000
     21 H           5.0931   -0.7867   -4.8586 H.spc      1 <1>        0.000
     22 H           4.3171   -1.7168   -2.4416 H.spc      1 <1>        0.000
     23 H           1.5181   -3.0788   -1.0923 H.spc      1 <1>        0.000
@<TRIPOS>BOND
     1    7   11 1  
     2   11   12 1  
     3    2    3 1  
     4   15   16 1  
     5    1    2 1  
     6   11   14 1  
     7    6    9 2  
     8   15   17 2  
     9    2    5 1  
    10   15    8 1  
    11    6   10 1  
    12   12   15 1  
    13    6    7 1  
    14    2    4 2  
    15    3    6 1  
    16   11   13 2  
    17    1   18 1  
    18    5   19 1  
    19    8   20 1  
    20   10   21 1  
    21   14   22 1  
    22   16   23 1  
# Name:          frag3-253-4/96164 -- energy: 2.080088
# Creation time: Sat Jun  5 12:53:20 2010


@<TRIPOS>MOLECULE
frag3-253-4/96164 -- energy: 2.080088
   23    22     1     1     1
SMALL
USER_CHARGES


@<TRIPOS>ATOM
      1 O4          3.7040    4.3180   -6.0815 O.3        1 <1>        0.000
      2 P1          3.5274    3.1482   -5.0818 P.3        1 <1>        0.000
      3 O5          4.4273    1.9061   -5.3966 O.3        1 <1>        0.000
      4 O6          3.7483    3.5944   -3.7261 O.2        1 <1>        0.000
      5 O7          2.0516    2.5677   -5.2353 O.3        1 <1>        0.000
      6 P2          4.5540    0.6676   -4.4842 P.3        1 <1>        0.000
      7 O8          3.1933   -0.1125   -4.2816 O.3        1 <1>        0.000
      8 O15         3.1340    0.0444    0.2649 O.3        1 <1>        0.000
      9 O9          5.0491    1.0694   -3.1614 O.2        1 <1>        0.000
     10 O10         5.5142   -0.4001   -5.1343 O.3        1 <1>        0.000
     11 P3          3.0947   -1.4977   -3.5166 P.3        1 <1>        0.000
     12 O11         3.4311   -1.2210   -2.0066 O.3        1 <1>        0.000
     13 O12         1.7873   -2.0888   -3.5730 O.2        1 <1>        0.000
     14 O13         4.2567   -2.3925   -4.1009 O.3        1 <1>        0.000
     15 P4          2.5955   -0.1817   -1.1816 P.3        1 <1>        0.000
     16 O14         2.7738    1.1915   -1.9540 O.3        1 <1>        0.000
     17 O16         1.2117   -0.5842   -1.2647 O.2        1 <1>        0.000
     18 H           3.5530    3.9998   -6.9746 H.spc      1 <1>        0.000
     19 H           1.9167    2.2746   -6.1395 H.spc      1 <1>        0.000
     20 H           4.0562    0.3079    0.2243 H.spc      1 <1>        0.000
     21 H           5.1753   -0.6505   -5.9969 H.spc      1 <1>        0.000
     22 H           5.0904   -1.9229   -4.0235 H.spc      1 <1>        0.000
     23 H           3.6917    1.4683   -1.9047 H.spc      1 <1>        0.000
@<TRIPOS>BOND
     1    7   11 1  
     2   11   12 1  
     3    2    3 1  
     4   15   16 1  
     5    1    2 1  
     6   11   14 1  
     7    6    9 2  
     8   15   17 2  
     9    2    5 1  
    10   15    8 1  
    11    6   10 1  
    12   12   15 1  
    13    6    7 1  
    14    2    4 2  
    15    3    6 1  
    16   11   13 2  
    17    1   18 1  
    18    5   19 1  
    19    8   20 1  
    20   10   21 1  
    21   14   22 1  
    22   16   23 1  
# Name:          frag3-253-4/96164 -- energy: -4.101326
# Creation time: Sat Jun  5 12:53:20 2010


@<TRIPOS>MOLECULE
frag3-253-4/96164 -- energy: -4.101326
   23    22     1     1     1
SMALL
USER_CHARGES


@<TRIPOS>ATOM
      1 O4          2.6695   -1.5778    0.2362 O.3        1 <1>        0.000
      2 P1          3.5017   -1.7645   -1.0810 P.3        1 <1>        0.000
      3 O5          2.5870   -1.5575   -2.3299 O.3        1 <1>        0.000
      4 O6          4.5800   -0.7883   -1.1021 O.2        1 <1>        0.000
      5 O7          4.0600   -3.2274   -1.1235 O.3        1 <1>        0.000
      6 P2          2.3852   -0.2206   -3.0888 P.3        1 <1>        0.000
      7 O8          3.7581    0.3679   -3.6085 O.3        1 <1>        0.000
      8 O15         2.6560    3.3468   -6.1975 O.3        1 <1>        0.000
      9 O9          1.8332    0.7682   -2.1535 O.2        1 <1>        0.000
     10 O10         1.4862   -0.3949   -4.3492 O.3        1 <1>        0.000
     11 P3          4.0918    1.9040   -3.6574 P.3        1 <1>        0.000
     12 O11         4.6912    2.3478   -5.0193 O.3        1 <1>        0.000
     13 O12         2.7932    2.5901   -3.5753 O.2        1 <1>        0.000
     14 O13         5.0670    2.2686   -2.4997 O.3        1 <1>        0.000
     15 P4          3.8456    2.2962   -6.3269 P.3        1 <1>        0.000
     16 O14         4.6786    2.7384   -7.5599 O.3        1 <1>        0.000
     17 O16         3.3696    0.9319   -6.4789 O.2        1 <1>        0.000
     18 H           1.9558   -2.2196    0.2562 H.spc      1 <1>        0.000
     19 H           3.3282   -3.8486   -1.1085 H.spc      1 <1>        0.000
     20 H           3.0197    4.2298   -6.0996 H.spc      1 <1>        0.000
     21 H           1.8795   -1.0470   -4.9337 H.spc      1 <1>        0.000
     22 H           5.8907    1.7888   -2.6136 H.spc      1 <1>        0.000
     23 H           4.9801    3.6411   -7.4339 H.spc      1 <1>        0.000
@<TRIPOS>BOND
     1    7   11 1  
     2   11   12 1  
     3    2    3 1  
     4   15   16 1  
     5    1    2 1  
     6   11   14 1  
     7    6    9 2  
     8   15   17 2  
     9    2    5 1  
    10   15    8 1  
    11    6   10 1  
    12   12   15 1  
    13    6    7 1  
    14    2    4 2  
    15    3    6 1  
    16   11   13 2  
    17    1   18 1  
    18    5   19 1  
    19    8   20 1  
    20   10   21 1  
    21   14   22 1  
    22   16   23 1  
# Name:          frag3-253-4/96164 -- energy: -2.579753
# Creation time: Sat Jun  5 12:53:20 2010


@<TRIPOS>MOLECULE
frag3-253-4/96164 -- energy: -2.579753
   23    22     1     1     1
SMALL
USER_CHARGES


@<TRIPOS>ATOM
      1 O4          4.7777    4.0552   -4.3103 O.3        1 <1>        0.000
      2 P1          3.5961    3.2323   -4.9346 P.3        1 <1>        0.000
      3 O5          4.1574    1.9148   -5.5612 O.3        1 <1>        0.000
      4 O6          2.6495    2.8958   -3.8831 O.2        1 <1>        0.000
      5 O7          2.9310    4.0698   -6.0717 O.3        1 <1>        0.000
      6 P2          4.3977    0.5993   -4.7959 P.3        1 <1>        0.000
      7 O8          3.0700   -0.0043   -4.1749 O.3        1 <1>        0.000
      8 O15         3.1047    1.2081   -1.4406 O.3        1 <1>        0.000
      9 O9          5.3480    0.8190   -3.7080 O.2        1 <1>        0.000
     10 O10         4.9113   -0.5210   -5.7731 O.3        1 <1>        0.000
     11 P3          3.0339   -1.4292   -3.4804 P.3        1 <1>        0.000
     12 O11         3.4558   -1.2554   -1.9814 O.3        1 <1>        0.000
     13 O12         1.7065   -2.0066   -3.4970 O.2        1 <1>        0.000
     14 O13         4.1344   -2.2827   -4.2024 O.3        1 <1>        0.000
     15 P4          2.7075   -0.2714   -1.0342 P.3        1 <1>        0.000
     16 O14         1.1810   -0.4172   -1.4307 O.3        1 <1>        0.000
     17 O16         2.8914   -0.5779    0.3644 O.2        1 <1>        0.000
     18 H           5.4074    4.2814   -4.9987 H.spc      1 <1>        0.000
     19 H           3.5858    4.2711   -6.7442 H.spc      1 <1>        0.000
     20 H           2.9544    1.3318   -2.3807 H.spc      1 <1>        0.000
     21 H           4.2718   -0.6472   -6.4778 H.spc      1 <1>        0.000
     22 H           4.9786   -1.8294   -4.1443 H.spc      1 <1>        0.000
     23 H           1.0723   -0.2109   -2.3620 H.spc      1 <1>        0.000
@<TRIPOS>BOND
     1    7   11 1  
     2   11   12 1  
     3    2    3 1  
     4   15   16 1  
     5    1    2 1  
     6   11   14 1  
     7    6    9 2  
     8   15   17 2  
     9    2    5 1  
    10   15    8 1  
    11    6   10 1  
    12   12   15 1  
    13    6    7 1  
    14    2    4 2  
    15    3    6 1  
    16   11   13 2  
    17    1   18 1  
    18    5   19 1  
    19    8   20 1  
    20   10   21 1  
    21   14   22 1  
    22   16   23 1  
# Name:          frag3-253-4/96164 -- energy: -2.491668
# Creation time: Sat Jun  5 12:53:20 2010


@<TRIPOS>MOLECULE
frag3-253-4/96164 -- energy: -2.491668
   23    22     1     1     1
SMALL
USER_CHARGES


@<TRIPOS>ATOM
      1 O4          3.8680   -1.0429    0.2716 O.3        1 <1>        0.000
      2 P1          3.2858   -1.8222   -0.9720 P.3        1 <1>        0.000
      3 O5          2.0913   -1.0197   -1.5878 O.3        1 <1>        0.000
      4 O6          4.3510   -1.9688   -1.9581 O.2        1 <1>        0.000
      5 O7          2.7834   -3.2146   -0.4688 O.3        1 <1>        0.000
      6 P2          2.2244   -0.0125   -2.7442 P.3        1 <1>        0.000
      7 O8          3.5253    0.8742   -2.5895 O.3        1 <1>        0.000
      8 O15         2.8697    3.5511   -6.2573 O.3        1 <1>        0.000
      9 O9          1.0875    0.8510   -2.9878 O.2        1 <1>        0.000
     10 O10         2.5732   -0.8714   -4.0521 O.3        1 <1>        0.000
     11 P3          4.0418    1.8113   -3.7030 P.3        1 <1>        0.000
     12 O11         3.5584    1.3487   -5.1475 O.3        1 <1>        0.000
     13 O12         3.5112    3.1628   -3.5561 O.2        1 <1>        0.000
     14 O13         5.6171    1.7825   -3.8493 O.3        1 <1>        0.000
     15 P4          3.7766    2.2563   -6.3982 P.3        1 <1>        0.000
     16 O14         5.2699    2.7878   -6.2633 O.3        1 <1>        0.000
     17 O16         3.6193    1.5552   -7.6518 O.2        1 <1>        0.000
     18 H           3.1796   -0.9369    0.9323 H.spc      1 <1>        0.000
     19 H           2.0848   -3.0871    0.1771 H.spc      1 <1>        0.000
     20 H           3.0287    3.9604   -5.4036 H.spc      1 <1>        0.000
     21 H           3.3280   -1.4362   -3.8707 H.spc      1 <1>        0.000
     22 H           5.9121    0.8737   -3.9424 H.spc      1 <1>        0.000
     23 H           5.3688    3.2525   -5.4291 H.spc      1 <1>        0.000
@<TRIPOS>BOND
     1    7   11 1  
     2   11   12 1  
     3    2    3 1  
     4   15   16 1  
     5    1    2 1  
     6   11   14 1  
     7    6    9 2  
     8   15   17 2  
     9    2    5 1  
    10   15    8 1  
    11    6   10 1  
    12   12   15 1  
    13    6    7 1  
    14    2    4 2  
    15    3    6 1  
    16   11   13 2  
    17    1   18 1  
    18    5   19 1  
    19    8   20 1  
    20   10   21 1  
    21   14   22 1  
    22   16   23 1  
# Name:          frag3-253-4/96164 -- energy: -3.108678
# Creation time: Sat Jun  5 12:53:20 2010


@<TRIPOS>MOLECULE
frag3-253-4/96164 -- energy: -3.108678
   23    22     1     1     1
SMALL
USER_CHARGES


@<TRIPOS>ATOM
      1 O4          3.3864   -0.0752   -0.1211 O.3        1 <1>        0.000
      2 P1          2.9055   -1.5122   -0.5873 P.3        1 <1>        0.000
      3 O5          2.0182   -1.3291   -1.8730 O.3        1 <1>        0.000
      4 O6          4.0821   -2.3153   -0.8735 O.2        1 <1>        0.000
      5 O7          2.0198   -2.1452    0.5294 O.3        1 <1>        0.000
      6 P2          2.5308   -0.7603   -3.2117 P.3        1 <1>        0.000
      7 O8          3.5032    0.4757   -2.9841 O.3        1 <1>        0.000
      8 O15         4.4777    4.5582   -5.2673 O.3        1 <1>        0.000
      9 O9          1.5199   -0.3758   -4.1807 O.2        1 <1>        0.000
     10 O10         3.5089   -1.8586   -3.8317 O.3        1 <1>        0.000
     11 P3          4.1136    1.2867   -4.1453 P.3        1 <1>        0.000
     12 O11         3.1840    2.3957   -4.7529 O.3        1 <1>        0.000
     13 O12         5.3858    1.9271   -3.8578 O.2        1 <1>        0.000
     14 O13         4.2494    0.2472   -5.3790 O.3        1 <1>        0.000
     15 P4          3.6974    3.3286   -5.8968 P.3        1 <1>        0.000
     16 O14         4.8143    2.4825   -6.6550 O.3        1 <1>        0.000
     17 O16         2.6570    3.6988   -6.8276 O.2        1 <1>        0.000
     18 H           2.6204    0.4701    0.0726 H.spc      1 <1>        0.000
     19 H           1.2562   -1.5850    0.6867 H.spc      1 <1>        0.000
     20 H           5.1492    4.2340   -4.6627 H.spc      1 <1>        0.000
     21 H           4.1701   -2.1014   -3.1794 H.spc      1 <1>        0.000
     22 H           3.3969   -0.1608   -5.5475 H.spc      1 <1>        0.000
     23 H           5.5047    2.2375   -6.0346 H.spc      1 <1>        0.000
@<TRIPOS>BOND
     1    7   11 1  
     2   11   12 1  
     3    2    3 1  
     4   15   16 1  
     5    1    2 1  
     6   11   14 1  
     7    6    9 2  
     8   15   17 2  
     9    2    5 1  
    10   15    8 1  
    11    6   10 1  
    12   12   15 1  
    13    6    7 1  
    14    2    4 2  
    15    3    6 1  
    16   11   13 2  
    17    1   18 1  
    18    5   19 1  
    19    8   20 1  
    20   10   21 1  
    21   14   22 1  
    22   16   23 1  
# Name:          frag3-253-4/96164 -- energy: -3.031213
# Creation time: Sat Jun  5 12:53:20 2010


@<TRIPOS>MOLECULE
frag3-253-4/96164 -- energy: -3.031213
   23    22     1     1     1
SMALL
USER_CHARGES


@<TRIPOS>ATOM
      1 O4          2.1471    0.2036   -0.6009 O.3        1 <1>        0.000
      2 P1          3.2146   -0.9302   -0.8473 P.3        1 <1>        0.000
      3 O5          2.7585   -1.7698   -2.0954 O.3        1 <1>        0.000
      4 O6          4.5074   -0.3134   -1.0913 O.2        1 <1>        0.000
      5 O7          3.2519   -1.8802    0.3935 O.3        1 <1>        0.000
      6 P2          2.6262   -1.2341   -3.5568 P.3        1 <1>        0.000
      7 O8          3.9942   -0.6180   -4.0217 O.3        1 <1>        0.000
      8 O15         2.6009    3.7340   -4.6865 O.3        1 <1>        0.000
      9 O9          1.6407   -0.1410   -3.5680 O.2        1 <1>        0.000
     10 O10         2.2402   -2.3708   -4.5434 O.3        1 <1>        0.000
     11 P3          4.2319    0.8992   -4.2035 P.3        1 <1>        0.000
     12 O11         3.5937    1.5120   -5.5059 O.3        1 <1>        0.000
     13 O12         3.5737    1.6092   -3.0965 O.2        1 <1>        0.000
     14 O13         5.7589    1.2777   -4.3276 O.3        1 <1>        0.000
     15 P4          3.5798    3.0486   -5.7360 P.3        1 <1>        0.000
     16 O14         5.0212    3.5738   -5.3163 O.3        1 <1>        0.000
     17 O16         3.3131    3.4281   -7.1118 O.2        1 <1>        0.000
     18 H           1.2893   -0.1958   -0.4387 H.spc      1 <1>        0.000
     19 H           2.3837   -2.2685    0.5240 H.spc      1 <1>        0.000
     20 H           2.8290    3.4431   -3.8005 H.spc      1 <1>        0.000
     21 H           2.9044   -3.0630   -4.5079 H.spc      1 <1>        0.000
     22 H           6.1488    0.7941   -5.0595 H.spc      1 <1>        0.000
     23 H           5.1993    3.3237   -4.4067 H.spc      1 <1>        0.000
@<TRIPOS>BOND
     1    7   11 1  
     2   11   12 1  
     3    2    3 1  
     4   15   16 1  
     5    1    2 1  
     6   11   14 1  
     7    6    9 2  
     8   15   17 2  
     9    2    5 1  
    10   15    8 1  
    11    6   10 1  
    12   12   15 1  
    13    6    7 1  
    14    2    4 2  
    15    3    6 1  
    16   11   13 2  
    17    1   18 1  
    18    5   19 1  
    19    8   20 1  
    20   10   21 1  
    21   14   22 1  
    22   16   23 1  
# Name:          frag3-253-4/96164 -- energy: 1.171263
# Creation time: Sat Jun  5 12:53:20 2010


@<TRIPOS>MOLECULE
frag3-253-4/96164 -- energy: 1.171263
   23    22     1     1     1
SMALL
USER_CHARGES


@<TRIPOS>ATOM
      1 O4          2.4372    0.1377   -0.5950 O.3        1 <1>        0.000
      2 P1          3.8317   -0.2525   -1.2218 P.3        1 <1>        0.000
      3 O5          3.5861   -1.4699   -2.1909 O.3        1 <1>        0.000
      4 O6          4.3354    0.8878   -1.9658 O.2        1 <1>        0.000
      5 O7          4.8113   -0.7058   -0.1006 O.3        1 <1>        0.000
      6 P2          2.7470   -1.4507   -3.5117 P.3        1 <1>        0.000
      7 O8          3.2841   -0.3322   -4.4774 O.3        1 <1>        0.000
      8 O15         5.3463    3.6526   -5.9975 O.3        1 <1>        0.000
      9 O9          1.3661   -1.0763   -3.1620 O.2        1 <1>        0.000
     10 O10         2.8130   -2.8271   -4.2244 O.3        1 <1>        0.000
     11 P3          2.5180    0.9970   -4.7996 P.3        1 <1>        0.000
     12 O11         3.3271    2.0266   -5.6160 O.3        1 <1>        0.000
     13 O12         1.2408    0.6757   -5.4016 O.2        1 <1>        0.000
     14 O13         2.3456    1.7463   -3.3814 O.3        1 <1>        0.000
     15 P4          4.5940    2.7135   -5.0079 P.3        1 <1>        0.000
     16 O14         4.0587    3.6418   -3.8321 O.3        1 <1>        0.000
     17 O16         5.4115    1.6643   -4.4294 O.2        1 <1>        0.000
     18 H           2.0908   -0.6077   -0.0990 H.spc      1 <1>        0.000
     19 H           4.4386   -1.4592    0.3631 H.spc      1 <1>        0.000
     20 H           4.7380    4.3150   -6.3334 H.spc      1 <1>        0.000
     21 H           3.7266   -3.0338   -4.4347 H.spc      1 <1>        0.000
     22 H           3.2118    1.9413   -3.0164 H.spc      1 <1>        0.000
     23 H           3.5151    4.3419   -4.2009 H.spc      1 <1>        0.000
@<TRIPOS>BOND
     1    7   11 1  
     2   11   12 1  
     3    2    3 1  
     4   15   16 1  
     5    1    2 1  
     6   11   14 1  
     7    6    9 2  
     8   15   17 2  
     9    2    5 1  
    10   15    8 1  
    11    6   10 1  
    12   12   15 1  
    13    6    7 1  
    14    2    4 2  
    15    3    6 1  
    16   11   13 2  
    17    1   18 1  
    18    5   19 1  
    19    8   20 1  
    20   10   21 1  
    21   14   22 1  
    22   16   23 1  
# Name:          frag3-253-4/96164 -- energy: -4.266294
# Creation time: Sat Jun  5 12:53:20 2010


@<TRIPOS>MOLECULE
frag3-253-4/96164 -- energy: -4.266294
   23    22     1     1     1
SMALL
USER_CHARGES


@<TRIPOS>ATOM
      1 O4          3.9676    3.0151   -3.4477 O.3        1 <1>        0.000
      2 P1          3.1596    2.6818   -4.7820 P.3        1 <1>        0.000
      3 O5          3.9065    1.4662   -5.4374 O.3        1 <1>        0.000
      4 O6          1.7794    2.4418   -4.4304 O.2        1 <1>        0.000
      5 O7          3.3238    3.8992   -5.7566 O.3        1 <1>        0.000
      6 P2          5.0805    0.6415   -4.7637 P.3        1 <1>        0.000
      7 O8          4.4501   -0.0706   -3.5031 O.3        1 <1>        0.000
      8 O15         2.2893    1.0487   -1.7196 O.3        1 <1>        0.000
      9 O9          6.1782    1.5378   -4.4496 O.2        1 <1>        0.000
     10 O10         5.5027   -0.5394   -5.7050 O.3        1 <1>        0.000
     11 P3          3.1164   -0.9373   -3.5843 P.3        1 <1>        0.000
     12 O11         2.6132   -1.4054   -2.2054 O.3        1 <1>        0.000
     13 O12         2.0886   -0.0705   -4.1611 O.2        1 <1>        0.000
     14 O13         3.4710   -2.1630   -4.5095 O.3        1 <1>        0.000
     15 P4          2.4375   -0.3939   -1.0310 P.3        1 <1>        0.000
     16 O14         1.1074   -0.6605   -0.2766 O.3        1 <1>        0.000
     17 O16         3.5823   -0.4628   -0.1524 O.2        1 <1>        0.000
     18 H           4.8885    3.1774   -3.6647 H.spc      1 <1>        0.000
     19 H           4.2538    4.0203   -5.9617 H.spc      1 <1>        0.000
     20 H           1.5193    1.0508   -2.2929 H.spc      1 <1>        0.000
     21 H           4.7408   -1.0972   -5.8782 H.spc      1 <1>        0.000
     22 H           4.1471   -2.6970   -4.0861 H.spc      1 <1>        0.000
     23 H           0.3742   -0.6057   -0.8939 H.spc      1 <1>        0.000
@<TRIPOS>BOND
     1    7   11 1  
     2   11   12 1  
     3    2    3 1  
     4   15   16 1  
     5    1    2 1  
     6   11   14 1  
     7    6    9 2  
     8   15   17 2  
     9    2    5 1  
    10   15    8 1  
    11    6   10 1  
    12   12   15 1  
    13    6    7 1  
    14    2    4 2  
    15    3    6 1  
    16   11   13 2  
    17    1   18 1  
    18    5   19 1  
    19    8   20 1  
    20   10   21 1  
    21   14   22 1  
    22   16   23 1  
# Name:          frag3-253-4/96164 -- energy: -0.967845
# Creation time: Sat Jun  5 12:53:20 2010


@<TRIPOS>MOLECULE
frag3-253-4/96164 -- energy: -0.967845
   23    22     1     1     1
SMALL
USER_CHARGES


@<TRIPOS>ATOM
      1 O4          4.2352   -0.1104   -0.5050 O.3        1 <1>        0.000
      2 P1          3.6435   -1.5421   -0.8814 P.3        1 <1>        0.000
      3 O5          2.2295   -1.3139   -1.5265 O.3        1 <1>        0.000
      4 O6          4.5607   -2.1667   -1.8203 O.2        1 <1>        0.000
      5 O7          3.5162   -2.3551    0.4408 O.3        1 <1>        0.000
      6 P2          1.9778   -0.5356   -2.8412 P.3        1 <1>        0.000
      7 O8          2.8884    0.7576   -2.9277 O.3        1 <1>        0.000
      8 O15         5.7244    1.6282   -6.1399 O.3        1 <1>        0.000
      9 O9          0.5997   -0.1779   -3.1105 O.2        1 <1>        0.000
     10 O10         2.5627   -1.4787   -3.9899 O.3        1 <1>        0.000
     11 P3          3.0124    1.6106   -4.2197 P.3        1 <1>        0.000
     12 O11         4.1803    2.6205   -4.3516 O.3        1 <1>        0.000
     13 O12         3.1863    0.6801   -5.3636 O.2        1 <1>        0.000
     14 O13         1.6731    2.4574   -4.3634 O.3        1 <1>        0.000
     15 P4          4.8393    2.8950   -5.7345 P.3        1 <1>        0.000
     16 O14         3.6606    2.9156   -6.7995 O.3        1 <1>        0.000
     17 O16         5.5637    4.1441   -5.7813 O.2        1 <1>        0.000
     18 H           3.6464    0.3247    0.1160 H.spc      1 <1>        0.000
     19 H           2.9036   -1.9101    1.0310 H.spc      1 <1>        0.000
     20 H           5.1871    0.8343   -6.0887 H.spc      1 <1>        0.000
     21 H           3.4746   -1.7001   -3.7872 H.spc      1 <1>        0.000
     22 H           1.5874    3.0485   -3.6119 H.spc      1 <1>        0.000
     23 H           3.1835    2.0833   -6.7633 H.spc      1 <1>        0.000
@<TRIPOS>BOND
     1    7   11 1  
     2   11   12 1  
     3    2    3 1  
     4   15   16 1  
     5    1    2 1  
     6   11   14 1  
     7    6    9 2  
     8   15   17 2  
     9    2    5 1  
    10   15    8 1  
    11    6   10 1  
    12   12   15 1  
    13    6    7 1  
    14    2    4 2  
    15    3    6 1  
    16   11   13 2  
    17    1   18 1  
    18    5   19 1  
    19    8   20 1  
    20   10   21 1  
    21   14   22 1  
    22   16   23 1  
# Name:          frag3-253-4/96164 -- energy: -2.764848
# Creation time: Sat Jun  5 12:53:20 2010


@<TRIPOS>MOLECULE
frag3-253-4/96164 -- energy: -2.764848
   23    22     1     1     1
SMALL
USER_CHARGES


@<TRIPOS>ATOM
      1 O4          2.4854   -1.2570    0.6530 O.3        1 <1>        0.000
      2 P1          3.1336   -1.1618   -0.7563 P.3        1 <1>        0.000
      3 O5          2.1277   -0.8122   -1.9064 O.3        1 <1>        0.000
      4 O6          4.2664   -0.2589   -0.7356 O.2        1 <1>        0.000
      5 O7          3.6475   -2.6381   -1.1368 O.3        1 <1>        0.000
      6 P2          2.4857   -0.9101   -3.4300 P.3        1 <1>        0.000
      7 O8          3.9241   -0.2828   -3.6366 O.3        1 <1>        0.000
      8 O15         2.4055    3.6570   -5.5089 O.3        1 <1>        0.000
      9 O9          1.5627   -0.2165   -4.3108 O.2        1 <1>        0.000
     10 O10         2.6095   -2.4384   -3.7873 O.3        1 <1>        0.000
     11 P3          4.1374    1.1925   -4.0225 P.3        1 <1>        0.000
     12 O11         3.8526    1.5244   -5.5362 O.3        1 <1>        0.000
     13 O12         3.1676    2.0137   -3.2727 O.2        1 <1>        0.000
     14 O13         5.6200    1.6931   -3.8083 O.3        1 <1>        0.000
     15 P4          3.7531    3.0049   -6.0295 P.3        1 <1>        0.000
     16 O14         4.9061    3.7750   -5.2398 O.3        1 <1>        0.000
     17 O16         3.9691    3.1442   -7.4504 O.2        1 <1>        0.000
     18 H           1.7379   -1.8585    0.6202 H.spc      1 <1>        0.000
     19 H           2.9010   -3.2415   -1.1522 H.spc      1 <1>        0.000
     20 H           2.3326    3.5246   -4.5609 H.spc      1 <1>        0.000
     21 H           3.2268   -2.8580   -3.1836 H.spc      1 <1>        0.000
     22 H           6.2201    1.1364   -4.3099 H.spc      1 <1>        0.000
     23 H           4.7623    3.6823   -4.2952 H.spc      1 <1>        0.000
@<TRIPOS>BOND
     1    7   11 1  
     2   11   12 1  
     3    2    3 1  
     4   15   16 1  
     5    1    2 1  
     6   11   14 1  
     7    6    9 2  
     8   15   17 2  
     9    2    5 1  
    10   15    8 1  
    11    6   10 1  
    12   12   15 1  
    13    6    7 1  
    14    2    4 2  
    15    3    6 1  
    16   11   13 2  
    17    1   18 1  
    18    5   19 1  
    19    8   20 1  
    20   10   21 1  
    21   14   22 1  
    22   16   23 1  
# Name:          frag3-253-4/96164 -- energy: -2.245058
# Creation time: Sat Jun  5 12:53:20 2010


@<TRIPOS>MOLECULE
frag3-253-4/96164 -- energy: -2.245058
   23    22     1     1     1
SMALL
USER_CHARGES


@<TRIPOS>ATOM
      1 O4          2.9380    4.0334   -5.3084 O.3        1 <1>        0.000
      2 P1          3.4500    2.8536   -6.2353 P.3        1 <1>        0.000
      3 O5          4.6983    2.2021   -5.5640 O.3        1 <1>        0.000
      4 O6          2.3715    1.8900   -6.3778 O.2        1 <1>        0.000
      5 O7          3.8371    3.4862   -7.6115 O.3        1 <1>        0.000
      6 P2          4.6785    1.3663   -4.2588 P.3        1 <1>        0.000
      7 O8          3.7090    0.1324   -4.3751 O.3        1 <1>        0.000
      8 O15         2.9771   -0.2879    0.1443 O.3        1 <1>        0.000
      9 O9          4.1851    2.2043   -3.1571 O.2        1 <1>        0.000
     10 O10         6.0861    0.7712   -3.9290 O.3        1 <1>        0.000
     11 P3          2.8851   -0.4064   -3.1866 P.3        1 <1>        0.000
     12 O11         3.7123   -1.2262   -2.1208 O.3        1 <1>        0.000
     13 O12         2.3486    0.7370   -2.4301 O.2        1 <1>        0.000
     14 O13         1.7441   -1.4081   -3.6167 O.3        1 <1>        0.000
     15 P4          3.0810   -1.5991   -0.7363 P.3        1 <1>        0.000
     16 O14         1.5855   -2.0192   -1.0644 O.3        1 <1>        0.000
     17 O16         3.7666   -2.7007   -0.0879 O.2        1 <1>        0.000
     18 H           3.6378    4.6819   -5.2018 H.spc      1 <1>        0.000
     19 H           4.5500    4.1163   -7.4836 H.spc      1 <1>        0.000
     20 H           2.5134    0.3921   -0.3498 H.spc      1 <1>        0.000
     21 H           6.3834    0.2296   -4.6637 H.spc      1 <1>        0.000
     22 H           2.1290   -2.1387   -4.1062 H.spc      1 <1>        0.000
     23 H           1.1356   -1.2876   -1.4933 H.spc      1 <1>        0.000
@<TRIPOS>BOND
     1    7   11 1  
     2   11   12 1  
     3    2    3 1  
     4   15   16 1  
     5    1    2 1  
     6   11   14 1  
     7    6    9 2  
     8   15   17 2  
     9    2    5 1  
    10   15    8 1  
    11    6   10 1  
    12   12   15 1  
    13    6    7 1  
    14    2    4 2  
    15    3    6 1  
    16   11   13 2  
    17    1   18 1  
    18    5   19 1  
    19    8   20 1  
    20   10   21 1  
    21   14   22 1  
    22   16   23 1  
# Name:          frag3-253-4/96164 -- energy: -4.253940
# Creation time: Sat Jun  5 12:53:20 2010


@<TRIPOS>MOLECULE
frag3-253-4/96164 -- energy: -4.253940
   23    22     1     1     1
SMALL
USER_CHARGES


@<TRIPOS>ATOM
      1 O4          4.1887    3.8159   -4.6874 O.3        1 <1>        0.000
      2 P1          3.1158    2.6804   -4.9786 P.3        1 <1>        0.000
      3 O5          3.8954    1.4325   -5.5121 O.3        1 <1>        0.000
      4 O6          2.4291    2.3953   -3.7374 O.2        1 <1>        0.000
      5 O7          2.1512    3.2315   -6.0739 O.3        1 <1>        0.000
      6 P2          4.9867    0.6241   -4.7096 P.3        1 <1>        0.000
      7 O8          4.2412    0.0195   -3.4615 O.3        1 <1>        0.000
      8 O15         2.7019    1.0836   -1.2531 O.3        1 <1>        0.000
      9 O9          6.0884    1.4997   -4.3876 O.2        1 <1>        0.000
     10 O10         5.4223   -0.6366   -5.5381 O.3        1 <1>        0.000
     11 P3          2.8775   -0.7970   -3.5712 P.3        1 <1>        0.000
     12 O11         2.3571   -1.2502   -2.1964 O.3        1 <1>        0.000
     13 O12         1.9006    0.0686   -4.2049 O.2        1 <1>        0.000
     14 O13         3.2213   -2.0785   -4.4375 O.3        1 <1>        0.000
     15 P4          2.7436   -0.4768   -0.9017 P.3        1 <1>        0.000
     16 O14         1.6799   -0.6797    0.2082 O.3        1 <1>        0.000
     17 O16         4.0532   -0.9034   -0.4726 O.2        1 <1>        0.000
     18 H           4.6600    4.0245   -5.4973 H.spc      1 <1>        0.000
     19 H           2.6472    3.4061   -6.8771 H.spc      1 <1>        0.000
     20 H           1.8156    1.3239   -1.5329 H.spc      1 <1>        0.000
     21 H           4.6520   -1.1792   -5.7218 H.spc      1 <1>        0.000
     22 H           3.8694   -2.6130   -3.9729 H.spc      1 <1>        0.000
     23 H           0.8242   -0.3857   -0.1126 H.spc      1 <1>        0.000
@<TRIPOS>BOND
     1    7   11 1  
     2   11   12 1  
     3    2    3 1  
     4   15   16 1  
     5    1    2 1  
     6   11   14 1  
     7    6    9 2  
     8   15   17 2  
     9    2    5 1  
    10   15    8 1  
    11    6   10 1  
    12   12   15 1  
    13    6    7 1  
    14    2    4 2  
    15    3    6 1  
    16   11   13 2  
    17    1   18 1  
    18    5   19 1  
    19    8   20 1  
    20   10   21 1  
    21   14   22 1  
    22   16   23 1  
# Name:          frag3-253-4/96164 -- energy: -4.419238
# Creation time: Sat Jun  5 12:53:20 2010


@<TRIPOS>MOLECULE
frag3-253-4/96164 -- energy: -4.419238
   23    22     1     1     1
SMALL
USER_CHARGES


@<TRIPOS>ATOM
      1 O4          3.2743    3.2509   -7.5003 O.3        1 <1>        0.000
      2 P1          3.0571    2.3126   -6.2846 P.3        1 <1>        0.000
      3 O5          4.3537    1.5422   -5.8626 O.3        1 <1>        0.000
      4 O6          2.5600    3.0655   -5.1501 O.2        1 <1>        0.000
      5 O7          2.0235    1.1762   -6.6746 O.3        1 <1>        0.000
      6 P2          4.7829    1.2350   -4.4002 P.3        1 <1>        0.000
      7 O8          3.6755    0.4303   -3.6184 O.3        1 <1>        0.000
      8 O15         3.4835   -2.1090   -0.2319 O.3        1 <1>        0.000
      9 O9          4.9493    2.5118   -3.6931 O.2        1 <1>        0.000
     10 O10         6.0855    0.3864   -4.3730 O.3        1 <1>        0.000
     11 P3          3.3716    0.6443   -2.0870 P.3        1 <1>        0.000
     12 O11         2.2608   -0.2701   -1.5315 O.3        1 <1>        0.000
     13 O12         4.5909    0.3088   -1.3505 O.2        1 <1>        0.000
     14 O13         2.9382    2.1457   -1.9297 O.3        1 <1>        0.000
     15 P4          2.4782   -1.8030   -1.4366 P.3        1 <1>        0.000
     16 O14         1.1689   -2.5535   -1.0794 O.3        1 <1>        0.000
     17 O16         3.0002   -2.2452   -2.7118 O.2        1 <1>        0.000
     18 H           3.6031    2.7394   -8.2432 H.spc      1 <1>        0.000
     19 H           2.3604    0.6830   -7.4262 H.spc      1 <1>        0.000
     20 H           3.0981   -1.8001    0.5913 H.spc      1 <1>        0.000
     21 H           5.9391   -0.4377   -4.8431 H.spc      1 <1>        0.000
     22 H           2.1362    2.3006   -2.4341 H.spc      1 <1>        0.000
     23 H           0.8443   -2.2424   -0.2312 H.spc      1 <1>        0.000
@<TRIPOS>BOND
     1    7   11 1  
     2   11   12 1  
     3    2    3 1  
     4   15   16 1  
     5    1    2 1  
     6   11   14 1  
     7    6    9 2  
     8   15   17 2  
     9    2    5 1  
    10   15    8 1  
    11    6   10 1  
    12   12   15 1  
    13    6    7 1  
    14    2    4 2  
    15    3    6 1  
    16   11   13 2  
    17    1   18 1  
    18    5   19 1  
    19    8   20 1  
    20   10   21 1  
    21   14   22 1  
    22   16   23 1  
# Name:          frag3-253-4/96164 -- energy: -3.903198
# Creation time: Sat Jun  5 12:53:20 2010


@<TRIPOS>MOLECULE
frag3-253-4/96164 -- energy: -3.903198
   23    22     1     1     1
SMALL
USER_CHARGES


@<TRIPOS>ATOM
      1 O4          4.4209    1.1580   -7.0115 O.3        1 <1>        0.000
      2 P1          4.5699    2.2875   -5.9278 P.3        1 <1>        0.000
      3 O5          3.1808    2.5623   -5.2578 O.3        1 <1>        0.000
      4 O6          5.5146    1.8420   -4.9167 O.2        1 <1>        0.000
      5 O7          5.0491    3.5989   -6.6257 O.3        1 <1>        0.000
      6 P2          2.6874    1.9027   -3.9511 P.3        1 <1>        0.000
      7 O8          3.0115    0.3505   -3.9466 O.3        1 <1>        0.000
      8 O15         3.1946   -0.3477   -0.2202 O.3        1 <1>        0.000
      9 O9          1.2710    2.0501   -3.6790 O.2        1 <1>        0.000
     10 O10         3.5774    2.4989   -2.7876 O.3        1 <1>        0.000
     11 P3          2.1569   -0.7130   -3.1760 P.3        1 <1>        0.000
     12 O11         3.0273   -1.7012   -2.3552 O.3        1 <1>        0.000
     13 O12         1.3911    0.0445   -2.1777 O.2        1 <1>        0.000
     14 O13         1.2613   -1.5133   -4.1684 O.3        1 <1>        0.000
     15 P4          4.0356   -1.2016   -1.2738 P.3        1 <1>        0.000
     16 O14         4.6625   -2.3796   -0.4914 O.3        1 <1>        0.000
     17 O16         5.0421   -0.4103   -1.9487 O.2        1 <1>        0.000
     18 H           3.7985    1.4422   -7.6848 H.spc      1 <1>        0.000
     19 H           4.4035    3.8634   -7.2852 H.spc      1 <1>        0.000
     20 H           2.5424   -0.9129    0.2002 H.spc      1 <1>        0.000
     21 H           4.5053    2.3825   -3.0043 H.spc      1 <1>        0.000
     22 H           1.8187   -1.9843   -4.7922 H.spc      1 <1>        0.000
     23 H           3.9675   -2.8805   -0.0582 H.spc      1 <1>        0.000
@<TRIPOS>BOND
     1    7   11 1  
     2   11   12 1  
     3    2    3 1  
     4   15   16 1  
     5    1    2 1  
     6   11   14 1  
     7    6    9 2  
     8   15   17 2  
     9    2    5 1  
    10   15    8 1  
    11    6   10 1  
    12   12   15 1  
    13    6    7 1  
    14    2    4 2  
    15    3    6 1  
    16   11   13 2  
    17    1   18 1  
    18    5   19 1  
    19    8   20 1  
    20   10   21 1  
    21   14   22 1  
    22   16   23 1  
# Name:          frag3-253-4/96164 -- energy: 1.360916
# Creation time: Sat Jun  5 12:53:20 2010


@<TRIPOS>MOLECULE
frag3-253-4/96164 -- energy: 1.360916
   23    22     1     1     1
SMALL
USER_CHARGES


@<TRIPOS>ATOM
      1 O4          5.3732    1.7874   -5.9875 O.3        1 <1>        0.000
      2 P1          4.6947    3.1285   -5.4584 P.3        1 <1>        0.000
      3 O5          3.5621    2.6910   -4.4764 O.3        1 <1>        0.000
      4 O6          5.7154    3.9865   -4.9130 O.2        1 <1>        0.000
      5 O7          3.9377    3.8068   -6.6669 O.3        1 <1>        0.000
      6 P2          2.8393    1.3119   -4.4952 P.3        1 <1>        0.000
      7 O8          3.3929    0.2482   -3.4879 O.3        1 <1>        0.000
      8 O15         3.2777   -1.8379    0.6418 O.3        1 <1>        0.000
      9 O9          2.9588    0.7572   -5.8657 O.2        1 <1>        0.000
     10 O10         1.3264    1.4875   -4.1083 O.3        1 <1>        0.000
     11 P3          2.7011   -1.1685   -3.2785 P.3        1 <1>        0.000
     12 O11         3.1627   -1.8491   -1.9687 O.3        1 <1>        0.000
     13 O12         1.2654   -0.9244   -3.1788 O.2        1 <1>        0.000
     14 O13         3.1170   -2.0543   -4.5044 O.3        1 <1>        0.000
     15 P4          3.3879   -1.0040   -0.6763 P.3        1 <1>        0.000
     16 O14         4.8711   -0.4581   -0.7403 O.3        1 <1>        0.000
     17 O16         2.4704    0.1202   -0.7508 O.2        1 <1>        0.000
     18 H           4.6979    1.2109   -6.3525 H.spc      1 <1>        0.000
     19 H           3.2680    3.2058   -7.0014 H.spc      1 <1>        0.000
     20 H           3.9113   -2.5587    0.6171 H.spc      1 <1>        0.000
     21 H           1.2640    1.8467   -3.2202 H.spc      1 <1>        0.000
     22 H           4.0698   -2.1714   -4.5046 H.spc      1 <1>        0.000
     23 H           5.4845   -1.1950   -0.6916 H.spc      1 <1>        0.000
@<TRIPOS>BOND
     1    7   11 1  
     2   11   12 1  
     3    2    3 1  
     4   15   16 1  
     5    1    2 1  
     6   11   14 1  
     7    6    9 2  
     8   15   17 2  
     9    2    5 1  
    10   15    8 1  
    11    6   10 1  
    12   12   15 1  
    13    6    7 1  
    14    2    4 2  
    15    3    6 1  
    16   11   13 2  
    17    1   18 1  
    18    5   19 1  
    19    8   20 1  
    20   10   21 1  
    21   14   22 1  
    22   16   23 1  
# Name:          frag3-253-4/96164 -- energy: 2.923369
# Creation time: Sat Jun  5 12:53:20 2010


@<TRIPOS>MOLECULE
frag3-253-4/96164 -- energy: 2.923369
   23    22     1     1     1
SMALL
USER_CHARGES


@<TRIPOS>ATOM
      1 O4          5.1728    2.4466   -3.2594 O.3        1 <1>        0.000
      2 P1          3.7818    2.9746   -3.8249 P.3        1 <1>        0.000
      3 O5          3.0524    1.7269   -4.4207 O.3        1 <1>        0.000
      4 O6          3.0982    3.6846   -2.7767 O.2        1 <1>        0.000
      5 O7          4.0849    3.8761   -5.0734 O.3        1 <1>        0.000
      6 P2          3.7367    0.6321   -5.3603 P.3        1 <1>        0.000
      7 O8          4.2540   -0.5409   -4.4610 O.3        1 <1>        0.000
      8 O15         4.1804    0.5550   -1.6390 O.3        1 <1>        0.000
      9 O9          4.7734    1.3001   -6.1292 O.2        1 <1>        0.000
     10 O10         2.6358   -0.0206   -6.2592 O.3        1 <1>        0.000
     11 P3          3.2656   -1.5007   -3.6731 P.3        1 <1>        0.000
     12 O11         2.2687   -0.5954   -2.8556 O.3        1 <1>        0.000
     13 O12         2.5449   -2.3200   -4.6232 O.2        1 <1>        0.000
     14 O13         4.0639   -2.2826   -2.5755 O.3        1 <1>        0.000
     15 P4          2.6860   -0.0160   -1.4560 P.3        1 <1>        0.000
     16 O14         1.8131    1.1878   -1.0496 O.3        1 <1>        0.000
     17 O16         2.6412   -1.0788   -0.4785 O.2        1 <1>        0.000
     18 H           5.6382    1.9707   -3.9511 H.spc      1 <1>        0.000
     19 H           4.5397    3.3556   -5.7397 H.spc      1 <1>        0.000
     20 H           4.1754    1.2576   -2.2932 H.spc      1 <1>        0.000
     21 H           1.9798   -0.4456   -5.7019 H.spc      1 <1>        0.000
     22 H           4.5057   -1.6573   -1.9963 H.spc      1 <1>        0.000
     23 H           1.8726    1.8673   -1.7251 H.spc      1 <1>        0.000
@<TRIPOS>BOND
     1    7   11 1  
     2   11   12 1  
     3    2    3 1  
     4   15   16 1  
     5    1    2 1  
     6   11   14 1  
     7    6    9 2  
     8   15   17 2  
     9    2    5 1  
    10   15    8 1  
    11    6   10 1  
    12   12   15 1  
    13    6    7 1  
    14    2    4 2  
    15    3    6 1  
    16   11   13 2  
    17    1   18 1  
    18    5   19 1  
    19    8   20 1  
    20   10   21 1  
    21   14   22 1  
    22   16   23 1  
# Name:          frag3-253-4/96164 -- energy: -2.208785
# Creation time: Sat Jun  5 12:53:20 2010


@<TRIPOS>MOLECULE
frag3-253-4/96164 -- energy: -2.208785
   23    22     1     1     1
SMALL
USER_CHARGES


@<TRIPOS>ATOM
      1 O4          2.4678   -0.7412    0.0641 O.3        1 <1>        0.000
      2 P1          3.5250   -1.7067   -0.6263 P.3        1 <1>        0.000
      3 O5          3.0562   -1.9667   -2.0910 O.3        1 <1>        0.000
      4 O6          4.8225   -1.0655   -0.5607 O.2        1 <1>        0.000
      5 O7          3.5050   -3.0660    0.1542 O.3        1 <1>        0.000
      6 P2          2.5613   -0.8624   -3.0663 P.3        1 <1>        0.000
      7 O8          3.6583    0.2320   -3.3368 O.3        1 <1>        0.000
      8 O15         4.1808    2.4758   -7.3418 O.3        1 <1>        0.000
      9 O9          1.3667   -0.2112   -2.5188 O.2        1 <1>        0.000
     10 O10         2.2604   -1.4982   -4.4751 O.3        1 <1>        0.000
     11 P3          3.4472    1.3858   -4.3368 P.3        1 <1>        0.000
     12 O11         4.6551    2.2184   -4.8434 O.3        1 <1>        0.000
     13 O12         2.8006    0.8480   -5.5532 O.2        1 <1>        0.000
     14 O13         2.4979    2.4841   -3.6477 O.3        1 <1>        0.000
     15 P4          4.4871    3.2636   -5.9963 P.3        1 <1>        0.000
     16 O14         3.1590    4.0620   -5.6529 O.3        1 <1>        0.000
     17 O16         5.6028    4.1769   -6.0867 O.2        1 <1>        0.000
     18 H           1.5980   -1.1461    0.0326 H.spc      1 <1>        0.000
     19 H           2.6317   -3.4590    0.0877 H.spc      1 <1>        0.000
     20 H           3.4312    1.8917   -7.2057 H.spc      1 <1>        0.000
     21 H           3.0555   -1.9175   -4.8121 H.spc      1 <1>        0.000
     22 H           2.9263    2.8266   -2.8598 H.spc      1 <1>        0.000
     23 H           2.4236    3.4477   -5.5949 H.spc      1 <1>        0.000
@<TRIPOS>BOND
     1    7   11 1  
     2   11   12 1  
     3    2    3 1  
     4   15   16 1  
     5    1    2 1  
     6   11   14 1  
     7    6    9 2  
     8   15   17 2  
     9    2    5 1  
    10   15    8 1  
    11    6   10 1  
    12   12   15 1  
    13    6    7 1  
    14    2    4 2  
    15    3    6 1  
    16   11   13 2  
    17    1   18 1  
    18    5   19 1  
    19    8   20 1  
    20   10   21 1  
    21   14   22 1  
    22   16   23 1  
# Name:          frag3-253-4/96164 -- energy: -5.577694
# Creation time: Sat Jun  5 12:53:20 2010


@<TRIPOS>MOLECULE
frag3-253-4/96164 -- energy: -5.577694
   23    22     1     1     1
SMALL
USER_CHARGES


@<TRIPOS>ATOM
      1 O4          3.8830   -0.6776    0.3763 O.3        1 <1>        0.000
      2 P1          3.8823   -0.6072   -1.1737 P.3        1 <1>        0.000
      3 O5          2.5608   -1.1254   -1.8392 O.3        1 <1>        0.000
      4 O6          4.1743    0.7408   -1.6137 O.2        1 <1>        0.000
      5 O7          5.0108   -1.6084   -1.6918 O.3        1 <1>        0.000
      6 P2          2.2688   -1.0749   -3.3829 P.3        1 <1>        0.000
      7 O8          3.0834    0.1469   -3.9779 O.3        1 <1>        0.000
      8 O15         4.4135    1.7260   -6.4902 O.3        1 <1>        0.000
      9 O9          0.8718   -0.8500   -3.6951 O.2        1 <1>        0.000
     10 O10         2.8292   -2.3954   -3.9992 O.3        1 <1>        0.000
     11 P3          2.4380    1.5468   -4.2894 P.3        1 <1>        0.000
     12 O11         3.4791    2.6876   -4.3567 O.3        1 <1>        0.000
     13 O12         1.7806    1.4687   -5.5873 O.2        1 <1>        0.000
     14 O13         1.4507    1.8433   -3.0946 O.3        1 <1>        0.000
     15 P4          4.8084    2.5225   -5.1492 P.3        1 <1>        0.000
     16 O14         5.3660    3.8910   -5.6076 O.3        1 <1>        0.000
     17 O16         5.7533    1.7938   -4.3431 O.2        1 <1>        0.000
     18 H           3.6884   -1.5755    0.6548 H.spc      1 <1>        0.000
     19 H           4.8080   -2.4986   -1.3950 H.spc      1 <1>        0.000
     20 H           3.7842    2.2454   -6.9960 H.spc      1 <1>        0.000
     21 H           3.7541   -2.4913   -3.7605 H.spc      1 <1>        0.000
     22 H           1.9464    1.8815   -2.2733 H.spc      1 <1>        0.000
     23 H           4.7066    4.3418   -6.1401 H.spc      1 <1>        0.000
@<TRIPOS>BOND
     1    7   11 1  
     2   11   12 1  
     3    2    3 1  
     4   15   16 1  
     5    1    2 1  
     6   11   14 1  
     7    6    9 2  
     8   15   17 2  
     9    2    5 1  
    10   15    8 1  
    11    6   10 1  
    12   12   15 1  
    13    6    7 1  
    14    2    4 2  
    15    3    6 1  
    16   11   13 2  
    17    1   18 1  
    18    5   19 1  
    19    8   20 1  
    20   10   21 1  
    21   14   22 1  
    22   16   23 1  
# Name:          frag3-253-4/96164 -- energy: -2.050411
# Creation time: Sat Jun  5 12:53:20 2010


@<TRIPOS>MOLECULE
frag3-253-4/96164 -- energy: -2.050411
   23    22     1     1     1
SMALL
USER_CHARGES


@<TRIPOS>ATOM
      1 O4          2.2901   -0.3945   -0.0384 O.3        1 <1>        0.000
      2 P1          3.5333   -1.1645   -0.6561 P.3        1 <1>        0.000
      3 O5          3.0602   -1.9185   -1.9378 O.3        1 <1>        0.000
      4 O6          4.5541   -0.1803   -0.9765 O.2        1 <1>        0.000
      5 O7          4.0315   -2.1776    0.4234 O.3        1 <1>        0.000
      6 P2          2.6274   -1.2462   -3.2676 P.3        1 <1>        0.000
      7 O8          3.7682   -0.3233   -3.8511 O.3        1 <1>        0.000
      8 O15         4.4552    2.9696   -7.0772 O.3        1 <1>        0.000
      9 O9          1.4619   -0.3855   -3.0068 O.2        1 <1>        0.000
     10 O10         2.3180   -2.2995   -4.3769 O.3        1 <1>        0.000
     11 P3          3.4977    0.9906   -4.6164 P.3        1 <1>        0.000
     12 O11         4.5828    2.0929   -4.6799 O.3        1 <1>        0.000
     13 O12         3.1043    0.7096   -6.0036 O.2        1 <1>        0.000
     14 O13         2.2870    1.7094   -3.8235 O.3        1 <1>        0.000
     15 P4          4.3680    3.3732   -5.5363 P.3        1 <1>        0.000
     16 O14         2.8600    3.8152   -5.3195 O.3        1 <1>        0.000
     17 O16         5.2543    4.4584   -5.1710 O.2        1 <1>        0.000
     18 H           1.6012   -1.0259    0.1816 H.spc      1 <1>        0.000
     19 H           3.3354   -2.8115    0.6111 H.spc      1 <1>        0.000
     20 H           3.8463    2.2485   -7.2529 H.spc      1 <1>        0.000
     21 H           3.0944   -2.8445   -4.5246 H.spc      1 <1>        0.000
     22 H           2.5584    1.8866   -2.9199 H.spc      1 <1>        0.000
     23 H           2.2776    3.0920   -5.5632 H.spc      1 <1>        0.000
@<TRIPOS>BOND
     1    7   11 1  
     2   11   12 1  
     3    2    3 1  
     4   15   16 1  
     5    1    2 1  
     6   11   14 1  
     7    6    9 2  
     8   15   17 2  
     9    2    5 1  
    10   15    8 1  
    11    6   10 1  
    12   12   15 1  
    13    6    7 1  
    14    2    4 2  
    15    3    6 1  
    16   11   13 2  
    17    1   18 1  
    18    5   19 1  
    19    8   20 1  
    20   10   21 1  
    21   14   22 1  
    22   16   23 1  
# Name:          frag3-253-4/96164 -- energy: -5.106738
# Creation time: Sat Jun  5 12:53:20 2010


@<TRIPOS>MOLECULE
frag3-253-4/96164 -- energy: -5.106738
   23    22     1     1     1
SMALL
USER_CHARGES


@<TRIPOS>ATOM
      1 O4          4.9006   -0.8881   -0.1620 O.3        1 <1>        0.000
      2 P1          4.0814   -1.3107   -1.4053 P.3        1 <1>        0.000
      3 O5          2.6392   -0.6813   -1.4548 O.3        1 <1>        0.000
      4 O6          4.7976   -0.9488   -2.6146 O.2        1 <1>        0.000
      5 O7          3.8217   -2.8723   -1.3815 O.3        1 <1>        0.000
      6 P2          1.8489   -0.3689   -2.7788 P.3        1 <1>        0.000
      7 O8          2.8699    0.3532   -3.7526 O.3        1 <1>        0.000
      8 O15         3.5430    3.3703   -6.6267 O.3        1 <1>        0.000
      9 O9          0.7149    0.5040   -2.6000 O.2        1 <1>        0.000
     10 O10         1.4743   -1.7453   -3.4209 O.3        1 <1>        0.000
     11 P3          3.1661    1.8896   -3.7129 P.3        1 <1>        0.000
     12 O11         4.4285    2.3230   -4.4835 O.3        1 <1>        0.000
     13 O12         2.0404    2.5810   -4.3292 O.2        1 <1>        0.000
     14 O13         3.3534    2.2509   -2.1824 O.3        1 <1>        0.000
     15 P4          4.4755    2.2114   -6.0353 P.3        1 <1>        0.000
     16 O14         5.8962    2.4692   -6.5912 O.3        1 <1>        0.000
     17 O16         4.0023    0.8916   -6.3836 O.2        1 <1>        0.000
     18 H           4.4209   -1.1305    0.6334 H.spc      1 <1>        0.000
     19 H           3.3479   -3.1046   -0.5795 H.spc      1 <1>        0.000
     20 H           3.8958    4.2255   -6.3703 H.spc      1 <1>        0.000
     21 H           2.2663   -2.2798   -3.5141 H.spc      1 <1>        0.000
     22 H           4.1055    1.7689   -1.8307 H.spc      1 <1>        0.000
     23 H           6.1804    3.3520   -6.3431 H.spc      1 <1>        0.000
@<TRIPOS>BOND
     1    7   11 1  
     2   11   12 1  
     3    2    3 1  
     4   15   16 1  
     5    1    2 1  
     6   11   14 1  
     7    6    9 2  
     8   15   17 2  
     9    2    5 1  
    10   15    8 1  
    11    6   10 1  
    12   12   15 1  
    13    6    7 1  
    14    2    4 2  
    15    3    6 1  
    16   11   13 2  
    17    1   18 1  
    18    5   19 1  
    19    8   20 1  
    20   10   21 1  
    21   14   22 1  
    22   16   23 1  
# Name:          frag3-253-4/96164 -- energy: -1.999533
# Creation time: Sat Jun  5 12:53:20 2010


@<TRIPOS>MOLECULE
frag3-253-4/96164 -- energy: -1.999533
   23    22     1     1     1
SMALL
USER_CHARGES


@<TRIPOS>ATOM
      1 O4          4.1366    0.3403   -0.8320 O.3        1 <1>        0.000
      2 P1          3.3809   -1.0499   -0.8378 P.3        1 <1>        0.000
      3 O5          2.1585   -0.9664   -1.8342 O.3        1 <1>        0.000
      4 O6          4.3126   -2.0780   -1.2816 O.2        1 <1>        0.000
      5 O7          2.8288   -1.3500    0.5908 O.3        1 <1>        0.000
      6 P2          2.2739   -1.1969   -3.3820 P.3        1 <1>        0.000
      7 O8          3.5413   -0.3938   -3.8977 O.3        1 <1>        0.000
      8 O15         3.6665    3.2481   -6.8947 O.3        1 <1>        0.000
      9 O9          1.1140   -0.7558   -4.1332 O.2        1 <1>        0.000
     10 O10         2.5771   -2.7216   -3.5834 O.3        1 <1>        0.000
     11 P3          3.4676    1.0589   -4.3935 P.3        1 <1>        0.000
     12 O11         4.6818    1.7201   -5.0912 O.3        1 <1>        0.000
     13 O12         2.3321    1.1957   -5.3164 O.2        1 <1>        0.000
     14 O13         3.2353    2.0101   -3.0994 O.3        1 <1>        0.000
     15 P4          4.6091    3.1908   -5.6215 P.3        1 <1>        0.000
     16 O14         3.8265    3.9997   -4.4898 O.3        1 <1>        0.000
     17 O16         5.9113    3.7775   -5.8178 O.2        1 <1>        0.000
     18 H           3.5346    1.0293   -0.5412 H.spc      1 <1>        0.000
     19 H           2.2201   -0.6544    0.8500 H.spc      1 <1>        0.000
     20 H           2.8230    2.8402   -6.6856 H.spc      1 <1>        0.000
     21 H           3.3501   -2.9638   -3.0682 H.spc      1 <1>        0.000
     22 H           3.9785    1.9184   -2.4987 H.spc      1 <1>        0.000
     23 H           2.9596    3.6083   -4.3598 H.spc      1 <1>        0.000
@<TRIPOS>BOND
     1    7   11 1  
     2   11   12 1  
     3    2    3 1  
     4   15   16 1  
     5    1    2 1  
     6   11   14 1  
     7    6    9 2  
     8   15   17 2  
     9    2    5 1  
    10   15    8 1  
    11    6   10 1  
    12   12   15 1  
    13    6    7 1  
    14    2    4 2  
    15    3    6 1  
    16   11   13 2  
    17    1   18 1  
    18    5   19 1  
    19    8   20 1  
    20   10   21 1  
    21   14   22 1  
    22   16   23 1  
# Name:          frag3-253-4/96164 -- energy: -2.566737
# Creation time: Sat Jun  5 12:53:20 2010


@<TRIPOS>MOLECULE
frag3-253-4/96164 -- energy: -2.566737
   23    22     1     1     1
SMALL
USER_CHARGES


@<TRIPOS>ATOM
      1 O4          1.3769   -1.1583    0.2697 O.3        1 <1>        0.000
      2 P1          2.5092   -0.9721   -0.7713 P.3        1 <1>        0.000
      3 O5          1.9956   -0.8495   -2.2512 O.3        1 <1>        0.000
      4 O6          3.3520    0.1541   -0.4212 O.2        1 <1>        0.000
      5 O7          3.3982   -2.3016   -0.8133 O.3        1 <1>        0.000
      6 P2          2.9184   -0.6492   -3.4722 P.3        1 <1>        0.000
      7 O8          3.7469    0.6921   -3.4253 O.3        1 <1>        0.000
      8 O15         3.6269    3.6334   -4.1217 O.3        1 <1>        0.000
      9 O9          2.3154   -0.8008   -4.7809 O.2        1 <1>        0.000
     10 O10         4.0787   -1.7626   -3.2884 O.3        1 <1>        0.000
     11 P3          4.8443    1.0621   -4.4941 P.3        1 <1>        0.000
     12 O11         4.1350    1.7348   -5.7207 O.3        1 <1>        0.000
     13 O12         5.8323    1.9973   -3.9963 O.2        1 <1>        0.000
     14 O13         5.4427   -0.3125   -4.9901 O.3        1 <1>        0.000
     15 P4          3.1950    2.9640   -5.5213 P.3        1 <1>        0.000
     16 O14         3.4723    4.0491   -6.5995 O.3        1 <1>        0.000
     17 O16         1.8141    2.5484   -5.5174 O.2        1 <1>        0.000
     18 H           0.8326   -1.9080    0.0181 H.spc      1 <1>        0.000
     19 H           2.8427   -3.0495   -1.0450 H.spc      1 <1>        0.000
     20 H           4.5494    3.8955   -4.1648 H.spc      1 <1>        0.000
     21 H           4.4802   -1.6647   -2.4219 H.spc      1 <1>        0.000
     22 H           4.7311   -0.8756   -5.3033 H.spc      1 <1>        0.000
     23 H           4.3989    4.2983   -6.5702 H.spc      1 <1>        0.000
@<TRIPOS>BOND
     1    7   11 1  
     2   11   12 1  
     3    2    3 1  
     4   15   16 1  
     5    1    2 1  
     6   11   14 1  
     7    6    9 2  
     8   15   17 2  
     9    2    5 1  
    10   15    8 1  
    11    6   10 1  
    12   12   15 1  
    13    6    7 1  
    14    2    4 2  
    15    3    6 1  
    16   11   13 2  
    17    1   18 1  
    18    5   19 1  
    19    8   20 1  
    20   10   21 1  
    21   14   22 1  
    22   16   23 1  
# Name:          frag3-253-4/96164 -- energy: 2.285938
# Creation time: Sat Jun  5 12:53:20 2010


@<TRIPOS>MOLECULE
frag3-253-4/96164 -- energy: 2.285938
   23    22     1     1     1
SMALL
USER_CHARGES


@<TRIPOS>ATOM
      1 O4          3.8281    0.1537   -0.4496 O.3        1 <1>        0.000
      2 P1          2.9692   -1.1804   -0.5056 P.3        1 <1>        0.000
      3 O5          3.1447   -1.8057   -1.9268 O.3        1 <1>        0.000
      4 O6          3.3033   -2.0171    0.6195 O.2        1 <1>        0.000
      5 O7          1.4356   -0.7548   -0.4686 O.3        1 <1>        0.000
      6 P2          3.0212   -1.0140   -3.2625 P.3        1 <1>        0.000
      7 O8          4.3535   -0.3228   -3.7307 O.3        1 <1>        0.000
      8 O15         5.0141    3.5889   -5.8054 O.3        1 <1>        0.000
      9 O9          2.0081    0.0592   -3.0789 O.2        1 <1>        0.000
     10 O10         2.5954   -1.9563   -4.4450 O.3        1 <1>        0.000
     11 P3          4.3884    0.8097   -4.7760 P.3        1 <1>        0.000
     12 O11         3.5551    2.0868   -4.3601 O.3        1 <1>        0.000
     13 O12         5.7096    1.2855   -5.1355 O.2        1 <1>        0.000
     14 O13         3.5742    0.2883   -6.0719 O.3        1 <1>        0.000
     15 P4          3.5143    3.3472   -5.2882 P.3        1 <1>        0.000
     16 O14         2.6947    2.9559   -6.5811 O.3        1 <1>        0.000
     17 O16         2.9442    4.5045   -4.6488 O.2        1 <1>        0.000
     18 H           3.6038    0.7091   -1.1998 H.spc      1 <1>        0.000
     19 H           1.2404   -0.1996   -1.2270 H.spc      1 <1>        0.000
     20 H           5.3411    2.7876   -6.2209 H.spc      1 <1>        0.000
     21 H           3.2542   -2.6456   -4.5566 H.spc      1 <1>        0.000
     22 H           2.7061   -0.0191   -5.8007 H.spc      1 <1>        0.000
     23 H           3.0927    2.1835   -6.9893 H.spc      1 <1>        0.000
@<TRIPOS>BOND
     1    7   11 1  
     2   11   12 1  
     3    2    3 1  
     4   15   16 1  
     5    1    2 1  
     6   11   14 1  
     7    6    9 2  
     8   15   17 2  
     9    2    5 1  
    10   15    8 1  
    11    6   10 1  
    12   12   15 1  
    13    6    7 1  
    14    2    4 2  
    15    3    6 1  
    16   11   13 2  
    17    1   18 1  
    18    5   19 1  
    19    8   20 1  
    20   10   21 1  
    21   14   22 1  
    22   16   23 1  
# Name:          frag3-253-4/96164 -- energy: -4.332168
# Creation time: Sat Jun  5 12:53:20 2010


@<TRIPOS>MOLECULE
frag3-253-4/96164 -- energy: -4.332168
   23    22     1     1     1
SMALL
USER_CHARGES


@<TRIPOS>ATOM
      1 O4          2.7003   -0.4780    0.8582 O.3        1 <1>        0.000
      2 P1          2.6085   -0.8865   -0.6424 P.3        1 <1>        0.000
      3 O5          3.4455    0.0224   -1.5968 O.3        1 <1>        0.000
      4 O6          2.9873   -2.2809   -0.7919 O.2        1 <1>        0.000
      5 O7          1.1005   -0.6833   -1.0934 O.3        1 <1>        0.000
      6 P2          3.6543   -0.2668   -3.1019 P.3        1 <1>        0.000
      7 O8          4.7980    0.4601   -3.8615 O.3        1 <1>        0.000
      8 O15         4.2888    3.7250   -5.0612 O.3        1 <1>        0.000
      9 O9          2.4023   -0.0687   -3.8475 O.2        1 <1>        0.000
     10 O10         4.0244   -1.8245   -3.1425 O.3        1 <1>        0.000
     11 P3          4.7489    0.7681   -5.4001 P.3        1 <1>        0.000
     12 O11         3.3533    1.4473   -5.6852 O.3        1 <1>        0.000
     13 O12         5.7512    1.7287   -5.8132 O.2        1 <1>        0.000
     14 O13         4.7892   -0.6044   -6.1541 O.3        1 <1>        0.000
     15 P4          2.9690    2.8073   -5.0293 P.3        1 <1>        0.000
     16 O14         1.9217    3.5753   -5.8765 O.3        1 <1>        0.000
     17 O16         2.5107    2.5878   -3.6761 O.2        1 <1>        0.000
     18 H           2.4494    0.4437    0.9537 H.spc      1 <1>        0.000
     19 H           0.8588    0.2402   -0.9914 H.spc      1 <1>        0.000
     20 H           4.5671    3.8518   -5.9712 H.spc      1 <1>        0.000
     21 H           4.8409   -1.9710   -2.6593 H.spc      1 <1>        0.000
     22 H           4.0939   -1.1740   -5.8169 H.spc      1 <1>        0.000
     23 H           2.2612    3.7014   -6.7656 H.spc      1 <1>        0.000
@<TRIPOS>BOND
     1    7   11 1  
     2   11   12 1  
     3    2    3 1  
     4   15   16 1  
     5    1    2 1  
     6   11   14 1  
     7    6    9 2  
     8   15   17 2  
     9    2    5 1  
    10   15    8 1  
    11    6   10 1  
    12   12   15 1  
    13    6    7 1  
    14    2    4 2  
    15    3    6 1  
    16   11   13 2  
    17    1   18 1  
    18    5   19 1  
    19    8   20 1  
    20   10   21 1  
    21   14   22 1  
    22   16   23 1  
# Name:          frag3-253-4/96164 -- energy: -4.783557
# Creation time: Sat Jun  5 12:53:20 2010


@<TRIPOS>MOLECULE
frag3-253-4/96164 -- energy: -4.783557
   23    22     1     1     1
SMALL
USER_CHARGES


@<TRIPOS>ATOM
      1 O4          1.3474    0.1264   -1.2366 O.3        1 <1>        0.000
      2 P1          2.8630   -0.1697   -0.9107 P.3        1 <1>        0.000
      3 O5          3.3407   -1.2965   -1.8895 O.3        1 <1>        0.000
      4 O6          3.6341    1.0360   -1.1055 O.2        1 <1>        0.000
      5 O7          2.9703   -0.7093    0.5491 O.3        1 <1>        0.000
      6 P2          3.4028   -1.1832   -3.4268 P.3        1 <1>        0.000
      7 O8          4.3355   -0.0193   -3.9276 O.3        1 <1>        0.000
      8 O15         4.8145    3.3021   -4.3027 O.3        1 <1>        0.000
      9 O9          2.0526   -0.9146   -3.9542 O.2        1 <1>        0.000
     10 O10         3.9782   -2.5021   -4.0535 O.3        1 <1>        0.000
     11 P3          4.2783    0.5654   -5.3892 P.3        1 <1>        0.000
     12 O11         3.1993    1.6941   -5.4387 O.3        1 <1>        0.000
     13 O12         5.5338    1.1391   -5.8193 O.2        1 <1>        0.000
     14 O13         3.7708   -0.6367   -6.2815 O.3        1 <1>        0.000
     15 P4          3.2670    2.9018   -4.4601 P.3        1 <1>        0.000
     16 O14         2.5905    4.1604   -5.0673 O.3        1 <1>        0.000
     17 O16         2.6750    2.5350   -3.2013 O.2        1 <1>        0.000
     18 H           0.8316   -0.6730   -1.1082 H.spc      1 <1>        0.000
     19 H           2.4446   -1.5081    0.6332 H.spc      1 <1>        0.000
     20 H           5.1714    3.5395   -5.1617 H.spc      1 <1>        0.000
     21 H           4.8566   -2.6653   -3.7022 H.spc      1 <1>        0.000
     22 H           2.9369   -0.9617   -5.9343 H.spc      1 <1>        0.000
     23 H           3.0095    4.3754   -5.9038 H.spc      1 <1>        0.000
@<TRIPOS>BOND
     1    7   11 1  
     2   11   12 1  
     3    2    3 1  
     4   15   16 1  
     5    1    2 1  
     6   11   14 1  
     7    6    9 2  
     8   15   17 2  
     9    2    5 1  
    10   15    8 1  
    11    6   10 1  
    12   12   15 1  
    13    6    7 1  
    14    2    4 2  
    15    3    6 1  
    16   11   13 2  
    17    1   18 1  
    18    5   19 1  
    19    8   20 1  
    20   10   21 1  
    21   14   22 1  
    22   16   23 1  
# Name:          frag3-253-4/96164 -- energy: -0.456728
# Creation time: Sat Jun  5 12:53:20 2010


@<TRIPOS>MOLECULE
frag3-253-4/96164 -- energy: -0.456728
   23    22     1     1     1
SMALL
USER_CHARGES


@<TRIPOS>ATOM
      1 O4          2.8590    0.1356   -0.1556 O.3        1 <1>        0.000
      2 P1          3.2926   -1.3226   -0.5973 P.3        1 <1>        0.000
      3 O5          3.7237   -1.2917   -2.1019 O.3        1 <1>        0.000
      4 O6          4.2461   -1.8513    0.3509 O.2        1 <1>        0.000
      5 O7          1.9557   -2.2004   -0.5923 O.3        1 <1>        0.000
      6 P2          2.7185   -1.0570   -3.3023 P.3        1 <1>        0.000
      7 O8          3.3866   -0.4360   -4.5589 O.3        1 <1>        0.000
      8 O15         2.8246    4.0588   -5.1940 O.3        1 <1>        0.000
      9 O9          1.6633   -0.1385   -2.8111 O.2        1 <1>        0.000
     10 O10         2.0867   -2.4386   -3.6923 O.3        1 <1>        0.000
     11 P3          3.8344    1.0357   -4.6308 P.3        1 <1>        0.000
     12 O11         3.7245    1.7934   -5.9841 O.3        1 <1>        0.000
     13 O12         3.0197    1.8135   -3.6720 O.2        1 <1>        0.000
     14 O13         5.3863    1.1420   -4.2511 O.3        1 <1>        0.000
     15 P4          3.9590    3.3367   -6.0519 P.3        1 <1>        0.000
     16 O14         5.3095    3.6180   -5.2648 O.3        1 <1>        0.000
     17 O16         4.0638    3.8312   -7.4057 O.2        1 <1>        0.000
     18 H           2.2256    0.4849   -0.7868 H.spc      1 <1>        0.000
     19 H           1.3332   -1.8370   -1.2264 H.spc      1 <1>        0.000
     20 H           2.8076    3.6858   -4.3096 H.spc      1 <1>        0.000
     21 H           2.7763   -3.0266   -4.0090 H.spc      1 <1>        0.000
     22 H           5.9040    0.6337   -4.8798 H.spc      1 <1>        0.000
     23 H           5.2305    3.2864   -4.3674 H.spc      1 <1>        0.000
@<TRIPOS>BOND
     1    7   11 1  
     2   11   12 1  
     3    2    3 1  
     4   15   16 1  
     5    1    2 1  
     6   11   14 1  
     7    6    9 2  
     8   15   17 2  
     9    2    5 1  
    10   15    8 1  
    11    6   10 1  
    12   12   15 1  
    13    6    7 1  
    14    2    4 2  
    15    3    6 1  
    16   11   13 2  
    17    1   18 1  
    18    5   19 1  
    19    8   20 1  
    20   10   21 1  
    21   14   22 1  
    22   16   23 1  
# Name:          frag3-253-4/96164 -- energy: -3.864140
# Creation time: Sat Jun  5 12:53:20 2010


@<TRIPOS>MOLECULE
frag3-253-4/96164 -- energy: -3.864140
   23    22     1     1     1
SMALL
USER_CHARGES


@<TRIPOS>ATOM
      1 O4          2.2868    3.9473   -4.9298 O.3        1 <1>        0.000
      2 P1          3.4365    3.1982   -5.6742 P.3        1 <1>        0.000
      3 O5          4.4576    2.5693   -4.6560 O.3        1 <1>        0.000
      4 O6          2.8716    2.1371   -6.4913 O.2        1 <1>        0.000
      5 O7          4.2347    4.2187   -6.5576 O.3        1 <1>        0.000
      6 P2          4.6974    1.0477   -4.4938 P.3        1 <1>        0.000
      7 O8          3.3048    0.2928   -4.4565 O.3        1 <1>        0.000
      8 O15         3.3222   -0.4373    0.6871 O.3        1 <1>        0.000
      9 O9          5.4235    0.6594   -3.2981 O.2        1 <1>        0.000
     10 O10         5.4220    0.5571   -5.8039 O.3        1 <1>        0.000
     11 P3          2.9041   -0.7096   -3.3650 P.3        1 <1>        0.000
     12 O11         3.1488   -0.1399   -1.9080 O.3        1 <1>        0.000
     13 O12         1.5344   -1.1496   -3.3889 O.2        1 <1>        0.000
     14 O13         3.9645   -1.9107   -3.4269 O.3        1 <1>        0.000
     15 P4          2.7462   -0.9957   -0.6570 P.3        1 <1>        0.000
     16 O14         1.1752   -0.8941   -0.5510 O.3        1 <1>        0.000
     17 O16         3.1237   -2.3619   -0.9443 O.2        1 <1>        0.000
     18 H           2.6599    4.6481   -4.3901 H.spc      1 <1>        0.000
     19 H           4.5979    4.9090   -5.9980 H.spc      1 <1>        0.000
     20 H           3.0298    0.4691    0.8072 H.spc      1 <1>        0.000
     21 H           4.9142    0.8315   -6.5710 H.spc      1 <1>        0.000
     22 H           4.8546   -1.5516   -3.4076 H.spc      1 <1>        0.000
     23 H           0.9265    0.0133   -0.3603 H.spc      1 <1>        0.000
@<TRIPOS>BOND
     1    7   11 1  
     2   11   12 1  
     3    2    3 1  
     4   15   16 1  
     5    1    2 1  
     6   11   14 1  
     7    6    9 2  
     8   15   17 2  
     9    2    5 1  
    10   15    8 1  
    11    6   10 1  
    12   12   15 1  
    13    6    7 1  
    14    2    4 2  
    15    3    6 1  
    16   11   13 2  
    17    1   18 1  
    18    5   19 1  
    19    8   20 1  
    20   10   21 1  
    21   14   22 1  
    22   16   23 1  
# Name:          frag3-253-4/96164 -- energy: -1.256881
# Creation time: Sat Jun  5 12:53:20 2010


@<TRIPOS>MOLECULE
frag3-253-4/96164 -- energy: -1.256881
   23    22     1     1     1
SMALL
USER_CHARGES


@<TRIPOS>ATOM
      1 O4          4.8753    3.5893   -4.3705 O.3        1 <1>        0.000
      2 P1          3.5138    3.3638   -5.1672 P.3        1 <1>        0.000
      3 O5          3.6243    1.9833   -5.8792 O.3        1 <1>        0.000
      4 O6          2.4288    3.4109   -4.2180 O.2        1 <1>        0.000
      5 O7          3.4269    4.5123   -6.2231 O.3        1 <1>        0.000
      6 P2          4.0719    0.6594   -5.2087 P.3        1 <1>        0.000
      7 O8          3.1420    0.2373   -4.0169 O.3        1 <1>        0.000
      8 O15         1.1164   -0.5529    0.0489 O.3        1 <1>        0.000
      9 O9          5.4450    0.7997   -4.7196 O.2        1 <1>        0.000
     10 O10         3.9662   -0.5118   -6.2530 O.3        1 <1>        0.000
     11 P3          3.2749   -1.1452   -3.2881 P.3        1 <1>        0.000
     12 O11         2.2653   -1.3868   -2.1503 O.3        1 <1>        0.000
     13 O12         3.2736   -2.1994   -4.2730 O.2        1 <1>        0.000
     14 O13         4.6786   -1.0608   -2.4872 O.3        1 <1>        0.000
     15 P4          2.4368   -0.6786   -0.7673 P.3        1 <1>        0.000
     16 O14         3.4121   -1.5771    0.0952 O.3        1 <1>        0.000
     17 O16         3.1020    0.5855   -1.0374 O.2        1 <1>        0.000
     18 H           5.6125    3.5617   -4.9848 H.spc      1 <1>        0.000
     19 H           4.1658    4.4423   -6.8320 H.spc      1 <1>        0.000
     20 H           0.7409   -1.4260    0.1844 H.spc      1 <1>        0.000
     21 H           3.0593   -0.5851   -6.5592 H.spc      1 <1>        0.000
     22 H           4.6366   -0.3491   -1.8443 H.spc      1 <1>        0.000
     23 H           2.9884   -2.4177    0.2835 H.spc      1 <1>        0.000
@<TRIPOS>BOND
     1    7   11 1  
     2   11   12 1  
     3    2    3 1  
     4   15   16 1  
     5    1    2 1  
     6   11   14 1  
     7    6    9 2  
     8   15   17 2  
     9    2    5 1  
    10   15    8 1  
    11    6   10 1  
    12   12   15 1  
    13    6    7 1  
    14    2    4 2  
    15    3    6 1  
    16   11   13 2  
    17    1   18 1  
    18    5   19 1  
    19    8   20 1  
    20   10   21 1  
    21   14   22 1  
    22   16   23 1  
# Name:          frag3-253-4/96164 -- energy: -3.563227
# Creation time: Sat Jun  5 12:53:20 2010


@<TRIPOS>MOLECULE
frag3-253-4/96164 -- energy: -3.563227
   23    22     1     1     1
SMALL
USER_CHARGES


@<TRIPOS>ATOM
      1 O4          3.8868    0.0844   -0.2938 O.3        1 <1>        0.000
      2 P1          3.3604   -1.3873   -0.5680 P.3        1 <1>        0.000
      3 O5          2.1048   -1.2733   -1.5129 O.3        1 <1>        0.000
      4 O6          4.4276   -2.1392   -1.2061 O.2        1 <1>        0.000
      5 O7          2.9062   -2.0308    0.7763 O.3        1 <1>        0.000
      6 P2          2.1397   -0.7127   -2.9515 P.3        1 <1>        0.000
      7 O8          3.0847    0.5633   -3.0522 O.3        1 <1>        0.000
      8 O15         5.9823    3.1040   -5.9059 O.3        1 <1>        0.000
      9 O9          0.8552   -0.3942   -3.5487 O.2        1 <1>        0.000
     10 O10         2.9311   -1.7792   -3.8349 O.3        1 <1>        0.000
     11 P3          3.5006    1.2086   -4.4008 P.3        1 <1>        0.000
     12 O11         3.8976    2.7013   -4.4474 O.3        1 <1>        0.000
     13 O12         4.5973    0.4518   -5.0194 O.2        1 <1>        0.000
     14 O13         2.1657    1.1035   -5.3050 O.3        1 <1>        0.000
     15 P4          4.4144    3.3381   -5.7715 P.3        1 <1>        0.000
     16 O14         3.7858    2.4726   -6.9519 O.3        1 <1>        0.000
     17 O16         4.0138    4.7182   -5.9218 O.2        1 <1>        0.000
     18 H           3.1939    0.5974    0.1284 H.spc      1 <1>        0.000
     19 H           2.2027   -1.5028    1.1609 H.spc      1 <1>        0.000
     20 H           6.1759    2.1702   -5.7959 H.spc      1 <1>        0.000
     21 H           3.7750   -1.9731   -3.4205 H.spc      1 <1>        0.000
     22 H           1.4587    1.6021   -4.8889 H.spc      1 <1>        0.000
     23 H           4.0521    1.5557   -6.8518 H.spc      1 <1>        0.000
@<TRIPOS>BOND
     1    7   11 1  
     2   11   12 1  
     3    2    3 1  
     4   15   16 1  
     5    1    2 1  
     6   11   14 1  
     7    6    9 2  
     8   15   17 2  
     9    2    5 1  
    10   15    8 1  
    11    6   10 1  
    12   12   15 1  
    13    6    7 1  
    14    2    4 2  
    15    3    6 1  
    16   11   13 2  
    17    1   18 1  
    18    5   19 1  
    19    8   20 1  
    20   10   21 1  
    21   14   22 1  
    22   16   23 1  
# Name:          frag3-253-4/96164 -- energy: -2.648018
# Creation time: Sat Jun  5 12:53:20 2010


@<TRIPOS>MOLECULE
frag3-253-4/96164 -- energy: -2.648018
   23    22     1     1     1
SMALL
USER_CHARGES


@<TRIPOS>ATOM
      1 O4          3.0575    4.2745   -7.1041 O.3        1 <1>        0.000
      2 P1          3.7997    3.5169   -5.9660 P.3        1 <1>        0.000
      3 O5          3.1081    2.1664   -5.5550 O.3        1 <1>        0.000
      4 O6          5.1854    3.2900   -6.3421 O.2        1 <1>        0.000
      5 O7          3.7293    4.3908   -4.6418 O.3        1 <1>        0.000
      6 P2          3.7373    1.1442   -4.5685 P.3        1 <1>        0.000
      7 O8          3.1683   -0.2957   -4.5474 O.3        1 <1>        0.000
      8 O15         1.3321   -2.1410   -0.7139 O.3        1 <1>        0.000
      9 O9          3.7240    1.6821   -3.1992 O.2        1 <1>        0.000
     10 O10         5.2536    1.0193   -5.0579 O.3        1 <1>        0.000
     11 P3          3.1850   -1.1753   -3.2866 P.3        1 <1>        0.000
     12 O11         2.7249   -0.4090   -1.9825 O.3        1 <1>        0.000
     13 O12         2.3571   -2.3656   -3.3548 O.2        1 <1>        0.000
     14 O13         4.7210   -1.5255   -2.9636 O.3        1 <1>        0.000
     15 P4          2.5780   -1.1567   -0.6208 P.3        1 <1>        0.000
     16 O14         3.8463   -2.1127   -0.5304 O.3        1 <1>        0.000
     17 O16         2.5463   -0.2737    0.5194 O.2        1 <1>        0.000
     18 H           2.1440    4.4199   -6.8474 H.spc      1 <1>        0.000
     19 H           2.8106    4.5343   -4.4029 H.spc      1 <1>        0.000
     20 H           1.4210   -2.6951   -1.4928 H.spc      1 <1>        0.000
     21 H           5.2724    0.6688   -5.9514 H.spc      1 <1>        0.000
     22 H           5.2323   -0.7138   -2.9274 H.spc      1 <1>        0.000
     23 H           3.8603   -2.6968   -1.2921 H.spc      1 <1>        0.000
@<TRIPOS>BOND
     1    7   11 1  
     2   11   12 1  
     3    2    3 1  
     4   15   16 1  
     5    1    2 1  
     6   11   14 1  
     7    6    9 2  
     8   15   17 2  
     9    2    5 1  
    10   15    8 1  
    11    6   10 1  
    12   12   15 1  
    13    6    7 1  
    14    2    4 2  
    15    3    6 1  
    16   11   13 2  
    17    1   18 1  
    18    5   19 1  
    19    8   20 1  
    20   10   21 1  
    21   14   22 1  
    22   16   23 1  
# Name:          frag3-253-4/96164 -- energy: 0.891148
# Creation time: Sat Jun  5 12:53:20 2010


@<TRIPOS>MOLECULE
frag3-253-4/96164 -- energy: 0.891148
   23    22     1     1     1
SMALL
USER_CHARGES


@<TRIPOS>ATOM
      1 O4          4.5461    4.1418   -4.6760 O.3        1 <1>        0.000
      2 P1          3.2226    3.3163   -4.9614 P.3        1 <1>        0.000
      3 O5          3.3938    1.9058   -4.2824 O.3        1 <1>        0.000
      4 O6          2.0747    4.0907   -4.5737 O.2        1 <1>        0.000
      5 O7          3.1990    2.9825   -6.5173 O.3        1 <1>        0.000
      6 P2          4.6526    0.9534   -4.5181 P.3        1 <1>        0.000
      7 O8          4.5866   -0.3232   -3.6484 O.3        1 <1>        0.000
      8 O15         4.0476   -0.8520   -0.7112 O.3        1 <1>        0.000
      9 O9          5.8601    1.7476   -4.3947 O.2        1 <1>        0.000
     10 O10         4.4795    0.4375   -6.0243 O.3        1 <1>        0.000
     11 P3          3.2668   -1.1911   -3.5504 P.3        1 <1>        0.000
     12 O11         2.2856   -0.5531   -2.5076 O.3        1 <1>        0.000
     13 O12         2.6622   -1.2417   -4.8692 O.2        1 <1>        0.000
     14 O13         3.5957   -2.6011   -2.9268 O.3        1 <1>        0.000
     15 P4          2.4434   -0.8621   -0.9789 P.3        1 <1>        0.000
     16 O14         1.8504    0.2419   -0.0824 O.3        1 <1>        0.000
     17 O16         1.8872   -2.1644   -0.6925 O.2        1 <1>        0.000
     18 H           5.3092    3.6208   -4.9364 H.spc      1 <1>        0.000
     19 H           3.9759    2.4663   -6.7445 H.spc      1 <1>        0.000
     20 H           4.3980    0.0201   -0.9067 H.spc      1 <1>        0.000
     21 H           3.6776   -0.0860   -6.0919 H.spc      1 <1>        0.000
     22 H           3.9906   -2.4821   -2.0599 H.spc      1 <1>        0.000
     23 H           2.2491    1.0852   -0.3091 H.spc      1 <1>        0.000
@<TRIPOS>BOND
     1    7   11 1  
     2   11   12 1  
     3    2    3 1  
     4   15   16 1  
     5    1    2 1  
     6   11   14 1  
     7    6    9 2  
     8   15   17 2  
     9    2    5 1  
    10   15    8 1  
    11    6   10 1  
    12   12   15 1  
    13    6    7 1  
    14    2    4 2  
    15    3    6 1  
    16   11   13 2  
    17    1   18 1  
    18    5   19 1  
    19    8   20 1  
    20   10   21 1  
    21   14   22 1  
    22   16   23 1  
# Name:          frag3-253-4/96164 -- energy: 0.709119
# Creation time: Sat Jun  5 12:53:20 2010


@<TRIPOS>MOLECULE
frag3-253-4/96164 -- energy: 0.709119
   23    22     1     1     1
SMALL
USER_CHARGES


@<TRIPOS>ATOM
      1 O4          4.5745    4.4135   -6.1557 O.3        1 <1>        0.000
      2 P1          3.4487    3.4150   -5.7167 P.3        1 <1>        0.000
      3 O5          3.8257    1.9382   -6.0812 O.3        1 <1>        0.000
      4 O6          3.2380    3.5285   -4.2825 O.2        1 <1>        0.000
      5 O7          2.1245    3.7542   -6.4980 O.3        1 <1>        0.000
      6 P2          4.2061    0.8604   -5.0365 P.3        1 <1>        0.000
      7 O8          2.9829    0.0892   -4.4233 O.3        1 <1>        0.000
      8 O15         1.5624   -2.1767   -0.6364 O.3        1 <1>        0.000
      9 O9          4.9337    1.5133   -3.9279 O.2        1 <1>        0.000
     10 O10         5.1100   -0.2480   -5.6974 O.3        1 <1>        0.000
     11 P3          3.0970   -0.7978   -3.1669 P.3        1 <1>        0.000
     12 O11         2.6298   -0.1752   -1.8124 O.3        1 <1>        0.000
     13 O12         2.4363   -2.0913   -3.2830 O.2        1 <1>        0.000
     14 O13         4.6912   -0.9972   -2.9219 O.3        1 <1>        0.000
     15 P4          2.6496   -1.0152   -0.4972 P.3        1 <1>        0.000
     16 O14         4.0485   -1.7662   -0.4723 O.3        1 <1>        0.000
     17 O16         2.4949   -0.2160    0.6941 O.2        1 <1>        0.000
     18 H           4.7147    4.3397   -7.1025 H.spc      1 <1>        0.000
     19 H           2.2817    3.6744   -7.4417 H.spc      1 <1>        0.000
     20 H           1.7218   -2.6674   -1.4460 H.spc      1 <1>        0.000
     21 H           4.6288   -0.6656   -6.4155 H.spc      1 <1>        0.000
     22 H           5.1123   -0.1377   -2.8475 H.spc      1 <1>        0.000
     23 H           4.1411   -2.2944   -1.2685 H.spc      1 <1>        0.000
@<TRIPOS>BOND
     1    7   11 1  
     2   11   12 1  
     3    2    3 1  
     4   15   16 1  
     5    1    2 1  
     6   11   14 1  
     7    6    9 2  
     8   15   17 2  
     9    2    5 1  
    10   15    8 1  
    11    6   10 1  
    12   12   15 1  
    13    6    7 1  
    14    2    4 2  
    15    3    6 1  
    16   11   13 2  
    17    1   18 1  
    18    5   19 1  
    19    8   20 1  
    20   10   21 1  
    21   14   22 1  
    22   16   23 1  
# Name:          frag3-253-4/96164 -- energy: -3.561044
# Creation time: Sat Jun  5 12:53:20 2010


@<TRIPOS>MOLECULE
frag3-253-4/96164 -- energy: -3.561044
   23    22     1     1     1
SMALL
USER_CHARGES


@<TRIPOS>ATOM
      1 O4          2.6212    3.5008   -5.4936 O.3        1 <1>        0.000
      2 P1          3.4243    2.3397   -6.1983 P.3        1 <1>        0.000
      3 O5          4.7082    2.0496   -5.3326 O.3        1 <1>        0.000
      4 O6          2.5874    1.1655   -6.2783 O.2        1 <1>        0.000
      5 O7          3.8908    2.8244   -7.6095 O.3        1 <1>        0.000
      6 P2          4.7240    1.4990   -3.8688 P.3        1 <1>        0.000
      7 O8          3.9123    0.1542   -3.8031 O.3        1 <1>        0.000
      8 O15         3.4346   -1.3524    0.6028 O.3        1 <1>        0.000
      9 O9          4.0080    2.4607   -3.0087 O.2        1 <1>        0.000
     10 O10         6.1745    1.2654   -3.3845 O.3        1 <1>        0.000
     11 P3          2.4969    0.0318   -3.1334 P.3        1 <1>        0.000
     12 O11         2.6745   -0.0931   -1.5729 O.3        1 <1>        0.000
     13 O12         1.7257    1.1967   -3.4759 O.2        1 <1>        0.000
     14 O13         1.8030   -1.3416   -3.5035 O.3        1 <1>        0.000
     15 P4          3.2573   -1.4017   -0.9403 P.3        1 <1>        0.000
     16 O14         2.1617   -2.5291   -1.2276 O.3        1 <1>        0.000
     17 O16         4.4495   -1.7411   -1.6869 O.2        1 <1>        0.000
     18 H           3.1745    4.2834   -5.4385 H.spc      1 <1>        0.000
     19 H           4.4427    3.6039   -7.5126 H.spc      1 <1>        0.000
     20 H           2.5979   -1.1211    1.0127 H.spc      1 <1>        0.000
     21 H           6.6075    0.6364   -3.9662 H.spc      1 <1>        0.000
     22 H           2.3755   -2.0678   -3.2457 H.spc      1 <1>        0.000
     23 H           1.3593   -2.3252   -0.7417 H.spc      1 <1>        0.000
@<TRIPOS>BOND
     1    7   11 1  
     2   11   12 1  
     3    2    3 1  
     4   15   16 1  
     5    1    2 1  
     6   11   14 1  
     7    6    9 2  
     8   15   17 2  
     9    2    5 1  
    10   15    8 1  
    11    6   10 1  
    12   12   15 1  
    13    6    7 1  
    14    2    4 2  
    15    3    6 1  
    16   11   13 2  
    17    1   18 1  
    18    5   19 1  
    19    8   20 1  
    20   10   21 1  
    21   14   22 1  
    22   16   23 1  
# Name:          frag3-253-4/96164 -- energy: 2.057342
# Creation time: Sat Jun  5 12:53:20 2010


@<TRIPOS>MOLECULE
frag3-253-4/96164 -- energy: 2.057342
   23    22     1     1     1
SMALL
USER_CHARGES


@<TRIPOS>ATOM
      1 O4          1.6839   -1.2033    0.3660 O.3        1 <1>        0.000
      2 P1          2.6941   -1.1062   -0.8052 P.3        1 <1>        0.000
      3 O5          2.0128   -0.9987   -2.2199 O.3        1 <1>        0.000
      4 O6          3.5984    0.0115   -0.6018 O.2        1 <1>        0.000
      5 O7          3.5326   -2.4593   -0.8899 O.3        1 <1>        0.000
      6 P2          2.7381   -0.5020   -3.4914 P.3        1 <1>        0.000
      7 O8          3.7404    0.6878   -3.1730 O.3        1 <1>        0.000
      8 O15         2.1140    2.7261   -4.5562 O.3        1 <1>        0.000
      9 O9          1.8975   -0.1414   -4.6095 O.2        1 <1>        0.000
     10 O10         3.7344   -1.6999   -3.9045 O.3        1 <1>        0.000
     11 P3          4.8446    1.1682   -4.1899 P.3        1 <1>        0.000
     12 O11         4.1138    1.4917   -5.5559 O.3        1 <1>        0.000
     13 O12         5.4774    2.4091   -3.7802 O.2        1 <1>        0.000
     14 O13         5.8185   -0.0352   -4.4321 O.3        1 <1>        0.000
     15 P4          3.2209    2.7615   -5.7085 P.3        1 <1>        0.000
     16 O14         4.1520    3.9866   -5.3305 O.3        1 <1>        0.000
     17 O16         2.6805    2.9323   -7.0328 O.2        1 <1>        0.000
     18 H           1.0938   -1.9458    0.2174 H.spc      1 <1>        0.000
     19 H           2.9339   -3.1976   -1.0244 H.spc      1 <1>        0.000
     20 H           2.5431    2.6105   -3.7053 H.spc      1 <1>        0.000
     21 H           4.2863   -1.9290   -3.1532 H.spc      1 <1>        0.000
     22 H           5.3124   -0.8065   -4.6978 H.spc      1 <1>        0.000
     23 H           4.5042    3.8587   -4.4466 H.spc      1 <1>        0.000
@<TRIPOS>BOND
     1    7   11 1  
     2   11   12 1  
     3    2    3 1  
     4   15   16 1  
     5    1    2 1  
     6   11   14 1  
     7    6    9 2  
     8   15   17 2  
     9    2    5 1  
    10   15    8 1  
    11    6   10 1  
    12   12   15 1  
    13    6    7 1  
    14    2    4 2  
    15    3    6 1  
    16   11   13 2  
    17    1   18 1  
    18    5   19 1  
    19    8   20 1  
    20   10   21 1  
    21   14   22 1  
    22   16   23 1  
# Name:          frag3-253-4/96164 -- energy: -1.243249
# Creation time: Sat Jun  5 12:53:20 2010


@<TRIPOS>MOLECULE
frag3-253-4/96164 -- energy: -1.243249
   23    22     1     1     1
SMALL
USER_CHARGES


@<TRIPOS>ATOM
      1 O4          4.6013    4.3654   -5.1076 O.3        1 <1>        0.000
      2 P1          3.7919    3.2643   -5.8899 P.3        1 <1>        0.000
      3 O5          4.4832    1.8720   -5.6854 O.3        1 <1>        0.000
      4 O6          2.4338    3.2235   -5.3800 O.2        1 <1>        0.000
      5 O7          3.8215    3.5976   -7.4195 O.3        1 <1>        0.000
      6 P2          4.2658    0.9622   -4.4507 P.3        1 <1>        0.000
      7 O8          3.0417   -0.0028   -4.5637 O.3        1 <1>        0.000
      8 O15         2.3908    0.2984   -0.3022 O.3        1 <1>        0.000
      9 O9          4.0808    1.8163   -3.2699 O.2        1 <1>        0.000
     10 O10         5.5231    0.0240   -4.2594 O.3        1 <1>        0.000
     11 P3          2.6058   -0.9387   -3.4154 P.3        1 <1>        0.000
     12 O11         3.6438   -0.8883   -2.2049 O.3        1 <1>        0.000
     13 O12         1.3464   -0.5178   -2.8037 O.2        1 <1>        0.000
     14 O13         2.6130   -2.4539   -3.8506 O.3        1 <1>        0.000
     15 P4          3.1613   -1.0225   -0.7253 P.3        1 <1>        0.000
     16 O14         2.0394   -2.1544   -0.7712 O.3        1 <1>        0.000
     17 O16         4.2103   -1.4165    0.1839 O.2        1 <1>        0.000
     18 H           5.5010    4.3969   -5.4409 H.spc      1 <1>        0.000
     19 H           4.7317    3.6168   -7.7241 H.spc      1 <1>        0.000
     20 H           1.7124    0.4941   -0.9527 H.spc      1 <1>        0.000
     21 H           5.6310   -0.5273   -5.0379 H.spc      1 <1>        0.000
     22 H           3.4622   -2.6688   -4.2434 H.spc      1 <1>        0.000
     23 H           1.3434   -1.8891   -1.3768 H.spc      1 <1>        0.000
@<TRIPOS>BOND
     1    7   11 1  
     2   11   12 1  
     3    2    3 1  
     4   15   16 1  
     5    1    2 1  
     6   11   14 1  
     7    6    9 2  
     8   15   17 2  
     9    2    5 1  
    10   15    8 1  
    11    6   10 1  
    12   12   15 1  
    13    6    7 1  
    14    2    4 2  
    15    3    6 1  
    16   11   13 2  
    17    1   18 1  
    18    5   19 1  
    19    8   20 1  
    20   10   21 1  
    21   14   22 1  
    22   16   23 1  
# Name:          frag3-253-4/96164 -- energy: -5.017943
# Creation time: Sat Jun  5 12:53:20 2010


@<TRIPOS>MOLECULE
frag3-253-4/96164 -- energy: -5.017943
   23    22     1     1     1
SMALL
USER_CHARGES


@<TRIPOS>ATOM
      1 O4          5.7344    1.1653   -6.0832 O.3        1 <1>        0.000
      2 P1          4.6173    2.0484   -5.4662 P.3        1 <1>        0.000
      3 O5          3.5931    1.2514   -4.5742 O.3        1 <1>        0.000
      4 O6          5.1999    3.1320   -4.7043 O.2        1 <1>        0.000
      5 O7          3.7123    2.6175   -6.6368 O.3        1 <1>        0.000
      6 P2          2.6329    1.9420   -3.5001 P.3        1 <1>        0.000
      7 O8          1.9380    0.8603   -2.6276 O.3        1 <1>        0.000
      8 O15         3.4398   -1.3593   -0.6702 O.3        1 <1>        0.000
      9 O9          1.6888    2.7784   -4.2190 O.2        1 <1>        0.000
     10 O10         3.6104    2.7686   -2.6001 O.3        1 <1>        0.000
     11 P3          1.7967   -0.6444   -3.0372 P.3        1 <1>        0.000
     12 O11         3.2636   -1.2213   -3.1761 O.3        1 <1>        0.000
     13 O12         1.1308   -1.4561   -2.0460 O.2        1 <1>        0.000
     14 O13         1.1571   -0.6630   -4.4697 O.3        1 <1>        0.000
     15 P4          4.2966   -1.1213   -2.0037 P.3        1 <1>        0.000
     16 O14         5.3383   -2.2583   -2.0676 O.3        1 <1>        0.000
     17 O16         4.9040    0.1886   -2.0334 O.2        1 <1>        0.000
     18 H           5.3354    0.4511   -6.5854 H.spc      1 <1>        0.000
     19 H           3.3341    1.8868   -7.1315 H.spc      1 <1>        0.000
     20 H           3.0550   -2.2386   -0.6911 H.spc      1 <1>        0.000
     21 H           4.2109    2.1708   -2.1489 H.spc      1 <1>        0.000
     22 H           1.6671   -0.0972   -5.0540 H.spc      1 <1>        0.000
     23 H           4.8874   -3.1055   -2.0451 H.spc      1 <1>        0.000
@<TRIPOS>BOND
     1    7   11 1  
     2   11   12 1  
     3    2    3 1  
     4   15   16 1  
     5    1    2 1  
     6   11   14 1  
     7    6    9 2  
     8   15   17 2  
     9    2    5 1  
    10   15    8 1  
    11    6   10 1  
    12   12   15 1  
    13    6    7 1  
    14    2    4 2  
    15    3    6 1  
    16   11   13 2  
    17    1   18 1  
    18    5   19 1  
    19    8   20 1  
    20   10   21 1  
    21   14   22 1  
    22   16   23 1  
# Name:          frag3-253-4/96164 -- energy: -2.803469
# Creation time: Sat Jun  5 12:53:20 2010


@<TRIPOS>MOLECULE
frag3-253-4/96164 -- energy: -2.803469
   23    22     1     1     1
SMALL
USER_CHARGES


@<TRIPOS>ATOM
      1 O4          3.4801   -0.2575    0.3998 O.3        1 <1>        0.000
      2 P1          2.7415   -0.6816   -0.8985 P.3        1 <1>        0.000
      3 O5          3.6672   -0.7661   -2.1653 O.3        1 <1>        0.000
      4 O6          2.0570   -1.9450   -0.7002 O.2        1 <1>        0.000
      5 O7          1.7008    0.4512   -1.2974 O.3        1 <1>        0.000
      6 P2          3.2107   -1.3483   -3.5756 P.3        1 <1>        0.000
      7 O8          4.0262   -0.7285   -4.7323 O.3        1 <1>        0.000
      8 O15         3.4009    3.6510   -3.6001 O.3        1 <1>        0.000
      9 O9          1.7897   -1.0245   -3.7150 O.2        1 <1>        0.000
     10 O10         3.4582   -2.8841   -3.4689 O.3        1 <1>        0.000
     11 P3          4.3910    0.7615   -4.8263 P.3        1 <1>        0.000
     12 O11         3.2258    1.7162   -5.2544 O.3        1 <1>        0.000
     13 O12         4.7668    1.2246   -3.4709 O.2        1 <1>        0.000
     14 O13         5.5476    1.0123   -5.8686 O.3        1 <1>        0.000
     15 P4          3.3730    3.2679   -5.1451 P.3        1 <1>        0.000
     16 O14         4.8296    3.5903   -5.6806 O.3        1 <1>        0.000
     17 O16         2.3877    3.9895   -5.9157 O.2        1 <1>        0.000
     18 H           3.9277    0.5791    0.2533 H.spc      1 <1>        0.000
     19 H           2.1662    1.2810   -1.4255 H.spc      1 <1>        0.000
     20 H           4.0766    3.1339   -3.1555 H.spc      1 <1>        0.000
     21 H           4.3995   -3.0499   -3.3793 H.spc      1 <1>        0.000
     22 H           5.2705    0.7011   -6.7335 H.spc      1 <1>        0.000
     23 H           5.4749    3.1054   -5.1610 H.spc      1 <1>        0.000
@<TRIPOS>BOND
     1    7   11 1  
     2   11   12 1  
     3    2    3 1  
     4   15   16 1  
     5    1    2 1  
     6   11   14 1  
     7    6    9 2  
     8   15   17 2  
     9    2    5 1  
    10   15    8 1  
    11    6   10 1  
    12   12   15 1  
    13    6    7 1  
    14    2    4 2  
    15    3    6 1  
    16   11   13 2  
    17    1   18 1  
    18    5   19 1  
    19    8   20 1  
    20   10   21 1  
    21   14   22 1  
    22   16   23 1  
# Name:          frag3-253-4/96164 -- energy: -5.662204
# Creation time: Sat Jun  5 12:53:20 2010


@<TRIPOS>MOLECULE
frag3-253-4/96164 -- energy: -5.662204
   23    22     1     1     1
SMALL
USER_CHARGES


@<TRIPOS>ATOM
      1 O4          3.9958    0.1290   -0.5712 O.3        1 <1>        0.000
      2 P1          2.5877   -0.2175   -1.2092 P.3        1 <1>        0.000
      3 O5          2.7045   -0.1936   -2.7757 O.3        1 <1>        0.000
      4 O6          2.2070   -1.5473   -0.7685 O.2        1 <1>        0.000
      5 O7          1.5682    0.8631   -0.7330 O.3        1 <1>        0.000
      6 P2          3.2567   -1.3850   -3.6579 P.3        1 <1>        0.000
      7 O8          3.8178   -0.8689   -5.0003 O.3        1 <1>        0.000
      8 O15         4.7856    3.5075   -4.9406 O.3        1 <1>        0.000
      9 O9          2.2536   -2.4221   -3.7575 O.2        1 <1>        0.000
     10 O10         4.5206   -1.8632   -2.8120 O.3        1 <1>        0.000
     11 P3          4.2816    0.5860   -5.2370 P.3        1 <1>        0.000
     12 O11         3.1106    1.6315   -5.1391 O.3        1 <1>        0.000
     13 O12         5.1684    0.9645   -4.1204 O.2        1 <1>        0.000
     14 O13         4.9284    0.8141   -6.6433 O.3        1 <1>        0.000
     15 P4          3.3138    3.0327   -4.4780 P.3        1 <1>        0.000
     16 O14         2.3393    4.0991   -5.0310 O.3        1 <1>        0.000
     17 O16         3.2144    2.8988   -3.0405 O.2        1 <1>        0.000
     18 H           4.2656    1.0067   -0.8514 H.spc      1 <1>        0.000
     19 H           1.8515    1.7268   -1.0418 H.spc      1 <1>        0.000
     20 H           4.8099    3.5841   -5.8972 H.spc      1 <1>        0.000
     21 H           5.1627   -1.1509   -2.7678 H.spc      1 <1>        0.000
     22 H           4.3073    0.5511   -7.3264 H.spc      1 <1>        0.000
     23 H           2.4367    4.1563   -5.9843 H.spc      1 <1>        0.000
@<TRIPOS>BOND
     1    7   11 1  
     2   11   12 1  
     3    2    3 1  
     4   15   16 1  
     5    1    2 1  
     6   11   14 1  
     7    6    9 2  
     8   15   17 2  
     9    2    5 1  
    10   15    8 1  
    11    6   10 1  
    12   12   15 1  
    13    6    7 1  
    14    2    4 2  
    15    3    6 1  
    16   11   13 2  
    17    1   18 1  
    18    5   19 1  
    19    8   20 1  
    20   10   21 1  
    21   14   22 1  
    22   16   23 1  
# Name:          frag3-253-4/96164 -- energy: -5.596914
# Creation time: Sat Jun  5 12:53:20 2010


@<TRIPOS>MOLECULE
frag3-253-4/96164 -- energy: -5.596914
   23    22     1     1     1
SMALL
USER_CHARGES


@<TRIPOS>ATOM
      1 O4          4.0258    3.6850   -5.5401 O.3        1 <1>        0.000
      2 P1          3.5795    2.8885   -4.2586 P.3        1 <1>        0.000
      3 O5          2.7636    1.6365   -4.7432 O.3        1 <1>        0.000
      4 O6          4.7578    2.4695   -3.5248 O.2        1 <1>        0.000
      5 O7          2.6419    3.7847   -3.3915 O.3        1 <1>        0.000
      6 P2          3.3242    0.4664   -5.6594 P.3        1 <1>        0.000
      7 O8          4.4494   -0.2308   -4.8124 O.3        1 <1>        0.000
      8 O15         3.6675    0.0993   -0.1954 O.3        1 <1>        0.000
      9 O9          3.7793    1.0298   -6.9034 O.2        1 <1>        0.000
     10 O10         2.2266   -0.6327   -5.8284 O.3        1 <1>        0.000
     11 P3          4.2533   -0.7261   -3.3553 P.3        1 <1>        0.000
     12 O11         3.0258    0.0161   -2.6576 O.3        1 <1>        0.000
     13 O12         3.8877   -2.1277   -3.3173 O.2        1 <1>        0.000
     14 O13         5.4631   -0.3340   -2.4343 O.3        1 <1>        0.000
     15 P4          2.5558   -0.4126   -1.2194 P.3        1 <1>        0.000
     16 O14         1.2214    0.2653   -0.8354 O.3        1 <1>        0.000
     17 O16         2.4314   -1.8484   -1.2388 O.2        1 <1>        0.000
     18 H           3.2482    3.9643   -6.0289 H.spc      1 <1>        0.000
     19 H           1.8760    4.0407   -3.9106 H.spc      1 <1>        0.000
     20 H           3.7086    1.0580   -0.2224 H.spc      1 <1>        0.000
     21 H           1.9705   -0.9632   -4.9642 H.spc      1 <1>        0.000
     22 H           5.6372    0.6062   -2.5196 H.spc      1 <1>        0.000
     23 H           1.3374    1.2183   -0.8315 H.spc      1 <1>        0.000
@<TRIPOS>BOND
     1    7   11 1  
     2   11   12 1  
     3    2    3 1  
     4   15   16 1  
     5    1    2 1  
     6   11   14 1  
     7    6    9 2  
     8   15   17 2  
     9    2    5 1  
    10   15    8 1  
    11    6   10 1  
    12   12   15 1  
    13    6    7 1  
    14    2    4 2  
    15    3    6 1  
    16   11   13 2  
    17    1   18 1  
    18    5   19 1  
    19    8   20 1  
    20   10   21 1  
    21   14   22 1  
    22   16   23 1  
# Name:          frag3-253-4/96164 -- energy: -5.353899
# Creation time: Sat Jun  5 12:53:20 2010


@<TRIPOS>MOLECULE
frag3-253-4/96164 -- energy: -5.353899
   23    22     1     1     1
SMALL
USER_CHARGES


@<TRIPOS>ATOM
      1 O4          2.8304    3.8512   -5.9285 O.3        1 <1>        0.000
      2 P1          3.3273    2.8442   -4.8505 P.3        1 <1>        0.000
      3 O5          3.9847    1.5584   -5.4422 O.3        1 <1>        0.000
      4 O6          4.2573    3.5005   -3.9566 O.2        1 <1>        0.000
      5 O7          2.0474    2.3598   -4.0432 O.3        1 <1>        0.000
      6 P2          5.0031    0.6411   -4.6562 P.3        1 <1>        0.000
      7 O8          4.2282    0.0202   -3.4427 O.3        1 <1>        0.000
      8 O15         2.2361    1.0801   -1.6411 O.3        1 <1>        0.000
      9 O9          6.1687    1.4175   -4.3121 O.2        1 <1>        0.000
     10 O10         5.3504   -0.5876   -5.5790 O.3        1 <1>        0.000
     11 P3          3.0423   -1.0221   -3.6027 P.3        1 <1>        0.000
     12 O11         2.3855   -1.3669   -2.2552 O.3        1 <1>        0.000
     13 O12         2.0543   -0.3978   -4.4782 O.2        1 <1>        0.000
     14 O13         3.6832   -2.3259   -4.2117 O.3        1 <1>        0.000
     15 P4          2.4529   -0.3902   -1.0472 P.3        1 <1>        0.000
     16 O14         1.2725   -0.6181   -0.0733 O.3        1 <1>        0.000
     17 O16         3.7296   -0.5357   -0.3948 O.2        1 <1>        0.000
     18 H           2.2144    3.4095   -6.5176 H.spc      1 <1>        0.000
     19 H           1.4368    1.9261   -4.6438 H.spc      1 <1>        0.000
     20 H           1.3759    1.1294   -2.0644 H.spc      1 <1>        0.000
     21 H           4.5466   -1.0722   -5.7806 H.spc      1 <1>        0.000
     22 H           4.3210   -2.6872   -3.5918 H.spc      1 <1>        0.000
     23 H           0.4438   -0.5123   -0.5463 H.spc      1 <1>        0.000
@<TRIPOS>BOND
     1    7   11 1  
     2   11   12 1  
     3    2    3 1  
     4   15   16 1  
     5    1    2 1  
     6   11   14 1  
     7    6    9 2  
     8   15   17 2  
     9    2    5 1  
    10   15    8 1  
    11    6   10 1  
    12   12   15 1  
    13    6    7 1  
    14    2    4 2  
    15    3    6 1  
    16   11   13 2  
    17    1   18 1  
    18    5   19 1  
    19    8   20 1  
    20   10   21 1  
    21   14   22 1  
    22   16   23 1  
# Name:          frag3-253-4/96164 -- energy: -2.494277
# Creation time: Sat Jun  5 12:53:20 2010


@<TRIPOS>MOLECULE
frag3-253-4/96164 -- energy: -2.494277
   23    22     1     1     1
SMALL
USER_CHARGES


@<TRIPOS>ATOM
      1 O4          2.7152    3.4533   -6.1813 O.3        1 <1>        0.000
      2 P1          3.7761    2.3091   -6.4264 P.3        1 <1>        0.000
      3 O5          4.6776    2.2102   -5.1438 O.3        1 <1>        0.000
      4 O6          3.0789    1.0685   -6.6586 O.2        1 <1>        0.000
      5 O7          4.6866    2.7105   -7.6305 O.3        1 <1>        0.000
      6 P2          4.1966    1.7972   -3.7290 P.3        1 <1>        0.000
      7 O8          3.5036    0.3872   -3.7353 O.3        1 <1>        0.000
      8 O15         4.0799   -1.7928    0.3708 O.3        1 <1>        0.000
      9 O9          3.1850    2.7648   -3.2764 O.2        1 <1>        0.000
     10 O10         5.3940    1.7289   -2.7328 O.3        1 <1>        0.000
     11 P3          2.2803    0.0367   -2.8185 P.3        1 <1>        0.000
     12 O11         2.7986   -0.3023   -1.3699 O.3        1 <1>        0.000
     13 O12         1.3829    1.1559   -2.7996 O.2        1 <1>        0.000
     14 O13         1.6051   -1.3264   -3.2569 O.3        1 <1>        0.000
     15 P4          3.5796   -1.6305   -1.0901 P.3        1 <1>        0.000
     16 O14         2.5149   -2.7973   -1.3283 O.3        1 <1>        0.000
     17 O16         4.5990   -1.7441   -2.1086 O.2        1 <1>        0.000
     18 H           3.1717    4.2834   -6.0258 H.spc      1 <1>        0.000
     19 H           5.1295    3.5390   -7.4331 H.spc      1 <1>        0.000
     20 H           3.3383   -1.7027    0.9737 H.spc      1 <1>        0.000
     21 H           6.0377    1.0918   -3.0512 H.spc      1 <1>        0.000
     22 H           2.2625   -2.0259   -3.2460 H.spc      1 <1>        0.000
     23 H           1.8263   -2.7416   -0.6617 H.spc      1 <1>        0.000
@<TRIPOS>BOND
     1    7   11 1  
     2   11   12 1  
     3    2    3 1  
     4   15   16 1  
     5    1    2 1  
     6   11   14 1  
     7    6    9 2  
     8   15   17 2  
     9    2    5 1  
    10   15    8 1  
    11    6   10 1  
    12   12   15 1  
    13    6    7 1  
    14    2    4 2  
    15    3    6 1  
    16   11   13 2  
    17    1   18 1  
    18    5   19 1  
    19    8   20 1  
    20   10   21 1  
    21   14   22 1  
    22   16   23 1  
# Name:          frag3-253-4/96164 -- energy: -0.836193
# Creation time: Sat Jun  5 12:53:20 2010


@<TRIPOS>MOLECULE
frag3-253-4/96164 -- energy: -0.836193
   23    22     1     1     1
SMALL
USER_CHARGES


@<TRIPOS>ATOM
      1 O4          2.7104    0.8420   -0.5075 O.3        1 <1>        0.000
      2 P1          2.8510   -0.7205   -0.6483 P.3        1 <1>        0.000
      3 O5          2.0323   -1.1874   -1.9112 O.3        1 <1>        0.000
      4 O6          4.2557   -1.0488   -0.8216 O.2        1 <1>        0.000
      5 O7          2.2430   -1.4239    0.6033 O.3        1 <1>        0.000
      6 P2          2.5028   -1.0359   -3.3765 P.3        1 <1>        0.000
      7 O8          3.2386    0.3438   -3.6071 O.3        1 <1>        0.000
      8 O15         4.9076    4.5551   -4.4741 O.3        1 <1>        0.000
      9 O9          1.5021   -1.2388   -4.3951 O.2        1 <1>        0.000
     10 O10         3.6947   -2.0958   -3.5171 O.3        1 <1>        0.000
     11 P3          4.1089    0.6354   -4.8791 P.3        1 <1>        0.000
     12 O11         4.8970    1.9638   -4.8440 O.3        1 <1>        0.000
     13 O12         4.9587   -0.5019   -5.1408 O.2        1 <1>        0.000
     14 O13         3.0685    0.9037   -6.0828 O.3        1 <1>        0.000
     15 P4          4.1683    3.3238   -5.0777 P.3        1 <1>        0.000
     16 O14         4.1082    3.5666   -6.6404 O.3        1 <1>        0.000
     17 O16         2.8063    3.1478   -4.5952 O.2        1 <1>        0.000
     18 H           1.7850    1.0698   -0.3924 H.spc      1 <1>        0.000
     19 H           1.3170   -1.1843    0.6853 H.spc      1 <1>        0.000
     20 H           5.7946    4.6044   -4.8381 H.spc      1 <1>        0.000
     21 H           4.3447   -1.9380   -2.8284 H.spc      1 <1>        0.000
     22 H           2.5243    1.6654   -5.8700 H.spc      1 <1>        0.000
     23 H           4.9986    3.6853   -6.9791 H.spc      1 <1>        0.000
@<TRIPOS>BOND
     1    7   11 1  
     2   11   12 1  
     3    2    3 1  
     4   15   16 1  
     5    1    2 1  
     6   11   14 1  
     7    6    9 2  
     8   15   17 2  
     9    2    5 1  
    10   15    8 1  
    11    6   10 1  
    12   12   15 1  
    13    6    7 1  
    14    2    4 2  
    15    3    6 1  
    16   11   13 2  
    17    1   18 1  
    18    5   19 1  
    19    8   20 1  
    20   10   21 1  
    21   14   22 1  
    22   16   23 1  
# Name:          frag3-253-4/96164 -- energy: 2.414295
# Creation time: Sat Jun  5 12:53:20 2010


@<TRIPOS>MOLECULE
frag3-253-4/96164 -- energy: 2.414295
   23    22     1     1     1
SMALL
USER_CHARGES


@<TRIPOS>ATOM
      1 O4          3.3751    1.0037   -1.1526 O.3        1 <1>        0.000
      2 P1          2.7601   -0.4452   -1.0602 P.3        1 <1>        0.000
      3 O5          2.1164   -0.8177   -2.4537 O.3        1 <1>        0.000
      4 O6          3.8244   -1.3840   -0.7534 O.2        1 <1>        0.000
      5 O7          1.6344   -0.4685    0.0164 O.3        1 <1>        0.000
      6 P2          2.9032   -1.4550   -3.6527 P.3        1 <1>        0.000
      7 O8          4.2526   -0.6328   -3.8022 O.3        1 <1>        0.000
      8 O15         2.5594    4.3032   -4.1136 O.3        1 <1>        0.000
      9 O9          2.1969   -1.3954   -4.9161 O.2        1 <1>        0.000
     10 O10         3.2730   -2.9064   -3.2170 O.3        1 <1>        0.000
     11 P3          4.3801    0.6683   -4.6114 P.3        1 <1>        0.000
     12 O11         3.4912    1.8510   -4.0486 O.3        1 <1>        0.000
     13 O12         5.7121    1.1952   -4.7474 O.2        1 <1>        0.000
     14 O13         3.6713    0.3881   -6.0255 O.3        1 <1>        0.000
     15 P4          3.5440    3.2599   -4.7432 P.3        1 <1>        0.000
     16 O14         4.9987    3.8158   -4.4738 O.3        1 <1>        0.000
     17 O16         3.3611    3.0487   -6.1602 O.2        1 <1>        0.000
     18 H           2.6792    1.6332   -1.3553 H.spc      1 <1>        0.000
     19 H           0.9522    0.1635   -0.2219 H.spc      1 <1>        0.000
     20 H           2.7422    4.3882   -3.1750 H.spc      1 <1>        0.000
     21 H           3.7367   -2.8788   -2.3769 H.spc      1 <1>        0.000
     22 H           2.7894    0.0392   -5.8766 H.spc      1 <1>        0.000
     23 H           5.1174    3.9552   -3.5314 H.spc      1 <1>        0.000
@<TRIPOS>BOND
     1    7   11 1  
     2   11   12 1  
     3    2    3 1  
     4   15   16 1  
     5    1    2 1  
     6   11   14 1  
     7    6    9 2  
     8   15   17 2  
     9    2    5 1  
    10   15    8 1  
    11    6   10 1  
    12   12   15 1  
    13    6    7 1  
    14    2    4 2  
    15    3    6 1  
    16   11   13 2  
    17    1   18 1  
    18    5   19 1  
    19    8   20 1  
    20   10   21 1  
    21   14   22 1  
    22   16   23 1  
# Name:          frag3-253-4/96164 -- energy: -2.235936
# Creation time: Sat Jun  5 12:53:20 2010


@<TRIPOS>MOLECULE
frag3-253-4/96164 -- energy: -2.235936
   23    22     1     1     1
SMALL
USER_CHARGES


@<TRIPOS>ATOM
      1 O4          4.4042   -0.7818   -0.4543 O.3        1 <1>        0.000
      2 P1          3.4483   -2.0263   -0.7148 P.3        1 <1>        0.000
      3 O5          2.9761   -1.9487   -2.2026 O.3        1 <1>        0.000
      4 O6          4.1206   -3.2384   -0.3091 O.2        1 <1>        0.000
      5 O7          2.1226   -1.7908    0.1239 O.3        1 <1>        0.000
      6 P2          2.5438   -0.6288   -2.9278 P.3        1 <1>        0.000
      7 O8          3.7540    0.2319   -3.4363 O.3        1 <1>        0.000
      8 O15         3.8602    2.2955   -7.4632 O.3        1 <1>        0.000
      9 O9          1.7496    0.1855   -1.9838 O.2        1 <1>        0.000
     10 O10         1.6943   -0.9908   -4.1978 O.3        1 <1>        0.000
     11 P3          3.5567    1.5360   -4.2467 P.3        1 <1>        0.000
     12 O11         4.7425    2.1262   -5.0531 O.3        1 <1>        0.000
     13 O12         2.4807    1.3122   -5.2406 O.2        1 <1>        0.000
     14 O13         3.1368    2.6874   -3.2161 O.3        1 <1>        0.000
     15 P4          4.4851    3.1055   -6.2448 P.3        1 <1>        0.000
     16 O14         3.3238    4.0765   -5.7548 O.3        1 <1>        0.000
     17 O16         5.6548    3.8779   -6.5935 O.2        1 <1>        0.000
     18 H           3.9584    0.0246   -0.7236 H.spc      1 <1>        0.000
     19 H           1.7001   -0.9799   -0.1685 H.spc      1 <1>        0.000
     20 H           3.0905    1.8079   -7.1607 H.spc      1 <1>        0.000
     21 H           2.2265   -1.5187   -4.7976 H.spc      1 <1>        0.000
     22 H           3.8437    2.8195   -2.5802 H.spc      1 <1>        0.000
     23 H           2.5498    3.5572   -5.5247 H.spc      1 <1>        0.000
@<TRIPOS>BOND
     1    7   11 1  
     2   11   12 1  
     3    2    3 1  
     4   15   16 1  
     5    1    2 1  
     6   11   14 1  
     7    6    9 2  
     8   15   17 2  
     9    2    5 1  
    10   15    8 1  
    11    6   10 1  
    12   12   15 1  
    13    6    7 1  
    14    2    4 2  
    15    3    6 1  
    16   11   13 2  
    17    1   18 1  
    18    5   19 1  
    19    8   20 1  
    20   10   21 1  
    21   14   22 1  
    22   16   23 1  
# Name:          frag3-253-4/96164 -- energy: -2.845721
# Creation time: Sat Jun  5 12:53:20 2010


@<TRIPOS>MOLECULE
frag3-253-4/96164 -- energy: -2.845721
   23    22     1     1     1
SMALL
USER_CHARGES


@<TRIPOS>ATOM
      1 O4          3.8830    0.2316   -0.5706 O.3        1 <1>        0.000
      2 P1          3.6147   -1.3286   -0.6771 P.3        1 <1>        0.000
      3 O5          3.4152   -1.6563   -2.1928 O.3        1 <1>        0.000
      4 O6          4.6637   -2.0468    0.0076 O.2        1 <1>        0.000
      5 O7          2.1947   -1.6249   -0.0398 O.3        1 <1>        0.000
      6 P2          2.5918   -0.7879   -3.1954 P.3        1 <1>        0.000
      7 O8          3.4063    0.3658   -3.8851 O.3        1 <1>        0.000
      8 O15         5.6318    1.6492   -5.1661 O.3        1 <1>        0.000
      9 O9          1.4753   -0.1616   -2.4419 O.2        1 <1>        0.000
     10 O10         2.0403   -1.6859   -4.3547 O.3        1 <1>        0.000
     11 P3          2.7163    1.4291   -4.8317 P.3        1 <1>        0.000
     12 O11         3.4093    2.8171   -4.7918 O.3        1 <1>        0.000
     13 O12         2.7944    0.9549   -6.2150 O.2        1 <1>        0.000
     14 O13         1.2437    1.5678   -4.2936 O.3        1 <1>        0.000
     15 P4          4.8214    3.0169   -5.4095 P.3        1 <1>        0.000
     16 O14         4.6484    3.1126   -6.9689 O.3        1 <1>        0.000
     17 O16         5.5036    4.1761   -4.8887 O.2        1 <1>        0.000
     18 H           3.1846    0.7071   -1.0264 H.spc      1 <1>        0.000
     19 H           1.5222   -1.1334   -0.5170 H.spc      1 <1>        0.000
     20 H           5.1337    0.9142   -5.5311 H.spc      1 <1>        0.000
     21 H           2.7753   -2.0812   -4.8291 H.spc      1 <1>        0.000
     22 H           1.2639    1.8811   -3.3864 H.spc      1 <1>        0.000
     23 H           4.1926    2.3302   -7.2878 H.spc      1 <1>        0.000
@<TRIPOS>BOND
     1    7   11 1  
     2   11   12 1  
     3    2    3 1  
     4   15   16 1  
     5    1    2 1  
     6   11   14 1  
     7    6    9 2  
     8   15   17 2  
     9    2    5 1  
    10   15    8 1  
    11    6   10 1  
    12   12   15 1  
    13    6    7 1  
    14    2    4 2  
    15    3    6 1  
    16   11   13 2  
    17    1   18 1  
    18    5   19 1  
    19    8   20 1  
    20   10   21 1  
    21   14   22 1  
    22   16   23 1  
# Name:          frag3-253-4/96164 -- energy: 0.962490
# Creation time: Sat Jun  5 12:53:20 2010


@<TRIPOS>MOLECULE
frag3-253-4/96164 -- energy: 0.962490
   23    22     1     1     1
SMALL
USER_CHARGES


@<TRIPOS>ATOM
      1 O4          3.8855   -0.4557    0.0561 O.3        1 <1>        0.000
      2 P1          3.3574   -1.8684   -0.4478 P.3        1 <1>        0.000
      3 O5          3.4341   -1.8772   -2.0113 O.3        1 <1>        0.000
      4 O6          4.0667   -2.9186    0.2409 O.2        1 <1>        0.000
      5 O7          1.7976   -1.9279   -0.1364 O.3        1 <1>        0.000
      6 P2          2.8949   -0.7297   -2.9212 P.3        1 <1>        0.000
      7 O8          3.9402   -0.0244   -3.8401 O.3        1 <1>        0.000
      8 O15         4.3263    2.7876   -7.4641 O.3        1 <1>        0.000
      9 O9          2.2702    0.2942   -2.0364 O.2        1 <1>        0.000
     10 O10         1.8009   -1.3077   -3.9081 O.3        1 <1>        0.000
     11 P3          3.5814    1.1660   -4.7521 P.3        1 <1>        0.000
     12 O11         4.6311    2.2949   -4.9699 O.3        1 <1>        0.000
     13 O12         3.1550    0.7247   -6.0850 O.2        1 <1>        0.000
     14 O13         2.3653    1.9555   -4.0219 O.3        1 <1>        0.000
     15 P4          4.3645    3.4393   -6.0131 P.3        1 <1>        0.000
     16 O14         2.8867    3.9448   -5.7218 O.3        1 <1>        0.000
     17 O16         5.2963    4.5315   -5.8831 O.2        1 <1>        0.000
     18 H           3.4134    0.2432   -0.4023 H.spc      1 <1>        0.000
     19 H           1.3514   -1.2196   -0.6063 H.spc      1 <1>        0.000
     20 H           3.6872    2.0713   -7.4752 H.spc      1 <1>        0.000
     21 H           2.2025   -1.9673   -4.4784 H.spc      1 <1>        0.000
     22 H           2.6488    2.2421   -3.1507 H.spc      1 <1>        0.000
     23 H           2.2750    3.2103   -5.8110 H.spc      1 <1>        0.000
@<TRIPOS>BOND
     1    7   11 1  
     2   11   12 1  
     3    2    3 1  
     4   15   16 1  
     5    1    2 1  
     6   11   14 1  
     7    6    9 2  
     8   15   17 2  
     9    2    5 1  
    10   15    8 1  
    11    6   10 1  
    12   12   15 1  
    13    6    7 1  
    14    2    4 2  
    15    3    6 1  
    16   11   13 2  
    17    1   18 1  
    18    5   19 1  
    19    8   20 1  
    20   10   21 1  
    21   14   22 1  
    22   16   23 1  
# Name:          frag3-253-4/96164 -- energy: -3.436788
# Creation time: Sat Jun  5 12:53:20 2010


@<TRIPOS>MOLECULE
frag3-253-4/96164 -- energy: -3.436788
   23    22     1     1     1
SMALL
USER_CHARGES


@<TRIPOS>ATOM
      1 O4          5.0044    3.4946   -6.8627 O.3        1 <1>        0.000
      2 P1          4.6364    2.5218   -5.7134 P.3        1 <1>        0.000
      3 O5          3.1031    2.4171   -5.4253 O.3        1 <1>        0.000
      4 O6          5.2151    1.2135   -5.9445 O.2        1 <1>        0.000
      5 O7          5.2075    3.1281   -4.3456 O.3        1 <1>        0.000
      6 P2          2.4905    1.6400   -4.2302 P.3        1 <1>        0.000
      7 O8          3.2121    0.2463   -4.0298 O.3        1 <1>        0.000
      8 O15         2.6099   -0.5652   -0.2222 O.3        1 <1>        0.000
      9 O9          1.0652    1.3861   -4.3265 O.2        1 <1>        0.000
     10 O10         2.8502    2.4656   -2.9223 O.3        1 <1>        0.000
     11 P3          2.5108   -1.0202   -3.4276 P.3        1 <1>        0.000
     12 O11         3.3744   -1.7257   -2.3493 O.3        1 <1>        0.000
     13 O12         1.3361   -0.5104   -2.7083 O.2        1 <1>        0.000
     14 O13         2.1622   -2.0263   -4.5649 O.3        1 <1>        0.000
     15 P4          3.8857   -0.9635   -1.0885 P.3        1 <1>        0.000
     16 O14         4.7696   -1.8689   -0.1950 O.3        1 <1>        0.000
     17 O16         4.6206    0.1960   -1.5591 O.2        1 <1>        0.000
     18 H           4.6123    4.3539   -6.6910 H.spc      1 <1>        0.000
     19 H           4.8223    3.9945   -4.1955 H.spc      1 <1>        0.000
     20 H           2.1583   -1.3620    0.0653 H.spc      1 <1>        0.000
     21 H           3.7979    2.6154   -2.8903 H.spc      1 <1>        0.000
     22 H           2.9712   -2.3183   -4.9913 H.spc      1 <1>        0.000
     23 H           4.2564   -2.6248    0.0995 H.spc      1 <1>        0.000
@<TRIPOS>BOND
     1    7   11 1  
     2   11   12 1  
     3    2    3 1  
     4   15   16 1  
     5    1    2 1  
     6   11   14 1  
     7    6    9 2  
     8   15   17 2  
     9    2    5 1  
    10   15    8 1  
    11    6   10 1  
    12   12   15 1  
    13    6    7 1  
    14    2    4 2  
    15    3    6 1  
    16   11   13 2  
    17    1   18 1  
    18    5   19 1  
    19    8   20 1  
    20   10   21 1  
    21   14   22 1  
    22   16   23 1  
# Name:          frag3-253-4/96164 -- energy: -4.090448
# Creation time: Sat Jun  5 12:53:20 2010


@<TRIPOS>MOLECULE
frag3-253-4/96164 -- energy: -4.090448
   23    22     1     1     1
SMALL
USER_CHARGES


@<TRIPOS>ATOM
      1 O4          2.9796   -0.9022    0.7396 O.3        1 <1>        0.000
      2 P1          2.5478   -1.1581   -0.7330 P.3        1 <1>        0.000
      3 O5          3.5684   -0.6453   -1.8002 O.3        1 <1>        0.000
      4 O6          2.2578   -2.5663   -0.9245 O.2        1 <1>        0.000
      5 O7          1.2322   -0.2989   -0.9835 O.3        1 <1>        0.000
      6 P2          3.3700   -0.8176   -3.3515 P.3        1 <1>        0.000
      7 O8          4.5854   -0.3983   -4.2053 O.3        1 <1>        0.000
      8 O15         2.3062    3.3531   -6.8144 O.3        1 <1>        0.000
      9 O9          2.2023   -0.0222   -3.7696 O.2        1 <1>        0.000
     10 O10         3.0861   -2.3552   -3.5226 O.3        1 <1>        0.000
     11 P3          4.8885    1.0538   -4.6273 P.3        1 <1>        0.000
     12 O11         3.9356    1.5881   -5.7555 O.3        1 <1>        0.000
     13 O12         4.5663    1.9033   -3.4644 O.2        1 <1>        0.000
     14 O13         6.3401    1.2596   -5.1564 O.3        1 <1>        0.000
     15 P4          3.3194    3.0214   -5.6664 P.3        1 <1>        0.000
     16 O14         2.4571    3.0477   -4.3355 O.3        1 <1>        0.000
     17 O16         4.4112    3.9660   -5.5447 O.2        1 <1>        0.000
     18 H           3.1697    0.0312    0.8585 H.spc      1 <1>        0.000
     19 H           1.4299    0.6317   -0.8554 H.spc      1 <1>        0.000
     20 H           1.6154    2.6867   -6.8325 H.spc      1 <1>        0.000
     21 H           3.8576   -2.8547   -3.2453 H.spc      1 <1>        0.000
     22 H           6.4899    0.6830   -5.9092 H.spc      1 <1>        0.000
     23 H           1.7325    2.4227   -4.4126 H.spc      1 <1>        0.000
@<TRIPOS>BOND
     1    7   11 1  
     2   11   12 1  
     3    2    3 1  
     4   15   16 1  
     5    1    2 1  
     6   11   14 1  
     7    6    9 2  
     8   15   17 2  
     9    2    5 1  
    10   15    8 1  
    11    6   10 1  
    12   12   15 1  
    13    6    7 1  
    14    2    4 2  
    15    3    6 1  
    16   11   13 2  
    17    1   18 1  
    18    5   19 1  
    19    8   20 1  
    20   10   21 1  
    21   14   22 1  
    22   16   23 1  
# Name:          frag3-253-4/96164 -- energy: -2.741729
# Creation time: Sat Jun  5 12:53:20 2010


@<TRIPOS>MOLECULE
frag3-253-4/96164 -- energy: -2.741729
   23    22     1     1     1
SMALL
USER_CHARGES


@<TRIPOS>ATOM
      1 O4          2.8522   -0.4721    0.5477 O.3        1 <1>        0.000
      2 P1          3.3616   -0.7961   -0.8811 P.3        1 <1>        0.000
      3 O5          2.2171   -1.0132   -1.9449 O.3        1 <1>        0.000
      4 O6          4.3020    0.2166   -1.3285 O.2        1 <1>        0.000
      5 O7          4.0937   -2.2240   -0.8484 O.3        1 <1>        0.000
      6 P2          2.5006   -1.3797   -3.4600 P.3        1 <1>        0.000
      7 O8          3.6842   -0.4601   -3.9600 O.3        1 <1>        0.000
      8 O15         4.0731    3.1699   -6.8444 O.3        1 <1>        0.000
      9 O9          1.3515   -1.1899   -4.3238 O.2        1 <1>        0.000
     10 O10         2.9941   -2.8726   -3.4372 O.3        1 <1>        0.000
     11 P3          3.4618    0.9636   -4.5055 P.3        1 <1>        0.000
     12 O11         4.6609    1.9290   -4.6836 O.3        1 <1>        0.000
     13 O12         2.7776    0.9023   -5.8063 O.2        1 <1>        0.000
     14 O13         2.5272    1.7265   -3.4225 O.3        1 <1>        0.000
     15 P4          4.4602    3.3472   -5.3027 P.3        1 <1>        0.000
     16 O14         3.1557    3.9565   -4.6266 O.3        1 <1>        0.000
     17 O16         5.5804    4.2250   -5.0875 O.2        1 <1>        0.000
     18 H           2.2329   -1.1504    0.8269 H.spc      1 <1>        0.000
     19 H           3.4729   -2.8939   -0.5528 H.spc      1 <1>        0.000
     20 H           3.3226    2.5758   -6.9185 H.spc      1 <1>        0.000
     21 H           3.7532   -2.9487   -2.8544 H.spc      1 <1>        0.000
     22 H           2.9817    1.7615   -2.5776 H.spc      1 <1>        0.000
     23 H           2.4140    3.3653   -4.7747 H.spc      1 <1>        0.000
@<TRIPOS>BOND
     1    7   11 1  
     2   11   12 1  
     3    2    3 1  
     4   15   16 1  
     5    1    2 1  
     6   11   14 1  
     7    6    9 2  
     8   15   17 2  
     9    2    5 1  
    10   15    8 1  
    11    6   10 1  
    12   12   15 1  
    13    6    7 1  
    14    2    4 2  
    15    3    6 1  
    16   11   13 2  
    17    1   18 1  
    18    5   19 1  
    19    8   20 1  
    20   10   21 1  
    21   14   22 1  
    22   16   23 1  
# Name:          frag3-253-4/96164 -- energy: -4.631770
# Creation time: Sat Jun  5 12:53:20 2010


@<TRIPOS>MOLECULE
frag3-253-4/96164 -- energy: -4.631770
   23    22     1     1     1
SMALL
USER_CHARGES


@<TRIPOS>ATOM
      1 O4          3.8711    2.7920   -3.0197 O.3        1 <1>        0.000
      2 P1          3.2897    2.8397   -4.4875 P.3        1 <1>        0.000
      3 O5          3.4973    1.4147   -5.0984 O.3        1 <1>        0.000
      4 O6          1.9378    3.3527   -4.4562 O.2        1 <1>        0.000
      5 O7          4.2443    3.7517   -5.3594 O.3        1 <1>        0.000
      6 P2          4.8147    0.5304   -4.9320 P.3        1 <1>        0.000
      7 O8          4.6376   -0.3699   -3.6613 O.3        1 <1>        0.000
      8 O15         0.9833    0.2947   -1.9829 O.3        1 <1>        0.000
      9 O9          5.9456    1.4452   -4.8622 O.2        1 <1>        0.000
     10 O10         4.9071   -0.4507   -6.1493 O.3        1 <1>        0.000
     11 P3          3.3740   -1.2911   -3.4394 P.3        1 <1>        0.000
     12 O11         2.9167   -1.3584   -1.9643 O.3        1 <1>        0.000
     13 O12         2.2737   -0.6396   -4.1705 O.2        1 <1>        0.000
     14 O13         3.6875   -2.7267   -3.9769 O.3        1 <1>        0.000
     15 P4          2.3394   -0.0945   -1.2451 P.3        1 <1>        0.000
     16 O14         1.9855   -0.4032    0.2310 O.3        1 <1>        0.000
     17 O16         3.3486    0.9417   -1.3410 O.2        1 <1>        0.000
     18 H           4.7683    2.4513   -3.0430 H.spc      1 <1>        0.000
     19 H           5.1297    3.3808   -5.3566 H.spc      1 <1>        0.000
     20 H           0.3521   -0.4226   -1.8893 H.spc      1 <1>        0.000
     21 H           4.1417   -1.0302   -6.1506 H.spc      1 <1>        0.000
     22 H           4.4086   -3.1067   -3.4697 H.spc      1 <1>        0.000
     23 H           1.3167   -1.0912    0.2614 H.spc      1 <1>        0.000
@<TRIPOS>BOND
     1    7   11 1  
     2   11   12 1  
     3    2    3 1  
     4   15   16 1  
     5    1    2 1  
     6   11   14 1  
     7    6    9 2  
     8   15   17 2  
     9    2    5 1  
    10   15    8 1  
    11    6   10 1  
    12   12   15 1  
    13    6    7 1  
    14    2    4 2  
    15    3    6 1  
    16   11   13 2  
    17    1   18 1  
    18    5   19 1  
    19    8   20 1  
    20   10   21 1  
    21   14   22 1  
    22   16   23 1  
# Name:          frag3-253-4/96164 -- energy: -2.260974
# Creation time: Sat Jun  5 12:53:20 2010


@<TRIPOS>MOLECULE
frag3-253-4/96164 -- energy: -2.260974
   23    22     1     1     1
SMALL
USER_CHARGES


@<TRIPOS>ATOM
      1 O4          1.2656   -1.3955   -0.5495 O.3        1 <1>        0.000
      2 P1          2.7931   -0.9751   -0.6246 P.3        1 <1>        0.000
      3 O5          3.0692   -0.3665   -2.0339 O.3        1 <1>        0.000
      4 O6          3.1331   -0.1775    0.5262 O.2        1 <1>        0.000
      5 O7          3.6228   -2.3427   -0.6256 O.3        1 <1>        0.000
      6 P2          3.0297   -1.2023   -3.3879 P.3        1 <1>        0.000
      7 O8          2.8402   -0.2955   -4.6284 O.3        1 <1>        0.000
      8 O15         3.7464    4.2184   -4.1058 O.3        1 <1>        0.000
      9 O9          2.0375   -2.2586   -3.2342 O.2        1 <1>        0.000
     10 O10         4.4883   -1.8261   -3.5564 O.3        1 <1>        0.000
     11 P3          3.6748    0.9861   -4.8453 P.3        1 <1>        0.000
     12 O11         3.0186    2.2150   -5.5264 O.3        1 <1>        0.000
     13 O12         4.1382    1.4644   -3.5210 O.2        1 <1>        0.000
     14 O13         4.9378    0.6485   -5.7723 O.3        1 <1>        0.000
     15 P4          3.7526    3.5947   -5.5705 P.3        1 <1>        0.000
     16 O14         5.2785    3.2661   -5.8749 O.3        1 <1>        0.000
     17 O16         3.2274    4.4754   -6.5848 O.2        1 <1>        0.000
     18 H           1.0429   -1.9266   -1.3176 H.spc      1 <1>        0.000
     19 H           3.3837   -2.8602   -1.3980 H.spc      1 <1>        0.000
     20 H           4.1076    3.5804   -3.4860 H.spc      1 <1>        0.000
     21 H           5.1285   -1.1177   -3.6563 H.spc      1 <1>        0.000
     22 H           4.6317    0.3394   -6.6281 H.spc      1 <1>        0.000
     23 H           5.6201    2.6799   -5.1957 H.spc      1 <1>        0.000
@<TRIPOS>BOND
     1    7   11 1  
     2   11   12 1  
     3    2    3 1  
     4   15   16 1  
     5    1    2 1  
     6   11   14 1  
     7    6    9 2  
     8   15   17 2  
     9    2    5 1  
    10   15    8 1  
    11    6   10 1  
    12   12   15 1  
    13    6    7 1  
    14    2    4 2  
    15    3    6 1  
    16   11   13 2  
    17    1   18 1  
    18    5   19 1  
    19    8   20 1  
    20   10   21 1  
    21   14   22 1  
    22   16   23 1  
# Name:          frag3-253-4/96164 -- energy: -4.782372
# Creation time: Sat Jun  5 12:53:20 2010


@<TRIPOS>MOLECULE
frag3-253-4/96164 -- energy: -4.782372
   23    22     1     1     1
SMALL
USER_CHARGES


@<TRIPOS>ATOM
      1 O4          4.9349   -0.0680   -1.3293 O.3        1 <1>        0.000
      2 P1          3.9780   -1.3293   -1.2592 P.3        1 <1>        0.000
      3 O5          2.5063   -0.8435   -1.5636 O.3        1 <1>        0.000
      4 O6          4.3982   -2.2837   -2.2597 O.2        1 <1>        0.000
      5 O7          4.0167   -1.9186    0.1798 O.3        1 <1>        0.000
      6 P2          1.9386   -0.5548   -3.0052 P.3        1 <1>        0.000
      7 O8          3.0263    0.3154   -3.7637 O.3        1 <1>        0.000
      8 O15         3.6175    3.2615   -6.7564 O.3        1 <1>        0.000
      9 O9          0.6991    0.1753   -3.0105 O.2        1 <1>        0.000
     10 O10         1.8422   -1.9541   -3.6921 O.3        1 <1>        0.000
     11 P3          2.9919    1.8842   -3.8096 P.3        1 <1>        0.000
     12 O11         4.2662    2.5332   -4.3810 O.3        1 <1>        0.000
     13 O12         1.8856    2.2890   -4.6631 O.2        1 <1>        0.000
     14 O13         2.8178    2.3410   -2.2988 O.3        1 <1>        0.000
     15 P4          4.6122    2.3530   -5.8899 P.3        1 <1>        0.000
     16 O14         6.0357    2.8760   -6.2147 O.3        1 <1>        0.000
     17 O16         4.4868    0.9522   -6.1983 O.2        1 <1>        0.000
     18 H           4.6653    0.5739   -0.6684 H.spc      1 <1>        0.000
     19 H           3.7303   -1.2498    0.8061 H.spc      1 <1>        0.000
     20 H           3.7371    4.1834   -6.5167 H.spc      1 <1>        0.000
     21 H           2.6981   -2.3872   -3.6549 H.spc      1 <1>        0.000
     22 H           3.5750    2.0466   -1.7874 H.spc      1 <1>        0.000
     23 H           6.0891    3.8100   -5.9994 H.spc      1 <1>        0.000
@<TRIPOS>BOND
     1    7   11 1  
     2   11   12 1  
     3    2    3 1  
     4   15   16 1  
     5    1    2 1  
     6   11   14 1  
     7    6    9 2  
     8   15   17 2  
     9    2    5 1  
    10   15    8 1  
    11    6   10 1  
    12   12   15 1  
    13    6    7 1  
    14    2    4 2  
    15    3    6 1  
    16   11   13 2  
    17    1   18 1  
    18    5   19 1  
    19    8   20 1  
    20   10   21 1  
    21   14   22 1  
    22   16   23 1  
# Name:          frag3-253-4/96164 -- energy: -2.049426
# Creation time: Sat Jun  5 12:53:20 2010


@<TRIPOS>MOLECULE
frag3-253-4/96164 -- energy: -2.049426
   23    22     1     1     1
SMALL
USER_CHARGES


@<TRIPOS>ATOM
      1 O4          4.0891    4.4405   -5.1198 O.3        1 <1>        0.000
      2 P1          3.5787    3.2484   -6.0145 P.3        1 <1>        0.000
      3 O5          4.5074    2.0087   -5.7405 O.3        1 <1>        0.000
      4 O6          2.2197    2.9289   -5.6313 O.2        1 <1>        0.000
      5 O7          3.6990    3.6170   -7.5207 O.3        1 <1>        0.000
      6 P2          4.4305    1.1009   -4.4983 P.3        1 <1>        0.000
      7 O8          3.0290    0.3927   -4.3481 O.3        1 <1>        0.000
      8 O15         3.4033   -0.5547    0.7572 O.3        1 <1>        0.000
      9 O9          4.6844    1.8809   -3.2870 O.2        1 <1>        0.000
     10 O10         5.4365   -0.1146   -4.6037 O.3        1 <1>        0.000
     11 P3          2.7281   -0.6746   -3.2758 P.3        1 <1>        0.000
     12 O11         3.2599   -0.2665   -1.8465 O.3        1 <1>        0.000
     13 O12         1.3365   -1.0058   -3.1083 O.2        1 <1>        0.000
     14 O13         3.6466   -1.9466   -3.6294 O.3        1 <1>        0.000
     15 P4          2.9938   -1.1917   -0.6104 P.3        1 <1>        0.000
     16 O14         1.4161   -1.3576   -0.5552 O.3        1 <1>        0.000
     17 O16         3.5955   -2.4770   -0.8831 O.2        1 <1>        0.000
     18 H           4.9905    4.6607   -5.3659 H.spc      1 <1>        0.000
     19 H           4.6142    3.8202   -7.7271 H.spc      1 <1>        0.000
     20 H           2.9625    0.2920    0.8593 H.spc      1 <1>        0.000
     21 H           5.2528   -0.6121   -5.4039 H.spc      1 <1>        0.000
     22 H           4.5586   -1.6637   -3.7284 H.spc      1 <1>        0.000
     23 H           1.0120   -0.5058   -0.3742 H.spc      1 <1>        0.000
@<TRIPOS>BOND
     1    7   11 1  
     2   11   12 1  
     3    2    3 1  
     4   15   16 1  
     5    1    2 1  
     6   11   14 1  
     7    6    9 2  
     8   15   17 2  
     9    2    5 1  
    10   15    8 1  
    11    6   10 1  
    12   12   15 1  
    13    6    7 1  
    14    2    4 2  
    15    3    6 1  
    16   11   13 2  
    17    1   18 1  
    18    5   19 1  
    19    8   20 1  
    20   10   21 1  
    21   14   22 1  
    22   16   23 1  
# Name:          frag3-253-4/96164 -- energy: -0.452334
# Creation time: Sat Jun  5 12:53:21 2010


@<TRIPOS>MOLECULE
frag3-253-4/96164 -- energy: -0.452334
   23    22     1     1     1
SMALL
USER_CHARGES


@<TRIPOS>ATOM
      1 O4          1.6411    0.7460   -0.9934 O.3        1 <1>        0.000
      2 P1          2.6528   -0.4543   -0.8744 P.3        1 <1>        0.000
      3 O5          2.3749   -1.4647   -2.0452 O.3        1 <1>        0.000
      4 O6          4.0042    0.0698   -0.9958 O.2        1 <1>        0.000
      5 O7          2.4391   -1.2055    0.4716 O.3        1 <1>        0.000
      6 P2          2.9115   -1.3312   -3.4832 P.3        1 <1>        0.000
      7 O8          3.0290    0.1986   -3.9085 O.3        1 <1>        0.000
      8 O15         3.1014    3.3683   -3.4522 O.3        1 <1>        0.000
      9 O9          2.1857   -2.0506   -4.5089 O.2        1 <1>        0.000
     10 O10         4.4377   -1.7778   -3.4209 O.3        1 <1>        0.000
     11 P3          3.8019    0.6611   -5.2067 P.3        1 <1>        0.000
     12 O11         3.4925    2.1186   -5.6281 O.3        1 <1>        0.000
     13 O12         5.2344    0.6007   -4.9174 O.2        1 <1>        0.000
     14 O13         3.3562   -0.3082   -6.3547 O.3        1 <1>        0.000
     15 P4          3.9734    3.3233   -4.7882 P.3        1 <1>        0.000
     16 O14         5.4291    2.9664   -4.2910 O.3        1 <1>        0.000
     17 O16         3.9888    4.5683   -5.5181 O.2        1 <1>        0.000
     18 H           0.7433    0.4153   -0.9150 H.spc      1 <1>        0.000
     19 H           1.5384   -1.5351    0.5133 H.spc      1 <1>        0.000
     20 H           3.1357    2.5117   -3.0201 H.spc      1 <1>        0.000
     21 H           4.8871   -1.2823   -2.7323 H.spc      1 <1>        0.000
     22 H           2.4106   -0.2218   -6.4958 H.spc      1 <1>        0.000
     23 H           5.4066    2.1374   -3.8074 H.spc      1 <1>        0.000
@<TRIPOS>BOND
     1    7   11 1  
     2   11   12 1  
     3    2    3 1  
     4   15   16 1  
     5    1    2 1  
     6   11   14 1  
     7    6    9 2  
     8   15   17 2  
     9    2    5 1  
    10   15    8 1  
    11    6   10 1  
    12   12   15 1  
    13    6    7 1  
    14    2    4 2  
    15    3    6 1  
    16   11   13 2  
    17    1   18 1  
    18    5   19 1  
    19    8   20 1  
    20   10   21 1  
    21   14   22 1  
    22   16   23 1  
# Name:          frag3-253-4/96164 -- energy: -4.394309
# Creation time: Sat Jun  5 12:53:21 2010


@<TRIPOS>MOLECULE
frag3-253-4/96164 -- energy: -4.394309
   23    22     1     1     1
SMALL
USER_CHARGES


@<TRIPOS>ATOM
      1 O4          4.8465   -1.4903   -1.7918 O.3        1 <1>        0.000
      2 P1          3.3997   -2.1123   -1.5574 P.3        1 <1>        0.000
      3 O5          2.4189   -1.2987   -2.4505 O.3        1 <1>        0.000
      4 O6          3.4610   -3.5401   -1.7848 O.2        1 <1>        0.000
      5 O7          2.9745   -1.7633   -0.0792 O.3        1 <1>        0.000
      6 P2          2.4207    0.2520   -2.6191 P.3        1 <1>        0.000
      7 O8          3.7839    0.7864   -3.2330 O.3        1 <1>        0.000
      8 O15         2.6750    2.7629   -6.7009 O.3        1 <1>        0.000
      9 O9          2.2530    0.8938   -1.3079 O.2        1 <1>        0.000
     10 O10         1.3263    0.7023   -3.6389 O.3        1 <1>        0.000
     11 P3          4.0048    2.3022   -3.6319 P.3        1 <1>        0.000
     12 O11         4.6226    2.4565   -5.0473 O.3        1 <1>        0.000
     13 O12         2.6628    2.8900   -3.7164 O.2        1 <1>        0.000
     14 O13         4.9253    2.9882   -2.5801 O.3        1 <1>        0.000
     15 P4          3.9170    1.8528   -6.2967 P.3        1 <1>        0.000
     16 O14         4.8529    1.8440   -7.5357 O.3        1 <1>        0.000
     17 O16         3.5092    0.5024   -5.9436 O.2        1 <1>        0.000
     18 H           4.8141   -0.5425   -1.6427 H.spc      1 <1>        0.000
     19 H           2.9465   -0.8097    0.0278 H.spc      1 <1>        0.000
     20 H           2.9847    3.6432   -6.9263 H.spc      1 <1>        0.000
     21 H           1.4724    0.2612   -4.4789 H.spc      1 <1>        0.000
     22 H           5.7828    2.5567   -2.5771 H.spc      1 <1>        0.000
     23 H           5.1081    2.7446   -7.7490 H.spc      1 <1>        0.000
@<TRIPOS>BOND
     1    7   11 1  
     2   11   12 1  
     3    2    3 1  
     4   15   16 1  
     5    1    2 1  
     6   11   14 1  
     7    6    9 2  
     8   15   17 2  
     9    2    5 1  
    10   15    8 1  
    11    6   10 1  
    12   12   15 1  
    13    6    7 1  
    14    2    4 2  
    15    3    6 1  
    16   11   13 2  
    17    1   18 1  
    18    5   19 1  
    19    8   20 1  
    20   10   21 1  
    21   14   22 1  
    22   16   23 1  
# Name:          frag3-253-4/96164 -- energy: 0.230516
# Creation time: Sat Jun  5 12:53:21 2010


@<TRIPOS>MOLECULE
frag3-253-4/96164 -- energy: 0.230516
   23    22     1     1     1
SMALL
USER_CHARGES


@<TRIPOS>ATOM
      1 O4          4.7859    2.7197   -6.9827 O.3        1 <1>        0.000
      2 P1          3.5795    1.9637   -6.3164 P.3        1 <1>        0.000
      3 O5          4.0700    1.2796   -4.9881 O.3        1 <1>        0.000
      4 O6          2.5283    2.9152   -6.0119 O.2        1 <1>        0.000
      5 O7          3.0743    0.8430   -7.2848 O.3        1 <1>        0.000
      6 P2          4.2096    2.0336   -3.6031 P.3        1 <1>        0.000
      7 O8          2.8713    1.8939   -2.8139 O.3        1 <1>        0.000
      8 O15         4.5078   -1.5347   -0.7564 O.3        1 <1>        0.000
      9 O9          4.6182    3.3941   -3.8707 O.2        1 <1>        0.000
     10 O10         5.2735    1.2499   -2.7392 O.3        1 <1>        0.000
     11 P3          2.3440    0.5455   -2.2789 P.3        1 <1>        0.000
     12 O11         3.2516   -0.6693   -2.8139 O.3        1 <1>        0.000
     13 O12         2.4783    0.4306   -0.8259 O.2        1 <1>        0.000
     14 O13         0.9112    0.2017   -2.8103 O.3        1 <1>        0.000
     15 P4          3.5085   -1.9379   -1.9249 P.3        1 <1>        0.000
     16 O14         2.1226   -2.2163   -1.2083 O.3        1 <1>        0.000
     17 O16         3.9195   -3.0836   -2.6857 O.2        1 <1>        0.000
     18 H           5.4831    2.0916   -7.1852 H.spc      1 <1>        0.000
     19 H           3.7915    0.2312   -7.4662 H.spc      1 <1>        0.000
     20 H           4.1662   -0.7645   -0.2963 H.spc      1 <1>        0.000
     21 H           4.9628    0.3546   -2.5860 H.spc      1 <1>        0.000
     22 H           0.8940    0.2970   -3.7654 H.spc      1 <1>        0.000
     23 H           1.8627   -1.4414   -0.7047 H.spc      1 <1>        0.000
@<TRIPOS>BOND
     1    7   11 1  
     2   11   12 1  
     3    2    3 1  
     4   15   16 1  
     5    1    2 1  
     6   11   14 1  
     7    6    9 2  
     8   15   17 2  
     9    2    5 1  
    10   15    8 1  
    11    6   10 1  
    12   12   15 1  
    13    6    7 1  
    14    2    4 2  
    15    3    6 1  
    16   11   13 2  
    17    1   18 1  
    18    5   19 1  
    19    8   20 1  
    20   10   21 1  
    21   14   22 1  
    22   16   23 1  
# Name:          frag3-253-4/96164 -- energy: -0.243960
# Creation time: Sat Jun  5 12:53:21 2010


@<TRIPOS>MOLECULE
frag3-253-4/96164 -- energy: -0.243960
   23    22     1     1     1
SMALL
USER_CHARGES


@<TRIPOS>ATOM
      1 O4          4.4082    3.7589   -3.9063 O.3        1 <1>        0.000
      2 P1          3.5363    3.1685   -5.0792 P.3        1 <1>        0.000
      3 O5          4.2030    1.8314   -5.5432 O.3        1 <1>        0.000
      4 O6          2.1947    2.9308   -4.5943 O.2        1 <1>        0.000
      5 O7          3.5583    4.1657   -6.2808 O.3        1 <1>        0.000
      6 P2          4.3694    0.5760   -4.6625 P.3        1 <1>        0.000
      7 O8          2.9976   -0.0226   -4.1709 O.3        1 <1>        0.000
      8 O15         1.3480    0.0316   -1.4234 O.3        1 <1>        0.000
      9 O9          5.2087    0.8752   -3.5085 O.2        1 <1>        0.000
     10 O10         5.0126   -0.5952   -5.5124 O.3        1 <1>        0.000
     11 P3          2.8734   -1.4370   -3.4883 P.3        1 <1>        0.000
     12 O11         3.3995   -1.3017   -2.0199 O.3        1 <1>        0.000
     13 O12         1.5171   -1.9279   -3.4242 O.2        1 <1>        0.000
     14 O13         3.8761   -2.3788   -4.2618 O.3        1 <1>        0.000
     15 P4          2.9168   -0.1527   -1.0868 P.3        1 <1>        0.000
     16 O14         2.9705   -0.5396    0.4092 O.3        1 <1>        0.000
     17 O16         3.6638    1.0461   -1.3620 O.2        1 <1>        0.000
     18 H           5.3006    3.9191   -4.2218 H.spc      1 <1>        0.000
     19 H           4.4641    4.2953   -6.5711 H.spc      1 <1>        0.000
     20 H           0.8820   -0.7848   -1.2285 H.spc      1 <1>        0.000
     21 H           4.4531   -0.7845   -6.2692 H.spc      1 <1>        0.000
     22 H           4.7510   -1.9836   -4.2594 H.spc      1 <1>        0.000
     23 H           2.4617   -1.3415    0.5496 H.spc      1 <1>        0.000
@<TRIPOS>BOND
     1    7   11 1  
     2   11   12 1  
     3    2    3 1  
     4   15   16 1  
     5    1    2 1  
     6   11   14 1  
     7    6    9 2  
     8   15   17 2  
     9    2    5 1  
    10   15    8 1  
    11    6   10 1  
    12   12   15 1  
    13    6    7 1  
    14    2    4 2  
    15    3    6 1  
    16   11   13 2  
    17    1   18 1  
    18    5   19 1  
    19    8   20 1  
    20   10   21 1  
    21   14   22 1  
    22   16   23 1  
# Name:          frag3-253-4/96164 -- energy: -2.610881
# Creation time: Sat Jun  5 12:53:21 2010


@<TRIPOS>MOLECULE
frag3-253-4/96164 -- energy: -2.610881
   23    22     1     1     1
SMALL
USER_CHARGES


@<TRIPOS>ATOM
      1 O4          1.7995   -1.5254    0.5497 O.3        1 <1>        0.000
      2 P1          2.7663   -1.4388   -0.6567 P.3        1 <1>        0.000
      3 O5          2.0475   -1.1770   -2.0304 O.3        1 <1>        0.000
      4 O6          3.7830   -0.4295   -0.4232 O.2        1 <1>        0.000
      5 O7          3.4678   -2.8554   -0.8779 O.3        1 <1>        0.000
      6 P2          2.7938   -0.7628   -3.3257 P.3        1 <1>        0.000
      7 O8          3.9015    0.3157   -3.0197 O.3        1 <1>        0.000
      8 O15         3.9314    4.4596   -5.0623 O.3        1 <1>        0.000
      9 O9          1.9506   -0.2573   -4.3938 O.2        1 <1>        0.000
     10 O10         3.5828   -2.0613   -3.8013 O.3        1 <1>        0.000
     11 P3          4.3564    1.3614   -4.0462 P.3        1 <1>        0.000
     12 O11         3.1514    2.0380   -4.8139 O.3        1 <1>        0.000
     13 O12         5.1538    2.4548   -3.5285 O.2        1 <1>        0.000
     14 O13         5.1101    0.5702   -5.2294 O.3        1 <1>        0.000
     15 P4          3.3896    3.1843   -5.8410 P.3        1 <1>        0.000
     16 O14         4.6184    2.7016   -6.7278 O.3        1 <1>        0.000
     17 O16         2.2502    3.4510   -6.6870 O.2        1 <1>        0.000
     18 H           1.1349   -2.1966    0.3782 H.spc      1 <1>        0.000
     19 H           2.7958   -3.5233   -1.0324 H.spc      1 <1>        0.000
     20 H           4.6848    4.2078   -4.5232 H.spc      1 <1>        0.000
     21 H           4.1340   -2.3805   -3.0830 H.spc      1 <1>        0.000
     22 H           4.5499   -0.1435   -5.5431 H.spc      1 <1>        0.000
     23 H           5.3721    2.5261   -6.1597 H.spc      1 <1>        0.000
@<TRIPOS>BOND
     1    7   11 1  
     2   11   12 1  
     3    2    3 1  
     4   15   16 1  
     5    1    2 1  
     6   11   14 1  
     7    6    9 2  
     8   15   17 2  
     9    2    5 1  
    10   15    8 1  
    11    6   10 1  
    12   12   15 1  
    13    6    7 1  
    14    2    4 2  
    15    3    6 1  
    16   11   13 2  
    17    1   18 1  
    18    5   19 1  
    19    8   20 1  
    20   10   21 1  
    21   14   22 1  
    22   16   23 1  
# Name:          frag3-253-4/96164 -- energy: -2.766526
# Creation time: Sat Jun  5 12:53:21 2010


@<TRIPOS>MOLECULE
frag3-253-4/96164 -- energy: -2.766526
   23    22     1     1     1
SMALL
USER_CHARGES


@<TRIPOS>ATOM
      1 O4          5.9095    3.8343   -5.9358 O.3        1 <1>        0.000
      2 P1          4.5583    3.1663   -5.5749 P.3        1 <1>        0.000
      3 O5          4.6604    1.6164   -5.3152 O.3        1 <1>        0.000
      4 O6          3.9413    3.8363   -4.4390 O.2        1 <1>        0.000
      5 O7          3.5831    3.2446   -6.8326 O.3        1 <1>        0.000
      6 P2          3.4556    0.7150   -4.9252 P.3        1 <1>        0.000
      7 O8          3.5768   -0.1322   -3.6306 O.3        1 <1>        0.000
      8 O15         2.9585    0.4150   -0.4016 O.3        1 <1>        0.000
      9 O9          2.9760   -0.1038   -6.0334 O.2        1 <1>        0.000
     10 O10         2.3266    1.8154   -4.5672 O.3        1 <1>        0.000
     11 P3          2.3549   -0.9164   -3.0086 P.3        1 <1>        0.000
     12 O11         2.7460   -1.7297   -1.7518 O.3        1 <1>        0.000
     13 O12         1.3517    0.0663   -2.5964 O.2        1 <1>        0.000
     14 O13         1.8495   -1.9005   -4.1272 O.3        1 <1>        0.000
     15 P4          3.5470   -1.0736   -0.5980 P.3        1 <1>        0.000
     16 O14         3.3056   -1.7796    0.7629 O.3        1 <1>        0.000
     17 O16         4.9532   -1.0449   -0.9406 O.2        1 <1>        0.000
     18 H           6.3000    3.3793   -6.6855 H.spc      1 <1>        0.000
     19 H           3.9913    2.8025   -7.5806 H.spc      1 <1>        0.000
     20 H           2.0269    0.3624   -0.1758 H.spc      1 <1>        0.000
     21 H           2.6322    2.3603   -3.8383 H.spc      1 <1>        0.000
     22 H           2.5513   -2.5161   -4.3512 H.spc      1 <1>        0.000
     23 H           2.3659   -1.7811    0.9591 H.spc      1 <1>        0.000
@<TRIPOS>BOND
     1    7   11 1  
     2   11   12 1  
     3    2    3 1  
     4   15   16 1  
     5    1    2 1  
     6   11   14 1  
     7    6    9 2  
     8   15   17 2  
     9    2    5 1  
    10   15    8 1  
    11    6   10 1  
    12   12   15 1  
    13    6    7 1  
    14    2    4 2  
    15    3    6 1  
    16   11   13 2  
    17    1   18 1  
    18    5   19 1  
    19    8   20 1  
    20   10   21 1  
    21   14   22 1  
    22   16   23 1  
# Name:          frag3-253-4/96164 -- energy: -5.010931
# Creation time: Sat Jun  5 12:53:21 2010


@<TRIPOS>MOLECULE
frag3-253-4/96164 -- energy: -5.010931
   23    22     1     1     1
SMALL
USER_CHARGES


@<TRIPOS>ATOM
      1 O4          2.8600    1.1953   -1.0022 O.3        1 <1>        0.000
      2 P1          2.8216   -0.3730   -0.7808 P.3        1 <1>        0.000
      3 O5          2.1111   -1.0008   -2.0252 O.3        1 <1>        0.000
      4 O6          4.1871   -0.8458   -0.6649 O.2        1 <1>        0.000
      5 O7          1.9935   -0.6345    0.5102 O.3        1 <1>        0.000
      6 P2          2.6307   -0.9474   -3.4769 P.3        1 <1>        0.000
      7 O8          3.6281    0.2640   -3.6804 O.3        1 <1>        0.000
      8 O15         4.3216    4.5156   -5.2058 O.3        1 <1>        0.000
      9 O9          1.6121   -0.8957   -4.5047 O.2        1 <1>        0.000
     10 O10         3.5747   -2.2130   -3.6492 O.3        1 <1>        0.000
     11 P3          4.5113    0.4752   -4.9701 P.3        1 <1>        0.000
     12 O11         4.8336    1.9604   -5.2278 O.3        1 <1>        0.000
     13 O12         5.6809   -0.3667   -4.9161 O.2        1 <1>        0.000
     14 O13         3.5155    0.0927   -6.1746 O.3        1 <1>        0.000
     15 P4          3.8114    3.0770   -4.8685 P.3        1 <1>        0.000
     16 O14         2.5398    2.8383   -5.7903 O.3        1 <1>        0.000
     17 O16         3.4209    2.8873   -3.4878 O.2        1 <1>        0.000
     18 H           1.9631    1.5282   -1.0815 H.spc      1 <1>        0.000
     19 H           1.0997   -0.3062    0.3877 H.spc      1 <1>        0.000
     20 H           4.5595    4.5599   -6.1348 H.spc      1 <1>        0.000
     21 H           4.2357   -2.2149   -2.9530 H.spc      1 <1>        0.000
     22 H           2.7584    0.6828   -6.1620 H.spc      1 <1>        0.000
     23 H           2.7852    2.9612   -6.7102 H.spc      1 <1>        0.000
@<TRIPOS>BOND
     1    7   11 1  
     2   11   12 1  
     3    2    3 1  
     4   15   16 1  
     5    1    2 1  
     6   11   14 1  
     7    6    9 2  
     8   15   17 2  
     9    2    5 1  
    10   15    8 1  
    11    6   10 1  
    12   12   15 1  
    13    6    7 1  
    14    2    4 2  
    15    3    6 1  
    16   11   13 2  
    17    1   18 1  
    18    5   19 1  
    19    8   20 1  
    20   10   21 1  
    21   14   22 1  
    22   16   23 1  
# Name:          frag3-253-4/96164 -- energy: -3.438465
# Creation time: Sat Jun  5 12:53:21 2010


@<TRIPOS>MOLECULE
frag3-253-4/96164 -- energy: -3.438465
   23    22     1     1     1
SMALL
USER_CHARGES


@<TRIPOS>ATOM
      1 O4          5.0164    3.7618   -5.5647 O.3        1 <1>        0.000
      2 P1          3.5766    3.3258   -5.1071 P.3        1 <1>        0.000
      3 O5          3.2373    1.9599   -5.8104 O.3        1 <1>        0.000
      4 O6          3.5851    3.1320   -3.6753 O.2        1 <1>        0.000
      5 O7          2.5231    4.3731   -5.5607 O.3        1 <1>        0.000
      6 P2          3.6862    0.5638   -5.3473 P.3        1 <1>        0.000
      7 O8          3.4669    0.3636   -3.7883 O.3        1 <1>        0.000
      8 O15         2.7071   -0.9586    0.8195 O.3        1 <1>        0.000
      9 O9          5.1118    0.3736   -5.6116 O.2        1 <1>        0.000
     10 O10         2.8161   -0.5700   -5.9843 O.3        1 <1>        0.000
     11 P3          3.8885   -0.9430   -3.0202 P.3        1 <1>        0.000
     12 O11         3.8965   -0.8054   -1.4870 O.3        1 <1>        0.000
     13 O12         2.9345   -1.9897   -3.3546 O.2        1 <1>        0.000
     14 O13         5.3533   -1.2694   -3.5060 O.3        1 <1>        0.000
     15 P4          2.5568   -0.6587   -0.7154 P.3        1 <1>        0.000
     16 O14         2.1146    0.8513   -0.8203 O.3        1 <1>        0.000
     17 O16         1.5833   -1.4812   -1.3815 O.2        1 <1>        0.000
     18 H           5.0225    3.8936   -6.5156 H.spc      1 <1>        0.000
     19 H           2.5563    4.4659   -6.5156 H.spc      1 <1>        0.000
     20 H           3.3703   -0.3749    1.1950 H.spc      1 <1>        0.000
     21 H           1.8901   -0.4092   -5.7888 H.spc      1 <1>        0.000
     22 H           5.9386   -0.5492   -3.2605 H.spc      1 <1>        0.000
     23 H           2.7617    1.4046   -0.3768 H.spc      1 <1>        0.000
@<TRIPOS>BOND
     1    7   11 1  
     2   11   12 1  
     3    2    3 1  
     4   15   16 1  
     5    1    2 1  
     6   11   14 1  
     7    6    9 2  
     8   15   17 2  
     9    2    5 1  
    10   15    8 1  
    11    6   10 1  
    12   12   15 1  
    13    6    7 1  
    14    2    4 2  
    15    3    6 1  
    16   11   13 2  
    17    1   18 1  
    18    5   19 1  
    19    8   20 1  
    20   10   21 1  
    21   14   22 1  
    22   16   23 1  
# Name:          frag3-253-4/96164 -- energy: -1.017303
# Creation time: Sat Jun  5 12:53:21 2010


@<TRIPOS>MOLECULE
frag3-253-4/96164 -- energy: -1.017303
   23    22     1     1     1
SMALL
USER_CHARGES


@<TRIPOS>ATOM
      1 O4          3.2474    0.5714    0.2374 O.3        1 <1>        0.000
      2 P1          2.8655   -0.5690   -0.7456 P.3        1 <1>        0.000
      3 O5          3.0570   -0.1732   -2.2618 O.3        1 <1>        0.000
      4 O6          3.6163   -1.7697   -0.4411 O.2        1 <1>        0.000
      5 O7          1.3059   -0.8453   -0.6567 O.3        1 <1>        0.000
      6 P2          2.8360   -1.1882   -3.4688 P.3        1 <1>        0.000
      7 O8          2.5821   -0.4497   -4.7997 O.3        1 <1>        0.000
      8 O15         5.4839    3.0411   -3.9524 O.3        1 <1>        0.000
      9 O9          1.8079   -2.1306   -3.0767 O.2        1 <1>        0.000
     10 O10         4.2474   -1.8972   -3.6279 O.3        1 <1>        0.000
     11 P3          3.4559    0.7243   -5.2825 P.3        1 <1>        0.000
     12 O11         3.1768    2.0997   -4.5721 O.3        1 <1>        0.000
     13 O12         4.8665    0.4211   -4.9460 O.2        1 <1>        0.000
     14 O13         3.2650    1.0246   -6.8167 O.3        1 <1>        0.000
     15 P4          4.1442    3.3180   -4.7572 P.3        1 <1>        0.000
     16 O14         4.5730    3.2690   -6.2870 O.3        1 <1>        0.000
     17 O16         3.5231    4.5824   -4.4605 O.2        1 <1>        0.000
     18 H           2.7425    1.3593    0.0233 H.spc      1 <1>        0.000
     19 H           0.8270   -0.0389   -0.8615 H.spc      1 <1>        0.000
     20 H           5.8355    2.1839   -4.2038 H.spc      1 <1>        0.000
     21 H           4.9037   -1.2464   -3.8875 H.spc      1 <1>        0.000
     22 H           2.3406    1.2154   -6.9917 H.spc      1 <1>        0.000
     23 H           4.9859    2.4231   -6.4755 H.spc      1 <1>        0.000
@<TRIPOS>BOND
     1    7   11 1  
     2   11   12 1  
     3    2    3 1  
     4   15   16 1  
     5    1    2 1  
     6   11   14 1  
     7    6    9 2  
     8   15   17 2  
     9    2    5 1  
    10   15    8 1  
    11    6   10 1  
    12   12   15 1  
    13    6    7 1  
    14    2    4 2  
    15    3    6 1  
    16   11   13 2  
    17    1   18 1  
    18    5   19 1  
    19    8   20 1  
    20   10   21 1  
    21   14   22 1  
    22   16   23 1  
# Name:          frag3-253-4/96164 -- energy: -0.697821
# Creation time: Sat Jun  5 12:53:21 2010


@<TRIPOS>MOLECULE
frag3-253-4/96164 -- energy: -0.697821
   23    22     1     1     1
SMALL
USER_CHARGES


@<TRIPOS>ATOM
      1 O4          3.8152    0.9712   -1.4439 O.3        1 <1>        0.000
      2 P1          3.0901   -0.3000   -0.8398 P.3        1 <1>        0.000
      3 O5          3.1729   -1.4301   -1.9022 O.3        1 <1>        0.000
      4 O6          3.6364   -0.5800    0.4679 O.2        1 <1>        0.000
      5 O7          1.5453    0.0423   -0.7722 O.3        1 <1>        0.000
      6 P2          2.9651   -1.2615   -3.4319 P.3        1 <1>        0.000
      7 O8          3.4565    0.1749   -3.9245 O.3        1 <1>        0.000
      8 O15         5.6222    2.2979   -4.2336 O.3        1 <1>        0.000
      9 O9          1.5565   -1.3678   -3.8074 O.2        1 <1>        0.000
     10 O10         3.8746   -2.2437   -4.2386 O.3        1 <1>        0.000
     11 P3          3.3398    0.6666   -5.4318 P.3        1 <1>        0.000
     12 O11         3.4459    2.2009   -5.5353 O.3        1 <1>        0.000
     13 O12         4.4089    0.0488   -6.1956 O.2        1 <1>        0.000
     14 O13         1.8916    0.2321   -5.8670 O.3        1 <1>        0.000
     15 P4          4.2167    3.0366   -4.4836 P.3        1 <1>        0.000
     16 O14         4.5896    4.4432   -5.0045 O.3        1 <1>        0.000
     17 O16         3.4267    3.0974   -3.2712 O.2        1 <1>        0.000
     18 H           3.4549    1.1607   -2.3133 H.spc      1 <1>        0.000
     19 H           1.2194    0.2218   -1.6572 H.spc      1 <1>        0.000
     20 H           6.1203    2.2742   -5.0539 H.spc      1 <1>        0.000
     21 H           4.7865   -2.1372   -3.9579 H.spc      1 <1>        0.000
     22 H           1.2452    0.6814   -5.3175 H.spc      1 <1>        0.000
     23 H           5.1109    4.3585   -5.8062 H.spc      1 <1>        0.000
@<TRIPOS>BOND
     1    7   11 1  
     2   11   12 1  
     3    2    3 1  
     4   15   16 1  
     5    1    2 1  
     6   11   14 1  
     7    6    9 2  
     8   15   17 2  
     9    2    5 1  
    10   15    8 1  
    11    6   10 1  
    12   12   15 1  
    13    6    7 1  
    14    2    4 2  
    15    3    6 1  
    16   11   13 2  
    17    1   18 1  
    18    5   19 1  
    19    8   20 1  
    20   10   21 1  
    21   14   22 1  
    22   16   23 1  
# Name:          frag3-253-4/96164 -- energy: -3.822088
# Creation time: Sat Jun  5 12:53:21 2010


@<TRIPOS>MOLECULE
frag3-253-4/96164 -- energy: -3.822088
   23    22     1     1     1
SMALL
USER_CHARGES


@<TRIPOS>ATOM
      1 O4          3.7103    0.8306   -0.9027 O.3        1 <1>        0.000
      2 P1          3.4444   -0.7159   -0.7167 P.3        1 <1>        0.000
      3 O5          2.3001   -1.0956   -1.7325 O.3        1 <1>        0.000
      4 O6          4.6625   -1.4309   -1.0425 O.2        1 <1>        0.000
      5 O7          2.9386   -0.9987    0.7203 O.3        1 <1>        0.000
      6 P2          2.3822   -0.9623   -3.2715 P.3        1 <1>        0.000
      7 O8          3.0315    0.4241   -3.6821 O.3        1 <1>        0.000
      8 O15         5.4983    1.7349   -5.8582 O.3        1 <1>        0.000
      9 O9          1.1179   -1.0650   -3.9724 O.2        1 <1>        0.000
     10 O10         3.4137   -2.0537   -3.7457 O.3        1 <1>        0.000
     11 P3          2.7084    1.1599   -5.0316 P.3        1 <1>        0.000
     12 O11         3.2567    2.5989   -5.1012 O.3        1 <1>        0.000
     13 O12         3.3344    0.4141   -6.1198 O.2        1 <1>        0.000
     14 O13         1.1392    1.1999   -5.1164 O.3        1 <1>        0.000
     15 P4          4.7735    2.8954   -5.0091 P.3        1 <1>        0.000
     16 O14         5.1647    4.2165   -5.7094 O.3        1 <1>        0.000
     17 O16         5.1775    2.8765   -3.6236 O.2        1 <1>        0.000
     18 H           2.9117    1.3193   -0.6904 H.spc      1 <1>        0.000
     19 H           2.1333   -0.5006    0.8787 H.spc      1 <1>        0.000
     20 H           5.2062    1.7784   -6.7717 H.spc      1 <1>        0.000
     21 H           4.2342   -1.9502   -3.2581 H.spc      1 <1>        0.000
     22 H           0.7925    1.7027   -4.3757 H.spc      1 <1>        0.000
     23 H           4.8792    4.1885   -6.6255 H.spc      1 <1>        0.000
@<TRIPOS>BOND
     1    7   11 1  
     2   11   12 1  
     3    2    3 1  
     4   15   16 1  
     5    1    2 1  
     6   11   14 1  
     7    6    9 2  
     8   15   17 2  
     9    2    5 1  
    10   15    8 1  
    11    6   10 1  
    12   12   15 1  
    13    6    7 1  
    14    2    4 2  
    15    3    6 1  
    16   11   13 2  
    17    1   18 1  
    18    5   19 1  
    19    8   20 1  
    20   10   21 1  
    21   14   22 1  
    22   16   23 1  
# Name:          frag3-253-4/96164 -- energy: -3.252189
# Creation time: Sat Jun  5 12:53:21 2010


@<TRIPOS>MOLECULE
frag3-253-4/96164 -- energy: -3.252189
   23    22     1     1     1
SMALL
USER_CHARGES


@<TRIPOS>ATOM
      1 O4          2.5552   -0.0914    0.3331 O.3        1 <1>        0.000
      2 P1          2.3781   -0.3486   -1.1893 P.3        1 <1>        0.000
      3 O5          3.6446   -0.9596   -1.8908 O.3        1 <1>        0.000
      4 O6          1.2118   -1.1787   -1.4259 O.2        1 <1>        0.000
      5 O7          2.2033    1.0532   -1.9218 O.3        1 <1>        0.000
      6 P2          3.6818   -1.4828   -3.3773 P.3        1 <1>        0.000
      7 O8          4.7224   -0.7232   -4.2538 O.3        1 <1>        0.000
      8 O15         4.9356    3.9145   -4.2720 O.3        1 <1>        0.000
      9 O9          2.3411   -1.2107   -3.9467 O.2        1 <1>        0.000
     10 O10         3.9937   -3.0048   -3.3519 O.3        1 <1>        0.000
     11 P3          4.4431    0.6231   -4.9382 P.3        1 <1>        0.000
     12 O11         3.7392    1.6747   -3.9770 O.3        1 <1>        0.000
     13 O12         5.6123    1.3119   -5.4574 O.2        1 <1>        0.000
     14 O13         3.3296    0.3871   -6.0626 O.3        1 <1>        0.000
     15 P4          3.5486    3.1666   -4.4320 P.3        1 <1>        0.000
     16 O14         3.2711    3.0841   -5.9886 O.3        1 <1>        0.000
     17 O16         2.4425    3.8134   -3.7630 O.2        1 <1>        0.000
     18 H           3.3292    0.4582    0.4757 H.spc      1 <1>        0.000
     19 H           2.9784    1.5961   -1.7605 H.spc      1 <1>        0.000
     20 H           5.6167    3.4270   -4.7411 H.spc      1 <1>        0.000
     21 H           4.8668   -3.1452   -2.9784 H.spc      1 <1>        0.000
     22 H           2.5783   -0.0691   -5.6766 H.spc      1 <1>        0.000
     23 H           4.0114    2.6532   -6.4221 H.spc      1 <1>        0.000
@<TRIPOS>BOND
     1    7   11 1  
     2   11   12 1  
     3    2    3 1  
     4   15   16 1  
     5    1    2 1  
     6   11   14 1  
     7    6    9 2  
     8   15   17 2  
     9    2    5 1  
    10   15    8 1  
    11    6   10 1  
    12   12   15 1  
    13    6    7 1  
    14    2    4 2  
    15    3    6 1  
    16   11   13 2  
    17    1   18 1  
    18    5   19 1  
    19    8   20 1  
    20   10   21 1  
    21   14   22 1  
    22   16   23 1  
# Name:          frag3-253-4/96164 -- energy: -1.008542
# Creation time: Sat Jun  5 12:53:21 2010


@<TRIPOS>MOLECULE
frag3-253-4/96164 -- energy: -1.008542
   23    22     1     1     1
SMALL
USER_CHARGES


@<TRIPOS>ATOM
      1 O4          3.2133    3.7289   -4.1977 O.3        1 <1>        0.000
      2 P1          3.0701    2.9550   -5.5791 P.3        1 <1>        0.000
      3 O5          3.5738    1.4914   -5.3715 O.3        1 <1>        0.000
      4 O6          1.7431    3.1380   -6.1006 O.2        1 <1>        0.000
      5 O7          4.1624    3.5699   -6.5700 O.3        1 <1>        0.000
      6 P2          4.9851    1.1042   -4.7339 P.3        1 <1>        0.000
      7 O8          4.7800    0.7292   -3.2280 O.3        1 <1>        0.000
      8 O15         1.9041   -1.3329    0.7019 O.3        1 <1>        0.000
      9 O9          5.8834    2.2355   -4.9435 O.2        1 <1>        0.000
     10 O10         5.4981   -0.1982   -5.4460 O.3        1 <1>        0.000
     11 P3          3.7045   -0.2983   -2.7816 P.3        1 <1>        0.000
     12 O11         3.2602   -0.3358   -1.2999 O.3        1 <1>        0.000
     13 O12         2.4904   -0.0657   -3.5807 O.2        1 <1>        0.000
     14 O13         4.2818   -1.7728   -3.0445 O.3        1 <1>        0.000
     15 P4          2.1554   -1.3597   -0.8455 P.3        1 <1>        0.000
     16 O14         0.8110   -0.8964   -1.5361 O.3        1 <1>        0.000
     17 O16         2.5371   -2.6637   -1.3586 O.2        1 <1>        0.000
     18 H           4.1005    3.6043   -3.8528 H.spc      1 <1>        0.000
     19 H           5.0386    3.4360   -6.2014 H.spc      1 <1>        0.000
     20 H           1.6571   -0.4447    0.9695 H.spc      1 <1>        0.000
     21 H           4.8805   -0.9149   -5.2833 H.spc      1 <1>        0.000
     22 H           5.0719   -1.9049   -2.5154 H.spc      1 <1>        0.000
     23 H           0.5588   -0.0345   -1.1969 H.spc      1 <1>        0.000
@<TRIPOS>BOND
     1    7   11 1  
     2   11   12 1  
     3    2    3 1  
     4   15   16 1  
     5    1    2 1  
     6   11   14 1  
     7    6    9 2  
     8   15   17 2  
     9    2    5 1  
    10   15    8 1  
    11    6   10 1  
    12   12   15 1  
    13    6    7 1  
    14    2    4 2  
    15    3    6 1  
    16   11   13 2  
    17    1   18 1  
    18    5   19 1  
    19    8   20 1  
    20   10   21 1  
    21   14   22 1  
    22   16   23 1  
# Name:          frag3-253-4/96164 -- energy: 2.815295
# Creation time: Sat Jun  5 12:53:21 2010


@<TRIPOS>MOLECULE
frag3-253-4/96164 -- energy: 2.815295
   23    22     1     1     1
SMALL
USER_CHARGES


@<TRIPOS>ATOM
      1 O4          4.8702    3.4112   -6.7324 O.3        1 <1>        0.000
      2 P1          3.6569    3.6054   -5.7300 P.3        1 <1>        0.000
      3 O5          2.9730    2.2080   -5.4982 O.3        1 <1>        0.000
      4 O6          4.1636    4.1564   -4.4905 O.2        1 <1>        0.000
      5 O7          2.6016    4.5536   -6.3952 O.3        1 <1>        0.000
      6 P2          3.6906    0.9847   -4.8705 P.3        1 <1>        0.000
      7 O8          2.8231   -0.2397   -4.4693 O.3        1 <1>        0.000
      8 O15         1.7322   -2.3801   -0.5212 O.3        1 <1>        0.000
      9 O9          4.4357    1.4330   -3.6727 O.2        1 <1>        0.000
     10 O10         4.7248    0.4578   -5.9608 O.3        1 <1>        0.000
     11 P3          3.0820   -1.0628   -3.1937 P.3        1 <1>        0.000
     12 O11         2.6007   -0.3870   -1.8569 O.3        1 <1>        0.000
     13 O12         2.5154   -2.4015   -3.2011 O.2        1 <1>        0.000
     14 O13         4.6869   -1.1074   -3.0006 O.3        1 <1>        0.000
     15 P4          2.7404   -1.1381   -0.4926 P.3        1 <1>        0.000
     16 O14         4.1903   -1.7822   -0.4815 O.3        1 <1>        0.000
     17 O16         2.5664   -0.2822    0.6520 O.2        1 <1>        0.000
     18 H           4.5458    3.0459   -7.5588 H.spc      1 <1>        0.000
     19 H           2.2879    4.1585   -7.2119 H.spc      1 <1>        0.000
     20 H           1.8993   -2.9085   -1.3051 H.spc      1 <1>        0.000
     21 H           4.2458    0.1658   -6.7398 H.spc      1 <1>        0.000
     22 H           5.0330   -0.2119   -2.9996 H.spc      1 <1>        0.000
     23 H           4.2930   -2.3498   -1.2489 H.spc      1 <1>        0.000
@<TRIPOS>BOND
     1    7   11 1  
     2   11   12 1  
     3    2    3 1  
     4   15   16 1  
     5    1    2 1  
     6   11   14 1  
     7    6    9 2  
     8   15   17 2  
     9    2    5 1  
    10   15    8 1  
    11    6   10 1  
    12   12   15 1  
    13    6    7 1  
    14    2    4 2  
    15    3    6 1  
    16   11   13 2  
    17    1   18 1  
    18    5   19 1  
    19    8   20 1  
    20   10   21 1  
    21   14   22 1  
    22   16   23 1  
# Name:          frag3-253-4/96164 -- energy: -2.659611
# Creation time: Sat Jun  5 12:53:21 2010


@<TRIPOS>MOLECULE
frag3-253-4/96164 -- energy: -2.659611
   23    22     1     1     1
SMALL
USER_CHARGES


@<TRIPOS>ATOM
      1 O4          3.6628    3.6462   -6.9848 O.3        1 <1>        0.000
      2 P1          3.0609    3.1930   -5.6000 P.3        1 <1>        0.000
      3 O5          3.3940    1.6757   -5.3669 O.3        1 <1>        0.000
      4 O6          3.6492    3.9948   -4.5432 O.2        1 <1>        0.000
      5 O7          1.5039    3.3532   -5.6412 O.3        1 <1>        0.000
      6 P2          4.7684    1.1596   -4.7904 P.3        1 <1>        0.000
      7 O8          4.6178    0.8421   -3.2688 O.3        1 <1>        0.000
      8 O15         0.8991   -1.1262   -1.1821 O.3        1 <1>        0.000
      9 O9          5.7880    2.1397   -5.1025 O.2        1 <1>        0.000
     10 O10         5.0820   -0.2428   -5.4562 O.3        1 <1>        0.000
     11 P3          3.7194   -0.2907   -2.7356 P.3        1 <1>        0.000
     12 O11         3.3567   -0.3845   -1.2406 O.3        1 <1>        0.000
     13 O12         2.4406   -0.2695   -3.4787 O.2        1 <1>        0.000
     14 O13         4.4808   -1.6885   -3.0364 O.3        1 <1>        0.000
     15 P4          2.3739   -1.4731   -0.7032 P.3        1 <1>        0.000
     16 O14         2.7536   -2.8035   -1.4962 O.3        1 <1>        0.000
     17 O16         2.5026   -1.6967    0.7113 O.2        1 <1>        0.000
     18 H           3.2770    3.1188   -7.6881 H.spc      1 <1>        0.000
     19 H           1.1463    2.8119   -6.3488 H.spc      1 <1>        0.000
     20 H           0.8958   -0.9917   -2.1326 H.spc      1 <1>        0.000
     21 H           4.3880   -0.8660   -5.2290 H.spc      1 <1>        0.000
     22 H           5.3121   -1.7085   -2.5567 H.spc      1 <1>        0.000
     23 H           2.6659   -2.6485   -2.4395 H.spc      1 <1>        0.000
@<TRIPOS>BOND
     1    7   11 1  
     2   11   12 1  
     3    2    3 1  
     4   15   16 1  
     5    1    2 1  
     6   11   14 1  
     7    6    9 2  
     8   15   17 2  
     9    2    5 1  
    10   15    8 1  
    11    6   10 1  
    12   12   15 1  
    13    6    7 1  
    14    2    4 2  
    15    3    6 1  
    16   11   13 2  
    17    1   18 1  
    18    5   19 1  
    19    8   20 1  
    20   10   21 1  
    21   14   22 1  
    22   16   23 1  
# Name:          frag3-253-4/96164 -- energy: -4.511793
# Creation time: Sat Jun  5 12:53:21 2010


@<TRIPOS>MOLECULE
frag3-253-4/96164 -- energy: -4.511793
   23    22     1     1     1
SMALL
USER_CHARGES


@<TRIPOS>ATOM
      1 O4          4.1166    2.3596   -7.8611 O.3        1 <1>        0.000
      2 P1          4.0062    2.6834   -6.3455 P.3        1 <1>        0.000
      3 O5          3.9980    1.4099   -5.4211 O.3        1 <1>        0.000
      4 O6          5.0694    3.5873   -5.9468 O.2        1 <1>        0.000
      5 O7          2.5903    3.3393   -6.0577 O.3        1 <1>        0.000
      6 P2          4.0873    1.4657   -3.8422 P.3        1 <1>        0.000
      7 O8          3.7485    0.1169   -3.1586 O.3        1 <1>        0.000
      8 O15         3.5300   -0.2293   -0.3652 O.3        1 <1>        0.000
      9 O9          3.1231    2.4783   -3.3913 O.2        1 <1>        0.000
     10 O10         5.5566    1.9066   -3.5456 O.3        1 <1>        0.000
     11 P3          2.2883   -0.4716   -3.0467 P.3        1 <1>        0.000
     12 O11         2.2185   -1.6191   -2.0138 O.3        1 <1>        0.000
     13 O12         1.4344    0.6198   -2.5986 O.2        1 <1>        0.000
     14 O13         1.9253   -1.0275   -4.4714 O.3        1 <1>        0.000
     15 P4          3.2507   -1.7349   -0.8554 P.3        1 <1>        0.000
     16 O14         2.6610   -2.4833    0.3629 O.3        1 <1>        0.000
     17 O16         4.4498   -2.3723   -1.3570 O.2        1 <1>        0.000
     18 H           3.4086    1.7617   -8.1118 H.spc      1 <1>        0.000
     19 H           1.8970    2.7317   -6.3257 H.spc      1 <1>        0.000
     20 H           2.7132    0.1572   -0.0410 H.spc      1 <1>        0.000
     21 H           6.1614    1.2264   -3.8508 H.spc      1 <1>        0.000
     22 H           2.5269   -1.7404   -4.6983 H.spc      1 <1>        0.000
     23 H           1.8701   -2.0298    0.6635 H.spc      1 <1>        0.000
@<TRIPOS>BOND
     1    7   11 1  
     2   11   12 1  
     3    2    3 1  
     4   15   16 1  
     5    1    2 1  
     6   11   14 1  
     7    6    9 2  
     8   15   17 2  
     9    2    5 1  
    10   15    8 1  
    11    6   10 1  
    12   12   15 1  
    13    6    7 1  
    14    2    4 2  
    15    3    6 1  
    16   11   13 2  
    17    1   18 1  
    18    5   19 1  
    19    8   20 1  
    20   10   21 1  
    21   14   22 1  
    22   16   23 1  
# Name:          frag3-253-4/96164 -- energy: -3.410894
# Creation time: Sat Jun  5 12:53:21 2010


@<TRIPOS>MOLECULE
frag3-253-4/96164 -- energy: -3.410894
   23    22     1     1     1
SMALL
USER_CHARGES


@<TRIPOS>ATOM
      1 O4          2.2312    1.0868   -0.6081 O.3        1 <1>        0.000
      2 P1          2.6973   -0.3220   -1.0864 P.3        1 <1>        0.000
      3 O5          2.0785   -0.7002   -2.4840 O.3        1 <1>        0.000
      4 O6          4.1440   -0.3331   -1.1960 O.2        1 <1>        0.000
      5 O7          2.2118   -1.3951   -0.0499 O.3        1 <1>        0.000
      6 P2          2.8704   -1.4131   -3.6333 P.3        1 <1>        0.000
      7 O8          4.2547   -0.6487   -3.7682 O.3        1 <1>        0.000
      8 O15         2.3521    4.1236   -4.3990 O.3        1 <1>        0.000
      9 O9          2.2201   -1.3611   -4.9263 O.2        1 <1>        0.000
     10 O10         3.1814   -2.8651   -3.1547 O.3        1 <1>        0.000
     11 P3          4.4633    0.6274   -4.6022 P.3        1 <1>        0.000
     12 O11         3.3134    1.6901   -4.3611 O.3        1 <1>        0.000
     13 O12         5.6958    1.3285   -4.3604 O.2        1 <1>        0.000
     14 O13         4.2500    0.2022   -6.1242 O.3        1 <1>        0.000
     15 P4          3.5162    3.1667   -4.8372 P.3        1 <1>        0.000
     16 O14         4.7968    3.6928   -4.0698 O.3        1 <1>        0.000
     17 O16         3.7770    3.1492   -6.2544 O.2        1 <1>        0.000
     18 H           1.2741    1.0980   -0.5344 H.spc      1 <1>        0.000
     19 H           1.2538   -1.3720    0.0080 H.spc      1 <1>        0.000
     20 H           2.2428    4.0774   -3.4464 H.spc      1 <1>        0.000
     21 H           3.6099   -2.8330   -2.2962 H.spc      1 <1>        0.000
     22 H           3.4124   -0.2586   -6.2122 H.spc      1 <1>        0.000
     23 H           4.6210    3.7037   -3.1261 H.spc      1 <1>        0.000
@<TRIPOS>BOND
     1    7   11 1  
     2   11   12 1  
     3    2    3 1  
     4   15   16 1  
     5    1    2 1  
     6   11   14 1  
     7    6    9 2  
     8   15   17 2  
     9    2    5 1  
    10   15    8 1  
    11    6   10 1  
    12   12   15 1  
    13    6    7 1  
    14    2    4 2  
    15    3    6 1  
    16   11   13 2  
    17    1   18 1  
    18    5   19 1  
    19    8   20 1  
    20   10   21 1  
    21   14   22 1  
    22   16   23 1  
