#      Rotatable Fragment
#      Build by yxyuan
#
# Name:          frag5-556-53/41815
# Creation time: Sat Jun  5 12:52:53 2010


@<TRIPOS>MOLECULE
frag5-556-53/41815
   15    15     1     1     1
SMALL
USER_CHARGES


@<TRIPOS>ATOM
      1 N1          3.4409    0.0467    1.3103 N.am       1 <1>        0.000
      2 C1          4.2506   -0.6146    0.4463 C.2        1 <1>        0.000
      3 C2          3.8592   -0.7237   -1.0027 C.3        1 <1>        0.000
      4 C3          2.3241   -0.7179   -1.1239 C.3        1 <1>        0.000
      5 C4          1.7845    0.5600   -0.4540 C.3        1 <1>        0.000
      6 C5          2.4904    0.8889    0.8349 C.2        1 <1>        0.000
      7 O1          2.1850    1.9179    1.4259 O.2        1 <1>        0.000
      8 O4          5.3013   -1.1288    0.8120 O.2        1 <1>        0.000
      9 H           3.5467   -0.0892    2.3157 H.spc      1 <1>        0.000
     10 H           4.2519   -1.6530   -1.4153 H.spc      1 <1>        0.000
     11 H           4.2696    0.1225   -1.5538 H.spc      1 <1>        0.000
     12 H           1.9092   -1.5983   -0.6332 H.spc      1 <1>        0.000
     13 H           2.0342   -0.7376   -2.1744 H.spc      1 <1>        0.000
     14 H           0.7316    0.3964   -0.2245 H.spc      1 <1>        0.000
     15 H           1.9447    1.3898   -1.1424 H.spc      1 <1>        0.000
@<TRIPOS>BOND
     1    6    7 2  
     2    1    2 am 
     3    1    6 am 
     4    2    3 1  
     5    2    8 2  
     6    3    4 1  
     7    4    5 1  
     8    5    6 1  
     9    1    9 1  
    10    3   10 1  
    11    3   11 1  
    12    4   12 1  
    13    4   13 1  
    14    5   14 1  
    15    5   15 1  
# Name:          frag5-556-53/41815 -- energy: -0.968379
# Creation time: Sat Jun  5 12:52:53 2010


@<TRIPOS>MOLECULE
frag5-556-53/41815 -- energy: -0.968379
   15    15     1     1     1
SMALL
USER_CHARGES


@<TRIPOS>ATOM
      1 N1          3.4409    0.0467    1.3103 N.am       1 <1>        0.000
      2 C1          4.2506   -0.6146    0.4463 C.2        1 <1>        0.000
      3 C2          3.8592   -0.7237   -1.0027 C.3        1 <1>        0.000
      4 C3          2.3241   -0.7179   -1.1239 C.3        1 <1>        0.000
      5 C4          1.7845    0.5600   -0.4540 C.3        1 <1>        0.000
      6 C5          2.4904    0.8889    0.8349 C.2        1 <1>        0.000
      7 O1          2.1850    1.9179    1.4259 O.2        1 <1>        0.000
      8 O4          5.3013   -1.1288    0.8120 O.2        1 <1>        0.000
      9 H           3.5467   -0.0892    2.3157 H.spc      1 <1>        0.000
     10 H           4.2519   -1.6530   -1.4153 H.spc      1 <1>        0.000
     11 H           4.2696    0.1225   -1.5538 H.spc      1 <1>        0.000
     12 H           1.9092   -1.5983   -0.6332 H.spc      1 <1>        0.000
     13 H           2.0342   -0.7376   -2.1744 H.spc      1 <1>        0.000
     14 H           0.7316    0.3964   -0.2245 H.spc      1 <1>        0.000
     15 H           1.9447    1.3898   -1.1424 H.spc      1 <1>        0.000
@<TRIPOS>BOND
     1    6    7 2  
     2    1    2 am 
     3    1    6 am 
     4    2    3 1  
     5    2    8 2  
     6    3    4 1  
     7    4    5 1  
     8    5    6 1  
     9    1    9 1  
    10    3   10 1  
    11    3   11 1  
    12    4   12 1  
    13    4   13 1  
    14    5   14 1  
    15    5   15 1  
