#      Rotatable Fragment
#      Build by yxyuan
#
# Name:          frag5-608-34/41815
# Creation time: Sat Jun  5 12:52:58 2010


@<TRIPOS>MOLECULE
frag5-608-34/41815
   30    32     1     1     1
SMALL
USER_CHARGES


@<TRIPOS>ATOM
      1 Cl1         4.0051    3.4353   -0.1668 Cl         1 <1>        0.000
      2 C1          2.8779    2.2505    0.4319 C.ar       1 <1>        0.000
      3 C2          2.3470    1.2753   -0.4212 C.ar       1 <1>        0.000
      4 C3          1.4414    0.3144    0.0312 C.ar       1 <1>        0.000
      5 C4          1.0351    0.3338    1.3779 C.ar       1 <1>        0.000
      6 C5          1.5707    1.3007    2.2377 C.ar       1 <1>        0.000
      7 C6          2.4779    2.2496    1.7745 C.ar       1 <1>        0.000
      8 N1          0.1096   -0.6056    1.8788 N.am       1 <1>        0.000
      9 C14         4.2834   -2.0361   -2.2811 C.ar       1 <1>        0.000
     10 C7         -0.9551   -1.0389    1.1648 C.2        1 <1>        0.000
     11 C8         -1.1690   -0.4872   -0.2231 C.3        1 <1>        0.000
     12 N2         -0.2348   -1.1051   -1.1139 N.2        1 <1>        0.000
     13 C9          0.9755   -0.7148   -0.9847 C.2        1 <1>        0.000
     14 C10         2.0083   -1.2940   -1.9062 C.ar       1 <1>        0.000
     15 C11         1.6840   -1.6289   -3.2252 C.ar       1 <1>        0.000
     16 C12         2.6626   -2.1514   -4.0753 C.ar       1 <1>        0.000
     17 C13         3.9605   -2.3592   -3.6016 C.ar       1 <1>        0.000
     18 C15         3.3117   -1.4940   -1.4383 C.ar       1 <1>        0.000
     19 O3         -1.7415   -1.8672    1.5977 O.2        1 <1>        0.000
     20 H           2.6495    1.2663   -1.4683 H.spc      1 <1>        0.000
     21 H           1.2726    1.3105    3.2861 H.spc      1 <1>        0.000
     22 H           2.8792    2.9959    2.4602 H.spc      1 <1>        0.000
     23 H           0.2489   -0.9741    2.8196 H.spc      1 <1>        0.000
     24 H           5.2936   -2.2073   -1.9093 H.spc      1 <1>        0.000
     25 H          -2.1869   -0.6974   -0.5514 H.spc      1 <1>        0.000
     26 H          -1.0171    0.5922   -0.2190 H.spc      1 <1>        0.000
     27 H           0.6674   -1.4822   -3.5902 H.spc      1 <1>        0.000
     28 H           2.4133   -2.3967   -5.1077 H.spc      1 <1>        0.000
     29 H           4.7217   -2.7736   -4.2626 H.spc      1 <1>        0.000
     30 H           3.5688   -1.2259   -0.4135 H.spc      1 <1>        0.000
@<TRIPOS>BOND
     1    5    8 1  
     2    3    4 ar 
     3    4   13 1  
     4    4    5 ar 
     5   16   17 ar 
     6   15   16 ar 
     7    5    6 ar 
     8   17    9 ar 
     9   11   12 1  
    10    6    7 ar 
    11   10   11 1  
    12    1    2 1  
    13   10   19 2  
    14   12   13 2  
    15   14   15 ar 
    16    8   10 am 
    17   14   18 ar 
    18   13   14 1  
    19    9   18 ar 
    20    2    7 ar 
    21    2    3 ar 
    22    3   20 1  
    23    6   21 1  
    24    7   22 1  
    25    8   23 1  
    26    9   24 1  
    27   11   25 1  
    28   11   26 1  
    29   15   27 1  
    30   16   28 1  
    31   17   29 1  
    32   18   30 1  
# Name:          frag5-608-34/41815
# Creation time: Sat Jun  5 12:52:58 2010


@<TRIPOS>MOLECULE
frag5-608-34/41815
   30    32     1     1     1
SMALL
USER_CHARGES


@<TRIPOS>ATOM
      1 Cl1         3.8213    3.5634   -0.3762 Cl         1 <1>        0.000
      2 C1          2.7709    2.3489    0.2978 C.ar       1 <1>        0.000
      3 C2          2.2694    1.3148   -0.5024 C.ar       1 <1>        0.000
      4 C3          1.4255    0.3291    0.0104 C.ar       1 <1>        0.000
      5 C4          1.0518    0.3823    1.3661 C.ar       1 <1>        0.000
      6 C5          1.5587    1.4082    2.1734 C.ar       1 <1>        0.000
      7 C6          2.4049    2.3817    1.6496 C.ar       1 <1>        0.000
      8 N1          0.1877   -0.5812    1.9277 N.am       1 <1>        0.000
      9 C14         3.6679   -3.0329   -2.3747 C.ar       1 <1>        0.000
     10 C7         -0.8711   -1.0950    1.2596 C.2        1 <1>        0.000
     11 C8         -1.1470   -0.6105   -0.1423 C.3        1 <1>        0.000
     12 N2         -0.2046   -1.2168   -1.0333 N.2        1 <1>        0.000
     13 C9          0.9868   -0.7613   -0.9517 C.2        1 <1>        0.000
     14 C10         2.0244   -1.3252   -1.8774 C.ar       1 <1>        0.000
     15 C11         2.3243   -0.6873   -3.0869 C.ar       1 <1>        0.000
     16 C12         3.3064   -1.2138   -3.9303 C.ar       1 <1>        0.000
     17 C13         3.9743   -2.3889   -3.5763 C.ar       1 <1>        0.000
     18 C15         2.7021   -2.4948   -1.5211 C.ar       1 <1>        0.000
     19 O3         -1.6034   -1.9434    1.7451 O.2        1 <1>        0.000
     20 H           2.5463    1.2789   -1.5560 H.spc      1 <1>        0.000
     21 H           1.2865    1.4451    3.2282 H.spc      1 <1>        0.000
     22 H           2.7847    3.1738    2.2949 H.spc      1 <1>        0.000
     23 H           0.3688   -0.9044    2.8780 H.spc      1 <1>        0.000
     24 H           4.1824   -3.9548   -2.1036 H.spc      1 <1>        0.000
     25 H          -2.1608   -0.8837   -0.4349 H.spc      1 <1>        0.000
     26 H          -1.0500    0.4744   -0.1842 H.spc      1 <1>        0.000
     27 H           1.7917    0.2203   -3.3709 H.spc      1 <1>        0.000
     28 H           3.5513   -0.7078   -4.8642 H.spc      1 <1>        0.000
     29 H           4.7349   -2.8035   -4.2379 H.spc      1 <1>        0.000
     30 H           2.4764   -2.9877   -0.5755 H.spc      1 <1>        0.000
@<TRIPOS>BOND
     1    5    8 1  
     2    3    4 ar 
     3    4   13 1  
     4    4    5 ar 
     5   16   17 ar 
     6   15   16 ar 
     7    5    6 ar 
     8   17    9 ar 
     9   11   12 1  
    10    6    7 ar 
    11   10   11 1  
    12    1    2 1  
    13   10   19 2  
    14   12   13 2  
    15   14   15 ar 
    16    8   10 am 
    17   14   18 ar 
    18   13   14 1  
    19    9   18 ar 
    20    2    7 ar 
    21    2    3 ar 
    22    3   20 1  
    23    6   21 1  
    24    7   22 1  
    25    8   23 1  
    26    9   24 1  
    27   11   25 1  
    28   11   26 1  
    29   15   27 1  
    30   16   28 1  
    31   17   29 1  
    32   18   30 1  
# Name:          frag5-608-34/41815 -- energy: -2.791774
# Creation time: Sat Jun  5 12:52:58 2010


@<TRIPOS>MOLECULE
frag5-608-34/41815 -- energy: -2.791774
   30    32     1     1     1
SMALL
USER_CHARGES


@<TRIPOS>ATOM
      1 Cl1         4.0051    3.4353   -0.1668 Cl         1 <1>        0.000
      2 C1          2.8779    2.2505    0.4319 C.ar       1 <1>        0.000
      3 C2          2.3470    1.2753   -0.4212 C.ar       1 <1>        0.000
      4 C3          1.4414    0.3144    0.0312 C.ar       1 <1>        0.000
      5 C4          1.0351    0.3338    1.3779 C.ar       1 <1>        0.000
      6 C5          1.5707    1.3007    2.2377 C.ar       1 <1>        0.000
      7 C6          2.4779    2.2496    1.7745 C.ar       1 <1>        0.000
      8 N1          0.1096   -0.6056    1.8788 N.am       1 <1>        0.000
      9 C14         4.2834   -2.0361   -2.2811 C.ar       1 <1>        0.000
     10 C7         -0.9551   -1.0389    1.1648 C.2        1 <1>        0.000
     11 C8         -1.1690   -0.4872   -0.2231 C.3        1 <1>        0.000
     12 N2         -0.2348   -1.1051   -1.1139 N.2        1 <1>        0.000
     13 C9          0.9755   -0.7148   -0.9847 C.2        1 <1>        0.000
     14 C10         2.0083   -1.2940   -1.9062 C.ar       1 <1>        0.000
     15 C11         1.6840   -1.6289   -3.2252 C.ar       1 <1>        0.000
     16 C12         2.6626   -2.1514   -4.0753 C.ar       1 <1>        0.000
     17 C13         3.9605   -2.3592   -3.6016 C.ar       1 <1>        0.000
     18 C15         3.3117   -1.4940   -1.4383 C.ar       1 <1>        0.000
     19 O3         -1.7415   -1.8672    1.5977 O.2        1 <1>        0.000
     20 H           2.6495    1.2663   -1.4683 H.spc      1 <1>        0.000
     21 H           1.2726    1.3105    3.2861 H.spc      1 <1>        0.000
     22 H           2.8792    2.9959    2.4602 H.spc      1 <1>        0.000
     23 H           0.2489   -0.9741    2.8196 H.spc      1 <1>        0.000
     24 H           5.2936   -2.2073   -1.9093 H.spc      1 <1>        0.000
     25 H          -2.1869   -0.6974   -0.5514 H.spc      1 <1>        0.000
     26 H          -1.0171    0.5922   -0.2190 H.spc      1 <1>        0.000
     27 H           0.6674   -1.4822   -3.5902 H.spc      1 <1>        0.000
     28 H           2.4133   -2.3967   -5.1077 H.spc      1 <1>        0.000
     29 H           4.7217   -2.7736   -4.2626 H.spc      1 <1>        0.000
     30 H           3.5688   -1.2259   -0.4135 H.spc      1 <1>        0.000
@<TRIPOS>BOND
     1    5    8 1  
     2    3    4 ar 
     3    4   13 1  
     4    4    5 ar 
     5   16   17 ar 
     6   15   16 ar 
     7    5    6 ar 
     8   17    9 ar 
     9   11   12 1  
    10    6    7 ar 
    11   10   11 1  
    12    1    2 1  
    13   10   19 2  
    14   12   13 2  
    15   14   15 ar 
    16    8   10 am 
    17   14   18 ar 
    18   13   14 1  
    19    9   18 ar 
    20    2    7 ar 
    21    2    3 ar 
    22    3   20 1  
    23    6   21 1  
    24    7   22 1  
    25    8   23 1  
    26    9   24 1  
    27   11   25 1  
    28   11   26 1  
    29   15   27 1  
    30   16   28 1  
    31   17   29 1  
    32   18   30 1  
# Name:          frag5-608-34/41815 -- energy: -2.755449
# Creation time: Sat Jun  5 12:52:58 2010


@<TRIPOS>MOLECULE
frag5-608-34/41815 -- energy: -2.755449
   30    32     1     1     1
SMALL
USER_CHARGES


@<TRIPOS>ATOM
      1 Cl1         3.8213    3.5634   -0.3762 Cl         1 <1>        0.000
      2 C1          2.7709    2.3489    0.2978 C.ar       1 <1>        0.000
      3 C2          2.2694    1.3148   -0.5024 C.ar       1 <1>        0.000
      4 C3          1.4255    0.3291    0.0104 C.ar       1 <1>        0.000
      5 C4          1.0518    0.3823    1.3661 C.ar       1 <1>        0.000
      6 C5          1.5587    1.4082    2.1734 C.ar       1 <1>        0.000
      7 C6          2.4049    2.3817    1.6496 C.ar       1 <1>        0.000
      8 N1          0.1877   -0.5812    1.9277 N.am       1 <1>        0.000
      9 C14         3.6679   -3.0329   -2.3747 C.ar       1 <1>        0.000
     10 C7         -0.8711   -1.0950    1.2596 C.2        1 <1>        0.000
     11 C8         -1.1470   -0.6105   -0.1423 C.3        1 <1>        0.000
     12 N2         -0.2046   -1.2168   -1.0333 N.2        1 <1>        0.000
     13 C9          0.9868   -0.7613   -0.9517 C.2        1 <1>        0.000
     14 C10         2.0244   -1.3252   -1.8774 C.ar       1 <1>        0.000
     15 C11         2.3243   -0.6873   -3.0869 C.ar       1 <1>        0.000
     16 C12         3.3064   -1.2138   -3.9303 C.ar       1 <1>        0.000
     17 C13         3.9743   -2.3889   -3.5763 C.ar       1 <1>        0.000
     18 C15         2.7021   -2.4948   -1.5211 C.ar       1 <1>        0.000
     19 O3         -1.6034   -1.9434    1.7451 O.2        1 <1>        0.000
     20 H           2.5463    1.2789   -1.5560 H.spc      1 <1>        0.000
     21 H           1.2865    1.4451    3.2282 H.spc      1 <1>        0.000
     22 H           2.7847    3.1738    2.2949 H.spc      1 <1>        0.000
     23 H           0.3688   -0.9044    2.8780 H.spc      1 <1>        0.000
     24 H           4.1824   -3.9548   -2.1036 H.spc      1 <1>        0.000
     25 H          -2.1608   -0.8837   -0.4349 H.spc      1 <1>        0.000
     26 H          -1.0500    0.4744   -0.1842 H.spc      1 <1>        0.000
     27 H           1.7917    0.2203   -3.3709 H.spc      1 <1>        0.000
     28 H           3.5513   -0.7078   -4.8642 H.spc      1 <1>        0.000
     29 H           4.7349   -2.8035   -4.2379 H.spc      1 <1>        0.000
     30 H           2.4764   -2.9877   -0.5755 H.spc      1 <1>        0.000
@<TRIPOS>BOND
     1    5    8 1  
     2    3    4 ar 
     3    4   13 1  
     4    4    5 ar 
     5   16   17 ar 
     6   15   16 ar 
     7    5    6 ar 
     8   17    9 ar 
     9   11   12 1  
    10    6    7 ar 
    11   10   11 1  
    12    1    2 1  
    13   10   19 2  
    14   12   13 2  
    15   14   15 ar 
    16    8   10 am 
    17   14   18 ar 
    18   13   14 1  
    19    9   18 ar 
    20    2    7 ar 
    21    2    3 ar 
    22    3   20 1  
    23    6   21 1  
    24    7   22 1  
    25    8   23 1  
    26    9   24 1  
    27   11   25 1  
    28   11   26 1  
    29   15   27 1  
    30   16   28 1  
    31   17   29 1  
    32   18   30 1  
