#      Rotatable Fragment
#      Build by yxyuan
#
# Name:          frag3-195-9/96164
# Creation time: Sat Jun  5 12:53:09 2010


@<TRIPOS>MOLECULE
frag3-195-9/96164
    6     5     1     1     1
SMALL
USER_CHARGES


@<TRIPOS>ATOM
      1 C20         0.7301   -0.1589   -0.1396 C.2        1 <1>        0.000
      2 C21        -0.4499    0.3071    0.2333 C.2        1 <1>        0.000
      3 I1         -2.2237   -0.6145   -0.3545 I          1 <1>        0.000
      4 H           0.7913   -1.0461   -0.7699 H.spc      1 <1>        0.000
      5 H           1.6416    0.3442    0.1833 H.spc      1 <1>        0.000
      6 H          -0.4957    1.1952    0.8637 H.spc      1 <1>        0.000
@<TRIPOS>BOND
     1    1    2 2  
     2    2    3 1  
     3    1    4 1  
     4    1    5 1  
     5    2    6 1  
# Name:          frag3-195-9/96164 -- energy: -0.141276
# Creation time: Sat Jun  5 12:53:09 2010


@<TRIPOS>MOLECULE
frag3-195-9/96164 -- energy: -0.141276
    6     5     1     1     1
SMALL
USER_CHARGES


@<TRIPOS>ATOM
      1 C20         0.7301   -0.1589   -0.1396 C.2        1 <1>        0.000
      2 C21        -0.4499    0.3071    0.2333 C.2        1 <1>        0.000
      3 I1         -2.2237   -0.6145   -0.3545 I          1 <1>        0.000
      4 H           0.7913   -1.0461   -0.7699 H.spc      1 <1>        0.000
      5 H           1.6416    0.3442    0.1833 H.spc      1 <1>        0.000
      6 H          -0.4957    1.1952    0.8637 H.spc      1 <1>        0.000
@<TRIPOS>BOND
     1    1    2 2  
     2    2    3 1  
     3    1    4 1  
     4    1    5 1  
     5    2    6 1  
