#      Rotatable Fragment
#      Build by yxyuan
#
# Name:          frag3-219-4/31924
# Creation time: Sat Jun  5 12:52:21 2010


@<TRIPOS>MOLECULE
frag3-219-4/31924
   10     9     1     1     1
SMALL
USER_CHARGES


@<TRIPOS>ATOM
      1 O3         -0.5652   -1.6621   -0.2317 O.3        1 <1>        0.000
      2 C7         -0.3814   -0.3132   -0.1588 C.2        1 <1>        0.000
      3 C8         -1.3440    0.5994   -0.0707 C.2        1 <1>        0.000
      4 C9          0.9544    0.3422    0.0048 C.2        1 <1>        0.000
      5 O4          1.2524    1.4315   -0.4565 O.2        1 <1>        0.000
      6 O5          1.8084   -0.3866    0.7625 O.3        1 <1>        0.000
      7 H           0.2885   -2.0977   -0.2878 H.spc      1 <1>        0.000
      8 H          -1.0892    1.6458    0.0975 H.spc      1 <1>        0.000
      9 H          -2.3880    0.3013   -0.1667 H.spc      1 <1>        0.000
     10 H           1.3827   -1.2064    1.0238 H.spc      1 <1>        0.000
@<TRIPOS>BOND
     1    1    2 1  
     2    2    3 2  
     3    2    4 1  
     4    4    5 2  
     5    4    6 1  
     6    1    7 1  
     7    3    8 1  
     8    3    9 1  
     9    6   10 1  
# Name:          frag3-219-4/31924
# Creation time: Sat Jun  5 12:52:21 2010


@<TRIPOS>MOLECULE
frag3-219-4/31924
   10     9     1     1     1
SMALL
USER_CHARGES


@<TRIPOS>ATOM
      1 O3         -0.6550   -1.5294    0.3885 O.3        1 <1>        0.000
      2 C7         -0.4100   -0.2901   -0.1141 C.2        1 <1>        0.000
      3 C8         -1.2955    0.4791   -0.7757 C.2        1 <1>        0.000
      4 C9          0.9572    0.3391    0.0732 C.2        1 <1>        0.000
      5 O4          1.1399    1.5360    0.2337 O.2        1 <1>        0.000
      6 O5          1.9881   -0.5237    0.0441 O.3        1 <1>        0.000
      7 H           0.1382   -1.8636    0.8136 H.spc      1 <1>        0.000
      8 H          -1.0022    1.4681   -1.1277 H.spc      1 <1>        0.000
      9 H          -2.3055    0.1127   -0.9592 H.spc      1 <1>        0.000
     10 H           1.6551   -1.4140   -0.0900 H.spc      1 <1>        0.000
@<TRIPOS>BOND
     1    1    2 1  
     2    2    3 2  
     3    2    4 1  
     4    4    5 2  
     5    4    6 1  
     6    1    7 1  
     7    3    8 1  
     8    3    9 1  
     9    6   10 1  
# Name:          frag3-219-4/31924
# Creation time: Sat Jun  5 12:52:21 2010


@<TRIPOS>MOLECULE
frag3-219-4/31924
   10     9     1     1     1
SMALL
USER_CHARGES


@<TRIPOS>ATOM
      1 O3         -0.6517   -1.2152   -1.1068 O.3        1 <1>        0.000
      2 C7         -0.4079   -0.3074   -0.1226 C.2        1 <1>        0.000
      3 C8         -1.2872    0.1068    0.8175 C.2        1 <1>        0.000
      4 C9          0.9834    0.3098   -0.0158 C.2        1 <1>        0.000
      5 O4          1.6955    0.5608   -0.9695 O.2        1 <1>        0.000
      6 O5          1.3924    0.5564    1.2469 O.3        1 <1>        0.000
      7 H           0.1395   -1.3296   -1.6383 H.spc      1 <1>        0.000
      8 H          -0.9773    0.8285    1.5733 H.spc      1 <1>        0.000
      9 H          -2.3059   -0.2811    0.8195 H.spc      1 <1>        0.000
     10 H           0.7029    0.2959    1.8620 H.spc      1 <1>        0.000
@<TRIPOS>BOND
     1    1    2 1  
     2    2    3 2  
     3    2    4 1  
     4    4    5 2  
     5    4    6 1  
     6    1    7 1  
     7    3    8 1  
     8    3    9 1  
     9    6   10 1  
# Name:          frag3-219-4/31924
# Creation time: Sat Jun  5 12:52:21 2010


@<TRIPOS>MOLECULE
frag3-219-4/31924
   10     9     1     1     1
SMALL
USER_CHARGES


@<TRIPOS>ATOM
      1 O3         -0.6058   -1.3540   -0.9787 O.3        1 <1>        0.000
      2 C7         -0.4012   -0.3262   -0.1075 C.2        1 <1>        0.000
      3 C8         -1.3309    0.2380    0.6962 C.2        1 <1>        0.000
      4 C9          1.0001    0.2593    0.0177 C.2        1 <1>        0.000
      5 O4          2.0283   -0.3676   -0.1592 O.2        1 <1>        0.000
      6 O5          1.0340    1.5615    0.3813 O.3        1 <1>        0.000
      7 H           0.2180   -1.5622   -1.4254 H.spc      1 <1>        0.000
      8 H          -1.0506    1.0496    1.3677 H.spc      1 <1>        0.000
      9 H          -2.3606   -0.1188    0.6726 H.spc      1 <1>        0.000
     10 H           0.1368    1.8900    0.4746 H.spc      1 <1>        0.000
@<TRIPOS>BOND
     1    1    2 1  
     2    2    3 2  
     3    2    4 1  
     4    4    5 2  
     5    4    6 1  
     6    1    7 1  
     7    3    8 1  
     8    3    9 1  
     9    6   10 1  
# Name:          frag3-219-4/31924 -- energy: 0.342355
# Creation time: Sat Jun  5 12:52:21 2010


@<TRIPOS>MOLECULE
frag3-219-4/31924 -- energy: 0.342355
   10     9     1     1     1
SMALL
USER_CHARGES


@<TRIPOS>ATOM
      1 O3         -0.5652   -1.6621   -0.2317 O.3        1 <1>        0.000
      2 C7         -0.3814   -0.3132   -0.1588 C.2        1 <1>        0.000
      3 C8         -1.3440    0.5994   -0.0707 C.2        1 <1>        0.000
      4 C9          0.9544    0.3422    0.0048 C.2        1 <1>        0.000
      5 O4          1.2524    1.4315   -0.4565 O.2        1 <1>        0.000
      6 O5          1.8084   -0.3866    0.7625 O.3        1 <1>        0.000
      7 H           0.2885   -2.0977   -0.2878 H.spc      1 <1>        0.000
      8 H          -1.0892    1.6458    0.0975 H.spc      1 <1>        0.000
      9 H          -2.3880    0.3013   -0.1667 H.spc      1 <1>        0.000
     10 H           1.3827   -1.2064    1.0238 H.spc      1 <1>        0.000
@<TRIPOS>BOND
     1    1    2 1  
     2    2    3 2  
     3    2    4 1  
     4    4    5 2  
     5    4    6 1  
     6    1    7 1  
     7    3    8 1  
     8    3    9 1  
     9    6   10 1  
# Name:          frag3-219-4/31924 -- energy: 0.613073
# Creation time: Sat Jun  5 12:52:21 2010


@<TRIPOS>MOLECULE
frag3-219-4/31924 -- energy: 0.613073
   10     9     1     1     1
SMALL
USER_CHARGES


@<TRIPOS>ATOM
      1 O3         -0.6550   -1.5294    0.3885 O.3        1 <1>        0.000
      2 C7         -0.4100   -0.2901   -0.1141 C.2        1 <1>        0.000
      3 C8         -1.2955    0.4791   -0.7757 C.2        1 <1>        0.000
      4 C9          0.9572    0.3391    0.0732 C.2        1 <1>        0.000
      5 O4          1.1399    1.5360    0.2337 O.2        1 <1>        0.000
      6 O5          1.9881   -0.5237    0.0441 O.3        1 <1>        0.000
      7 H           0.1382   -1.8636    0.8136 H.spc      1 <1>        0.000
      8 H          -1.0022    1.4681   -1.1277 H.spc      1 <1>        0.000
      9 H          -2.3055    0.1127   -0.9592 H.spc      1 <1>        0.000
     10 H           1.6551   -1.4140   -0.0900 H.spc      1 <1>        0.000
@<TRIPOS>BOND
     1    1    2 1  
     2    2    3 2  
     3    2    4 1  
     4    4    5 2  
     5    4    6 1  
     6    1    7 1  
     7    3    8 1  
     8    3    9 1  
     9    6   10 1  
# Name:          frag3-219-4/31924 -- energy: 1.629202
# Creation time: Sat Jun  5 12:52:21 2010


@<TRIPOS>MOLECULE
frag3-219-4/31924 -- energy: 1.629202
   10     9     1     1     1
SMALL
USER_CHARGES


@<TRIPOS>ATOM
      1 O3         -0.6517   -1.2152   -1.1068 O.3        1 <1>        0.000
      2 C7         -0.4079   -0.3074   -0.1226 C.2        1 <1>        0.000
      3 C8         -1.2872    0.1068    0.8175 C.2        1 <1>        0.000
      4 C9          0.9834    0.3098   -0.0158 C.2        1 <1>        0.000
      5 O4          1.6955    0.5608   -0.9695 O.2        1 <1>        0.000
      6 O5          1.3924    0.5564    1.2469 O.3        1 <1>        0.000
      7 H           0.1395   -1.3296   -1.6383 H.spc      1 <1>        0.000
      8 H          -0.9773    0.8285    1.5733 H.spc      1 <1>        0.000
      9 H          -2.3059   -0.2811    0.8195 H.spc      1 <1>        0.000
     10 H           0.7029    0.2959    1.8620 H.spc      1 <1>        0.000
@<TRIPOS>BOND
     1    1    2 1  
     2    2    3 2  
     3    2    4 1  
     4    4    5 2  
     5    4    6 1  
     6    1    7 1  
     7    3    8 1  
     8    3    9 1  
     9    6   10 1  
# Name:          frag3-219-4/31924 -- energy: 2.825576
# Creation time: Sat Jun  5 12:52:21 2010


@<TRIPOS>MOLECULE
frag3-219-4/31924 -- energy: 2.825576
   10     9     1     1     1
SMALL
USER_CHARGES


@<TRIPOS>ATOM
      1 O3         -0.6058   -1.3540   -0.9787 O.3        1 <1>        0.000
      2 C7         -0.4012   -0.3262   -0.1075 C.2        1 <1>        0.000
      3 C8         -1.3309    0.2380    0.6962 C.2        1 <1>        0.000
      4 C9          1.0001    0.2593    0.0177 C.2        1 <1>        0.000
      5 O4          2.0283   -0.3676   -0.1592 O.2        1 <1>        0.000
      6 O5          1.0340    1.5615    0.3813 O.3        1 <1>        0.000
      7 H           0.2180   -1.5622   -1.4254 H.spc      1 <1>        0.000
      8 H          -1.0506    1.0496    1.3677 H.spc      1 <1>        0.000
      9 H          -2.3606   -0.1188    0.6726 H.spc      1 <1>        0.000
     10 H           0.1368    1.8900    0.4746 H.spc      1 <1>        0.000
@<TRIPOS>BOND
     1    1    2 1  
     2    2    3 2  
     3    2    4 1  
     4    4    5 2  
     5    4    6 1  
     6    1    7 1  
     7    3    8 1  
     8    3    9 1  
     9    6   10 1  
