#      Rotatable Fragment
#      Build by yxyuan
#
# Name:          frag4-342-139/48856
# Creation time: Sat Jun  5 12:53:00 2010


@<TRIPOS>MOLECULE
frag4-342-139/48856
   15    15     1     1     1
SMALL
USER_CHARGES


@<TRIPOS>ATOM
      1 C11         2.9163    2.4881   -1.4675 C.3        1 <1>        0.000
      2 C12         4.0166    3.5042   -1.3416 C.3        1 <1>        0.000
      3 C13         3.5212    4.7100   -2.1149 C.3        1 <1>        0.000
      4 C14         2.6941    4.0534   -3.1797 C.3        1 <1>        0.000
      5 C15         2.4465    2.6001   -2.9044 C.3        1 <1>        0.000
      6 H           2.1079    2.6764   -0.7609 H.spc      1 <1>        0.000
      7 H           3.2645    1.4824   -1.2322 H.spc      1 <1>        0.000
      8 H           4.9614    3.1298   -1.7357 H.spc      1 <1>        0.000
      9 H           4.2260    3.7483   -0.3001 H.spc      1 <1>        0.000
     10 H           4.3204    5.3398   -2.5056 H.spc      1 <1>        0.000
     11 H           2.9669    5.4245   -1.5064 H.spc      1 <1>        0.000
     12 H           3.2387    4.1282   -4.1209 H.spc      1 <1>        0.000
     13 H           1.7283    4.5576   -3.2125 H.spc      1 <1>        0.000
     14 H           1.4105    2.2955   -3.0526 H.spc      1 <1>        0.000
     15 H           2.9648    1.9290   -3.5893 H.spc      1 <1>        0.000
@<TRIPOS>BOND
     1    1    2 1  
     2    1    5 1  
     3    2    3 1  
     4    3    4 1  
     5    4    5 1  
     6    1    6 1  
     7    1    7 1  
     8    2    8 1  
     9    2    9 1  
    10    3   10 1  
    11    3   11 1  
    12    4   12 1  
    13    4   13 1  
    14    5   14 1  
    15    5   15 1  
# Name:          frag4-342-139/48856 -- energy: -1.017649
# Creation time: Sat Jun  5 12:53:00 2010


@<TRIPOS>MOLECULE
frag4-342-139/48856 -- energy: -1.017649
   15    15     1     1     1
SMALL
USER_CHARGES


@<TRIPOS>ATOM
      1 C11         2.9163    2.4881   -1.4675 C.3        1 <1>        0.000
      2 C12         4.0166    3.5042   -1.3416 C.3        1 <1>        0.000
      3 C13         3.5212    4.7100   -2.1149 C.3        1 <1>        0.000
      4 C14         2.6941    4.0534   -3.1797 C.3        1 <1>        0.000
      5 C15         2.4465    2.6001   -2.9044 C.3        1 <1>        0.000
      6 H           2.1079    2.6764   -0.7609 H.spc      1 <1>        0.000
      7 H           3.2645    1.4824   -1.2322 H.spc      1 <1>        0.000
      8 H           4.9614    3.1298   -1.7357 H.spc      1 <1>        0.000
      9 H           4.2260    3.7483   -0.3001 H.spc      1 <1>        0.000
     10 H           4.3204    5.3398   -2.5056 H.spc      1 <1>        0.000
     11 H           2.9669    5.4245   -1.5064 H.spc      1 <1>        0.000
     12 H           3.2387    4.1282   -4.1209 H.spc      1 <1>        0.000
     13 H           1.7283    4.5576   -3.2125 H.spc      1 <1>        0.000
     14 H           1.4105    2.2955   -3.0526 H.spc      1 <1>        0.000
     15 H           2.9648    1.9290   -3.5893 H.spc      1 <1>        0.000
@<TRIPOS>BOND
     1    1    2 1  
     2    1    5 1  
     3    2    3 1  
     4    3    4 1  
     5    4    5 1  
     6    1    6 1  
     7    1    7 1  
     8    2    8 1  
     9    2    9 1  
    10    3   10 1  
    11    3   11 1  
    12    4   12 1  
    13    4   13 1  
    14    5   14 1  
    15    5   15 1  
