#      Rotatable Fragment
#      Build by yxyuan
#
# Name:          frag2-076-4/319335
# Creation time: Sat Jun  5 12:51:58 2010


@<TRIPOS>MOLECULE
frag2-076-4/319335
   30    33     1     1     1
SMALL
USER_CHARGES


@<TRIPOS>ATOM
      1 C1         -1.3519    0.3313    0.1054 C.ar       1 <1>        0.000
      2 C2         -0.1571   -0.3237   -0.2440 C.ar       1 <1>        0.000
      3 C3         -2.5088   -0.4414    0.3298 C.ar       1 <1>        0.000
      4 C4         -1.3218    1.7347    0.1933 C.ar       1 <1>        0.000
      5 C5         -0.0186   -1.7004   -0.0036 C.ar       1 <1>        0.000
      6 C6          0.8836    0.4150   -0.8292 C.ar       1 <1>        0.000
      7 C7         -2.4248   -1.8328    0.1631 C.ar       1 <1>        0.000
      8 C8         -3.7635    0.0750    0.7019 C.ar       1 <1>        0.000
      9 C17         1.3261   -3.7255    0.1897 C.ar       1 <1>        0.000
     10 C9         -0.1936    2.4644   -0.1934 C.ar       1 <1>        0.000
     11 C10        -1.1727   -2.4600    0.2304 C.ar       1 <1>        0.000
     12 C11         1.2300   -2.3421    0.0298 C.ar       1 <1>        0.000
     13 C12         0.8998    1.8071   -0.7545 C.ar       1 <1>        0.000
     14 C13        -3.5921   -2.5741   -0.0678 C.ar       1 <1>        0.000
     15 C14        -4.9167   -0.7159    0.6718 C.ar       1 <1>        0.000
     16 C16        -1.0557   -3.8234    0.5427 C.ar       1 <1>        0.000
     17 C18        -4.8449   -2.0285    0.2122 C.ar       1 <1>        0.000
     18 C20         0.1799   -4.4678    0.4714 C.ar       1 <1>        0.000
     19 H          -2.1964    2.2646    0.5708 H.spc      1 <1>        0.000
     20 H           1.6883   -0.1060   -1.3480 H.spc      1 <1>        0.000
     21 H          -3.8386    1.1146    1.0208 H.spc      1 <1>        0.000
     22 H           2.2915   -4.2225    0.0949 H.spc      1 <1>        0.000
     23 H          -0.1692    3.5455   -0.0563 H.spc      1 <1>        0.000
     24 H           2.1396   -1.7499   -0.0708 H.spc      1 <1>        0.000
     25 H           1.7535    2.3721   -1.1288 H.spc      1 <1>        0.000
     26 H          -3.5201   -3.5849   -0.4693 H.spc      1 <1>        0.000
     27 H          -5.8693   -0.3059    1.0073 H.spc      1 <1>        0.000
     28 H          -1.9398   -4.3850    0.8443 H.spc      1 <1>        0.000
     29 H          -5.7509   -2.6186    0.0738 H.spc      1 <1>        0.000
     30 H           0.2485   -5.5433    0.6347 H.spc      1 <1>        0.000
@<TRIPOS>BOND
     1   16   18 ar 
     2    5   11 ar 
     3    3    8 ar 
     4    2    6 ar 
     5    3    7 ar 
     6   15   17 ar 
     7   14   17 ar 
     8    9   18 ar 
     9    5   12 ar 
    10    7   11 ar 
    11    8   15 ar 
    12    6   13 ar 
    13    7   14 ar 
    14   11   16 ar 
    15    4   10 ar 
    16    1    2 ar 
    17    2    5 ar 
    18   10   13 ar 
    19   12    9 ar 
    20    1    4 ar 
    21    1    3 ar 
    22    4   19 1  
    23    6   20 1  
    24    8   21 1  
    25    9   22 1  
    26   10   23 1  
    27   12   24 1  
    28   13   25 1  
    29   14   26 1  
    30   15   27 1  
    31   16   28 1  
    32   17   29 1  
    33   18   30 1  
# Name:          frag2-076-4/319335 -- energy: -1.404449
# Creation time: Sat Jun  5 12:51:58 2010


@<TRIPOS>MOLECULE
frag2-076-4/319335 -- energy: -1.404449
   30    33     1     1     1
SMALL
USER_CHARGES


@<TRIPOS>ATOM
      1 C1         -1.3519    0.3313    0.1054 C.ar       1 <1>        0.000
      2 C2         -0.1571   -0.3237   -0.2440 C.ar       1 <1>        0.000
      3 C3         -2.5088   -0.4414    0.3298 C.ar       1 <1>        0.000
      4 C4         -1.3218    1.7347    0.1933 C.ar       1 <1>        0.000
      5 C5         -0.0186   -1.7004   -0.0036 C.ar       1 <1>        0.000
      6 C6          0.8836    0.4150   -0.8292 C.ar       1 <1>        0.000
      7 C7         -2.4248   -1.8328    0.1631 C.ar       1 <1>        0.000
      8 C8         -3.7635    0.0750    0.7019 C.ar       1 <1>        0.000
      9 C17         1.3261   -3.7255    0.1897 C.ar       1 <1>        0.000
     10 C9         -0.1936    2.4644   -0.1934 C.ar       1 <1>        0.000
     11 C10        -1.1727   -2.4600    0.2304 C.ar       1 <1>        0.000
     12 C11         1.2300   -2.3421    0.0298 C.ar       1 <1>        0.000
     13 C12         0.8998    1.8071   -0.7545 C.ar       1 <1>        0.000
     14 C13        -3.5921   -2.5741   -0.0678 C.ar       1 <1>        0.000
     15 C14        -4.9167   -0.7159    0.6718 C.ar       1 <1>        0.000
     16 C16        -1.0557   -3.8234    0.5427 C.ar       1 <1>        0.000
     17 C18        -4.8449   -2.0285    0.2122 C.ar       1 <1>        0.000
     18 C20         0.1799   -4.4678    0.4714 C.ar       1 <1>        0.000
     19 H          -2.1964    2.2646    0.5708 H.spc      1 <1>        0.000
     20 H           1.6883   -0.1060   -1.3480 H.spc      1 <1>        0.000
     21 H          -3.8386    1.1146    1.0208 H.spc      1 <1>        0.000
     22 H           2.2915   -4.2225    0.0949 H.spc      1 <1>        0.000
     23 H          -0.1692    3.5455   -0.0563 H.spc      1 <1>        0.000
     24 H           2.1396   -1.7499   -0.0708 H.spc      1 <1>        0.000
     25 H           1.7535    2.3721   -1.1288 H.spc      1 <1>        0.000
     26 H          -3.5201   -3.5849   -0.4693 H.spc      1 <1>        0.000
     27 H          -5.8693   -0.3059    1.0073 H.spc      1 <1>        0.000
     28 H          -1.9398   -4.3850    0.8443 H.spc      1 <1>        0.000
     29 H          -5.7509   -2.6186    0.0738 H.spc      1 <1>        0.000
     30 H           0.2485   -5.5433    0.6347 H.spc      1 <1>        0.000
@<TRIPOS>BOND
     1   16   18 ar 
     2    5   11 ar 
     3    3    8 ar 
     4    2    6 ar 
     5    3    7 ar 
     6   15   17 ar 
     7   14   17 ar 
     8    9   18 ar 
     9    5   12 ar 
    10    7   11 ar 
    11    8   15 ar 
    12    6   13 ar 
    13    7   14 ar 
    14   11   16 ar 
    15    4   10 ar 
    16    1    2 ar 
    17    2    5 ar 
    18   10   13 ar 
    19   12    9 ar 
    20    1    4 ar 
    21    1    3 ar 
    22    4   19 1  
    23    6   20 1  
    24    8   21 1  
    25    9   22 1  
    26   10   23 1  
    27   12   24 1  
    28   13   25 1  
    29   14   26 1  
    30   15   27 1  
    31   16   28 1  
    32   17   29 1  
    33   18   30 1  
