#      Rotatable Fragment
#      Build by yxyuan
#
# Name:          frag4-419-52/48856
# Creation time: Sat Jun  5 12:52:04 2010


@<TRIPOS>MOLECULE
frag4-419-52/48856
   38    41     1     1     1
SMALL
USER_CHARGES


@<TRIPOS>ATOM
      1 C1         -4.0255    0.3351    1.6875 C.3        1 <1>        0.000
      2 C2         -2.5784    0.4560    2.2409 C.3        1 <1>        0.000
      3 C3         -1.9251   -0.9459    2.3602 C.3        1 <1>        0.000
      4 C4         -0.4326   -0.8759    2.5752 C.2        1 <1>        0.000
      5 C5          0.3106    0.2242    2.3819 C.2        1 <1>        0.000
      6 C6         -0.2908    1.5328    1.9306 C.3        1 <1>        0.000
      7 C7         -1.7085    1.3523    1.3241 C.3        1 <1>        0.000
      8 C8          0.6237    2.2654    0.9108 C.3        1 <1>        0.000
      9 C9          2.0835    2.3505    1.3724 C.ar       1 <1>        0.000
     10 C10         2.6380    1.3304    2.1527 C.ar       1 <1>        0.000
     11 C11         3.9971    1.3675    2.4883 C.ar       1 <1>        0.000
     12 C12         4.7948    2.4380    2.0733 C.ar       1 <1>        0.000
     13 C13         4.2288    3.4851    1.3430 C.ar       1 <1>        0.000
     14 C14         2.8757    3.4406    0.9956 C.ar       1 <1>        0.000
     15 C15         1.7663    0.1870    2.6194 C.3        1 <1>        0.000
     16 C16        -2.1544   -1.7727    1.1218 C.3        1 <1>        0.000
     17 C17        -3.1921   -1.4178    0.1426 C.2        1 <1>        0.000
     18 C18        -4.0691   -0.4403    0.3951 C.2        1 <1>        0.000
     19 H          -4.4040    1.3394    1.4969 H.spc      1 <1>        0.000
     20 H          -4.6305   -0.1934    2.4242 H.spc      1 <1>        0.000
     21 H          -2.6367    0.9131    3.2287 H.spc      1 <1>        0.000
     22 H          -2.4008   -1.4055    3.2266 H.spc      1 <1>        0.000
     23 H           0.0756   -1.7802    2.9101 H.spc      1 <1>        0.000
     24 H          -0.3795    2.1461    2.8273 H.spc      1 <1>        0.000
     25 H          -1.6186    0.8786    0.3465 H.spc      1 <1>        0.000
     26 H          -2.1817    2.3298    1.2309 H.spc      1 <1>        0.000
     27 H           0.6016    1.7012   -0.0215 H.spc      1 <1>        0.000
     28 H           0.2498    3.2832    0.7994 H.spc      1 <1>        0.000
     29 H           4.4343    0.5594    3.0748 H.spc      1 <1>        0.000
     30 H           5.8565    2.4553    2.3193 H.spc      1 <1>        0.000
     31 H           4.8413    4.3358    1.0443 H.spc      1 <1>        0.000
     32 H           2.4350    4.2600    0.4278 H.spc      1 <1>        0.000
     33 H           2.1140   -0.6723    2.0459 H.spc      1 <1>        0.000
     34 H           1.8655    0.1943    3.7049 H.spc      1 <1>        0.000
     35 H          -2.4816   -2.7373    1.5098 H.spc      1 <1>        0.000
     36 H          -1.2238   -1.6694    0.5638 H.spc      1 <1>        0.000
     37 H          -3.2474   -1.9588   -0.8021 H.spc      1 <1>        0.000
     38 H          -4.8299   -0.1996   -0.3475 H.spc      1 <1>        0.000
@<TRIPOS>BOND
     1    5   15 1  
     2    8    9 1  
     3    1    2 1  
     4    5    6 1  
     5    4    5 2  
     6    1   18 1  
     7    6    8 1  
     8    3    4 1  
     9    6    7 1  
    10    2    7 1  
    11    3   16 1  
    12    2    3 1  
    13   17   18 2  
    14   16   17 1  
    15   13   14 ar 
    16   12   13 ar 
    17   10   15 1  
    18   10   11 ar 
    19    9   14 ar 
    20   11   12 ar 
    21    9   10 ar 
    22    1   19 1  
    23    1   20 1  
    24    2   21 1  
    25    3   22 1  
    26    4   23 1  
    27    6   24 1  
    28    7   25 1  
    29    7   26 1  
    30    8   27 1  
    31    8   28 1  
    32   11   29 1  
    33   12   30 1  
    34   13   31 1  
    35   14   32 1  
    36   15   33 1  
    37   15   34 1  
    38   16   35 1  
    39   16   36 1  
    40   17   37 1  
    41   18   38 1  
# Name:          frag4-419-52/48856 -- energy: -5.085521
# Creation time: Sat Jun  5 12:52:04 2010


@<TRIPOS>MOLECULE
frag4-419-52/48856 -- energy: -5.085521
   38    41     1     1     1
SMALL
USER_CHARGES


@<TRIPOS>ATOM
      1 C1         -4.0255    0.3351    1.6875 C.3        1 <1>        0.000
      2 C2         -2.5784    0.4560    2.2409 C.3        1 <1>        0.000
      3 C3         -1.9251   -0.9459    2.3602 C.3        1 <1>        0.000
      4 C4         -0.4326   -0.8759    2.5752 C.2        1 <1>        0.000
      5 C5          0.3106    0.2242    2.3819 C.2        1 <1>        0.000
      6 C6         -0.2908    1.5328    1.9306 C.3        1 <1>        0.000
      7 C7         -1.7085    1.3523    1.3241 C.3        1 <1>        0.000
      8 C8          0.6237    2.2654    0.9108 C.3        1 <1>        0.000
      9 C9          2.0835    2.3505    1.3724 C.ar       1 <1>        0.000
     10 C10         2.6380    1.3304    2.1527 C.ar       1 <1>        0.000
     11 C11         3.9971    1.3675    2.4883 C.ar       1 <1>        0.000
     12 C12         4.7948    2.4380    2.0733 C.ar       1 <1>        0.000
     13 C13         4.2288    3.4851    1.3430 C.ar       1 <1>        0.000
     14 C14         2.8757    3.4406    0.9956 C.ar       1 <1>        0.000
     15 C15         1.7663    0.1870    2.6194 C.3        1 <1>        0.000
     16 C16        -2.1544   -1.7727    1.1218 C.3        1 <1>        0.000
     17 C17        -3.1921   -1.4178    0.1426 C.2        1 <1>        0.000
     18 C18        -4.0691   -0.4403    0.3951 C.2        1 <1>        0.000
     19 H          -4.4040    1.3394    1.4969 H.spc      1 <1>        0.000
     20 H          -4.6305   -0.1934    2.4242 H.spc      1 <1>        0.000
     21 H          -2.6367    0.9131    3.2287 H.spc      1 <1>        0.000
     22 H          -2.4008   -1.4055    3.2266 H.spc      1 <1>        0.000
     23 H           0.0756   -1.7802    2.9101 H.spc      1 <1>        0.000
     24 H          -0.3795    2.1461    2.8273 H.spc      1 <1>        0.000
     25 H          -1.6186    0.8786    0.3465 H.spc      1 <1>        0.000
     26 H          -2.1817    2.3298    1.2309 H.spc      1 <1>        0.000
     27 H           0.6016    1.7012   -0.0215 H.spc      1 <1>        0.000
     28 H           0.2498    3.2832    0.7994 H.spc      1 <1>        0.000
     29 H           4.4343    0.5594    3.0748 H.spc      1 <1>        0.000
     30 H           5.8565    2.4553    2.3193 H.spc      1 <1>        0.000
     31 H           4.8413    4.3358    1.0443 H.spc      1 <1>        0.000
     32 H           2.4350    4.2600    0.4278 H.spc      1 <1>        0.000
     33 H           2.1140   -0.6723    2.0459 H.spc      1 <1>        0.000
     34 H           1.8655    0.1943    3.7049 H.spc      1 <1>        0.000
     35 H          -2.4816   -2.7373    1.5098 H.spc      1 <1>        0.000
     36 H          -1.2238   -1.6694    0.5638 H.spc      1 <1>        0.000
     37 H          -3.2474   -1.9588   -0.8021 H.spc      1 <1>        0.000
     38 H          -4.8299   -0.1996   -0.3475 H.spc      1 <1>        0.000
@<TRIPOS>BOND
     1    5   15 1  
     2    8    9 1  
     3    1    2 1  
     4    5    6 1  
     5    4    5 2  
     6    1   18 1  
     7    6    8 1  
     8    3    4 1  
     9    6    7 1  
    10    2    7 1  
    11    3   16 1  
    12    2    3 1  
    13   17   18 2  
    14   16   17 1  
    15   13   14 ar 
    16   12   13 ar 
    17   10   15 1  
    18   10   11 ar 
    19    9   14 ar 
    20   11   12 ar 
    21    9   10 ar 
    22    1   19 1  
    23    1   20 1  
    24    2   21 1  
    25    3   22 1  
    26    4   23 1  
    27    6   24 1  
    28    7   25 1  
    29    7   26 1  
    30    8   27 1  
    31    8   28 1  
    32   11   29 1  
    33   12   30 1  
    34   13   31 1  
    35   14   32 1  
    36   15   33 1  
    37   15   34 1  
    38   16   35 1  
    39   16   36 1  
    40   17   37 1  
    41   18   38 1  
