#      Rotatable Fragment
#      Build by yxyuan
#
# Name:          frag4-361-331/150395
# Creation time: Sat Jun  5 12:53:32 2010


@<TRIPOS>MOLECULE
frag4-361-331/150395
   25    26     1     1     1
SMALL
USER_CHARGES


@<TRIPOS>ATOM
      1 C1         -0.9935    1.1249    0.3559 C.3        1 <1>        0.000
      2 C2         -1.0349   -0.1796   -0.4090 C.3        1 <1>        0.000
      3 C3          0.3879    1.6236    0.0757 C.3        1 <1>        0.000
      4 C4         -2.2217    2.0015    0.2396 C.3        1 <1>        0.000
      5 C6         -2.3073   -0.8688   -0.0677 C.3        1 <1>        0.000
      6 C7          0.3014   -0.8134   -0.1008 C.3        1 <1>        0.000
      7 C8          1.2458    0.3709    0.0487 C.3        1 <1>        0.000
      8 C10        -3.4492    1.2294    0.6958 C.3        1 <1>        0.000
      9 C12        -3.5956   -0.2146    0.3098 C.3        1 <1>        0.000
     10 H          -1.1129    1.0541    1.4370 H.spc      1 <1>        0.000
     11 H          -1.0998   -0.1556   -1.4968 H.spc      1 <1>        0.000
     12 H           0.4407    2.1754   -0.8629 H.spc      1 <1>        0.000
     13 H           0.7264    2.3346    0.8294 H.spc      1 <1>        0.000
     14 H          -2.3516    2.3045   -0.7994 H.spc      1 <1>        0.000
     15 H          -2.0962    2.8835    0.8677 H.spc      1 <1>        0.000
     16 H          -2.5667   -1.3381   -1.0167 H.spc      1 <1>        0.000
     17 H          -2.0404   -1.3823    0.8560 H.spc      1 <1>        0.000
     18 H           0.6224   -1.5012   -0.8831 H.spc      1 <1>        0.000
     19 H           0.2683   -1.4309    0.7968 H.spc      1 <1>        0.000
     20 H           1.9534    0.4063   -0.7796 H.spc      1 <1>        0.000
     21 H           1.8303    0.2844    0.9647 H.spc      1 <1>        0.000
     22 H          -4.2884    1.7321    0.2150 H.spc      1 <1>        0.000
     23 H          -3.3839    1.2211    1.7838 H.spc      1 <1>        0.000
     24 H          -3.9889   -0.7454    1.1768 H.spc      1 <1>        0.000
     25 H          -4.2489   -0.2543   -0.5618 H.spc      1 <1>        0.000
@<TRIPOS>BOND
     1    1    4 1  
     2    1    2 1  
     3    5    9 1  
     4    4    8 1  
     5    2    5 1  
     6    2    6 1  
     7    6    7 1  
     8    8    9 1  
     9    3    7 1  
    10    1    3 1  
    11    1   10 1  
    12    2   11 1  
    13    3   12 1  
    14    3   13 1  
    15    4   14 1  
    16    4   15 1  
    17    5   16 1  
    18    5   17 1  
    19    6   18 1  
    20    6   19 1  
    21    7   20 1  
    22    7   21 1  
    23    8   22 1  
    24    8   23 1  
    25    9   24 1  
    26    9   25 1  
# Name:          frag4-361-331/150395 -- energy: -2.766321
# Creation time: Sat Jun  5 12:53:32 2010


@<TRIPOS>MOLECULE
frag4-361-331/150395 -- energy: -2.766321
   25    26     1     1     1
SMALL
USER_CHARGES


@<TRIPOS>ATOM
      1 C1         -0.9935    1.1249    0.3559 C.3        1 <1>        0.000
      2 C2         -1.0349   -0.1796   -0.4090 C.3        1 <1>        0.000
      3 C3          0.3879    1.6236    0.0757 C.3        1 <1>        0.000
      4 C4         -2.2217    2.0015    0.2396 C.3        1 <1>        0.000
      5 C6         -2.3073   -0.8688   -0.0677 C.3        1 <1>        0.000
      6 C7          0.3014   -0.8134   -0.1008 C.3        1 <1>        0.000
      7 C8          1.2458    0.3709    0.0487 C.3        1 <1>        0.000
      8 C10        -3.4492    1.2294    0.6958 C.3        1 <1>        0.000
      9 C12        -3.5956   -0.2146    0.3098 C.3        1 <1>        0.000
     10 H          -1.1129    1.0541    1.4370 H.spc      1 <1>        0.000
     11 H          -1.0998   -0.1556   -1.4968 H.spc      1 <1>        0.000
     12 H           0.4407    2.1754   -0.8629 H.spc      1 <1>        0.000
     13 H           0.7264    2.3346    0.8294 H.spc      1 <1>        0.000
     14 H          -2.3516    2.3045   -0.7994 H.spc      1 <1>        0.000
     15 H          -2.0962    2.8835    0.8677 H.spc      1 <1>        0.000
     16 H          -2.5667   -1.3381   -1.0167 H.spc      1 <1>        0.000
     17 H          -2.0404   -1.3823    0.8560 H.spc      1 <1>        0.000
     18 H           0.6224   -1.5012   -0.8831 H.spc      1 <1>        0.000
     19 H           0.2683   -1.4309    0.7968 H.spc      1 <1>        0.000
     20 H           1.9534    0.4063   -0.7796 H.spc      1 <1>        0.000
     21 H           1.8303    0.2844    0.9647 H.spc      1 <1>        0.000
     22 H          -4.2884    1.7321    0.2150 H.spc      1 <1>        0.000
     23 H          -3.3839    1.2211    1.7838 H.spc      1 <1>        0.000
     24 H          -3.9889   -0.7454    1.1768 H.spc      1 <1>        0.000
     25 H          -4.2489   -0.2543   -0.5618 H.spc      1 <1>        0.000
@<TRIPOS>BOND
     1    1    4 1  
     2    1    2 1  
     3    5    9 1  
     4    4    8 1  
     5    2    5 1  
     6    2    6 1  
     7    6    7 1  
     8    8    9 1  
     9    3    7 1  
    10    1    3 1  
    11    1   10 1  
    12    2   11 1  
    13    3   12 1  
    14    3   13 1  
    15    4   14 1  
    16    4   15 1  
    17    5   16 1  
    18    5   17 1  
    19    6   18 1  
    20    6   19 1  
    21    7   20 1  
    22    7   21 1  
    23    8   22 1  
    24    8   23 1  
    25    9   24 1  
    26    9   25 1  
