#      Rotatable Fragment
#      Build by yxyuan
#
# Name:          frag2-022-25818/319335
# Creation time: Sat Jun  5 12:53:14 2010


@<TRIPOS>MOLECULE
frag2-022-25818/319335
    4     3     1     1     1
SMALL
USER_CHARGES


@<TRIPOS>ATOM
      1 C7          0.0103    0.0057   -0.0003 C.2        1 <1>        0.000
      2 O3         -1.1016   -0.5063    0.0157 O.2        1 <1>        0.000
      3 H           0.3440    0.6104    0.8429 H.spc      1 <1>        0.000
      4 H           0.6666   -0.1432   -0.8578 H.spc      1 <1>        0.000
@<TRIPOS>BOND
     1    1    2 2  
     2    1    3 1  
     3    1    4 1  
# Name:          frag2-022-25818/319335 -- energy: 0.000000
# Creation time: Sat Jun  5 12:53:14 2010


@<TRIPOS>MOLECULE
frag2-022-25818/319335 -- energy: 0.000000
    4     3     1     1     1
SMALL
USER_CHARGES


@<TRIPOS>ATOM
      1 C7          0.0103    0.0057   -0.0003 C.2        1 <1>        0.000
      2 O3         -1.1016   -0.5063    0.0157 O.2        1 <1>        0.000
      3 H           0.3440    0.6104    0.8429 H.spc      1 <1>        0.000
      4 H           0.6666   -0.1432   -0.8578 H.spc      1 <1>        0.000
@<TRIPOS>BOND
     1    1    2 2  
     2    1    3 1  
     3    1    4 1  
