#      Rotatable Fragment
#      Build by yxyuan
#
# Name:          frag4-315-928/150395
# Creation time: Sat Jun  5 12:53:30 2010


@<TRIPOS>MOLECULE
frag4-315-928/150395
   14    14     1     1     1
SMALL
USER_CHARGES


@<TRIPOS>ATOM
      1 N1         -1.2489   -0.5327    0.2035 N.3        1 <1>        0.000
      2 C1         -0.1977   -1.3027    0.7851 C.3        1 <1>        0.000
      3 C2         -2.3087   -1.3646   -0.1638 C.3        1 <1>        0.000
      4 C3         -0.7614   -2.7173    0.7888 C.3        1 <1>        0.000
      5 C5         -1.9348   -2.7935   -0.1563 C.3        1 <1>        0.000
      6 H          -0.8947   -0.0567   -0.6262 H.spc      1 <1>        0.000
      7 H           0.0742   -0.9564    1.7822 H.spc      1 <1>        0.000
      8 H           0.7369   -1.2246    0.2296 H.spc      1 <1>        0.000
      9 H          -2.6077   -1.1005   -1.1782 H.spc      1 <1>        0.000
     10 H          -3.1129   -1.2236    0.5584 H.spc      1 <1>        0.000
     11 H          -1.0887   -2.9754    1.7960 H.spc      1 <1>        0.000
     12 H           0.0102   -3.4167    0.4671 H.spc      1 <1>        0.000
     13 H          -1.7135   -3.2189   -1.1352 H.spc      1 <1>        0.000
     14 H          -2.7280   -3.4776    0.1452 H.spc      1 <1>        0.000
@<TRIPOS>BOND
     1    1    2 1  
     2    1    3 1  
     3    2    4 1  
     4    3    5 1  
     5    4    5 1  
     6    1    6 1  
     7    2    7 1  
     8    2    8 1  
     9    3    9 1  
    10    3   10 1  
    11    4   11 1  
    12    4   12 1  
    13    5   13 1  
    14    5   14 1  
# Name:          frag4-315-928/150395 -- energy: -0.823103
# Creation time: Sat Jun  5 12:53:30 2010


@<TRIPOS>MOLECULE
frag4-315-928/150395 -- energy: -0.823103
   14    14     1     1     1
SMALL
USER_CHARGES


@<TRIPOS>ATOM
      1 N1         -1.2489   -0.5327    0.2035 N.3        1 <1>        0.000
      2 C1         -0.1977   -1.3027    0.7851 C.3        1 <1>        0.000
      3 C2         -2.3087   -1.3646   -0.1638 C.3        1 <1>        0.000
      4 C3         -0.7614   -2.7173    0.7888 C.3        1 <1>        0.000
      5 C5         -1.9348   -2.7935   -0.1563 C.3        1 <1>        0.000
      6 H          -0.8947   -0.0567   -0.6262 H.spc      1 <1>        0.000
      7 H           0.0742   -0.9564    1.7822 H.spc      1 <1>        0.000
      8 H           0.7369   -1.2246    0.2296 H.spc      1 <1>        0.000
      9 H          -2.6077   -1.1005   -1.1782 H.spc      1 <1>        0.000
     10 H          -3.1129   -1.2236    0.5584 H.spc      1 <1>        0.000
     11 H          -1.0887   -2.9754    1.7960 H.spc      1 <1>        0.000
     12 H           0.0102   -3.4167    0.4671 H.spc      1 <1>        0.000
     13 H          -1.7135   -3.2189   -1.1352 H.spc      1 <1>        0.000
     14 H          -2.7280   -3.4776    0.1452 H.spc      1 <1>        0.000
@<TRIPOS>BOND
     1    1    2 1  
     2    1    3 1  
     3    2    4 1  
     4    3    5 1  
     5    4    5 1  
     6    1    6 1  
     7    2    7 1  
     8    2    8 1  
     9    3    9 1  
    10    3   10 1  
    11    4   11 1  
    12    4   12 1  
    13    5   13 1  
    14    5   14 1  
