#      Rotatable Fragment
#      Build by yxyuan
#
# Name:          frag5-544-197/138278
# Creation time: Sat Jun  5 12:53:42 2010


@<TRIPOS>MOLECULE
frag5-544-197/138278
   14    14     1     1     1
SMALL
USER_CHARGES


@<TRIPOS>ATOM
      1 N1          1.0834   -0.3961    0.1048 N.am       1 <1>        0.000
      2 C1          2.1989    0.0792   -0.7123 C.3        1 <1>        0.000
      3 C2          0.0800    0.4564    0.3658 C.2        1 <1>        0.000
      4 C3          1.2326   -1.7535    0.5955 C.3        1 <1>        0.000
      5 C5          3.4626   -0.4301   -0.0007 C.3        1 <1>        0.000
      6 O1          0.0051    1.5837   -0.1003 O.2        1 <1>        0.000
      7 S1          2.9910   -2.1129    0.4851 S.3        1 <1>        0.000
      8 H           2.1977    1.1654   -0.8030 H.spc      1 <1>        0.000
      9 H           2.1355   -0.2915   -1.7354 H.spc      1 <1>        0.000
     10 H          -0.7151    0.1236    1.0330 H.spc      1 <1>        0.000
     11 H           0.6432   -2.4577    0.0084 H.spc      1 <1>        0.000
     12 H           0.8682   -1.8511    1.6181 H.spc      1 <1>        0.000
     13 H           3.7554    0.1917    0.8453 H.spc      1 <1>        0.000
     14 H           4.3493   -0.4018   -0.6340 H.spc      1 <1>        0.000
@<TRIPOS>BOND
     1    1    2 1  
     2    1    3 am 
     3    1    4 1  
     4    2    5 1  
     5    3    6 2  
     6    4    7 1  
     7    5    7 1  
     8    2    8 1  
     9    2    9 1  
    10    3   10 1  
    11    4   11 1  
    12    4   12 1  
    13    5   13 1  
    14    5   14 1  
# Name:          frag5-544-197/138278
# Creation time: Sat Jun  5 12:53:42 2010


@<TRIPOS>MOLECULE
frag5-544-197/138278
   14    14     1     1     1
SMALL
USER_CHARGES


@<TRIPOS>ATOM
      1 N1          1.1722   -0.2656    0.4358 N.am       1 <1>        0.000
      2 C1          2.4509    0.4184    0.2413 C.3        1 <1>        0.000
      3 C2          0.0187    0.3394    0.1248 C.2        1 <1>        0.000
      4 C3          1.3554   -1.6159    0.9244 C.3        1 <1>        0.000
      5 C5          3.3531   -0.5890   -0.4814 C.3        1 <1>        0.000
      6 O1         -0.0665    1.3704   -0.5258 O.2        1 <1>        0.000
      7 S1          2.7697   -2.2309    0.0190 S.3        1 <1>        0.000
      8 H           2.8840    0.7303    1.1917 H.spc      1 <1>        0.000
      9 H           2.3290    1.3322   -0.3402 H.spc      1 <1>        0.000
     10 H          -0.9062   -0.1184    0.4755 H.spc      1 <1>        0.000
     11 H           0.4698   -2.2314    0.7665 H.spc      1 <1>        0.000
     12 H           1.5169   -1.6423    2.0020 H.spc      1 <1>        0.000
     13 H           4.3999   -0.4438   -0.2147 H.spc      1 <1>        0.000
     14 H           3.2984   -0.4632   -1.5627 H.spc      1 <1>        0.000
@<TRIPOS>BOND
     1    1    2 1  
     2    1    3 am 
     3    1    4 1  
     4    2    5 1  
     5    3    6 2  
     6    4    7 1  
     7    5    7 1  
     8    2    8 1  
     9    2    9 1  
    10    3   10 1  
    11    4   11 1  
    12    4   12 1  
    13    5   13 1  
    14    5   14 1  
# Name:          frag5-544-197/138278
# Creation time: Sat Jun  5 12:53:42 2010


@<TRIPOS>MOLECULE
frag5-544-197/138278
   14    14     1     1     1
SMALL
USER_CHARGES


@<TRIPOS>ATOM
      1 N1          1.2720   -0.1217   -0.2611 N.am       1 <1>        0.000
      2 C1          2.5271   -0.0331   -0.9929 C.3        1 <1>        0.000
      3 C2          0.3969    0.8631   -0.0142 C.2        1 <1>        0.000
      4 C3          1.1122   -1.4300    0.3457 C.3        1 <1>        0.000
      5 C5          3.5690   -0.8073   -0.1730 C.3        1 <1>        0.000
      6 O1         -0.5239    0.7789    0.7847 O.2        1 <1>        0.000
      7 S1          2.7002   -1.8232    1.0489 S.3        1 <1>        0.000
      8 H           2.8288    1.0061   -1.1237 H.spc      1 <1>        0.000
      9 H           2.4256   -0.4563   -1.9922 H.spc      1 <1>        0.000
     10 H           0.5141    1.7988   -0.5609 H.spc      1 <1>        0.000
     11 H           0.8034   -2.1757   -0.3869 H.spc      1 <1>        0.000
     12 H           0.3289   -1.4264    1.1037 H.spc      1 <1>        0.000
     13 H           4.2382   -0.1102    0.3312 H.spc      1 <1>        0.000
     14 H           4.1624   -1.4426   -0.8305 H.spc      1 <1>        0.000
@<TRIPOS>BOND
     1    1    2 1  
     2    1    3 am 
     3    1    4 1  
     4    2    5 1  
     5    3    6 2  
     6    4    7 1  
     7    5    7 1  
     8    2    8 1  
     9    2    9 1  
    10    3   10 1  
    11    4   11 1  
    12    4   12 1  
    13    5   13 1  
    14    5   14 1  
# Name:          frag5-544-197/138278 -- energy: -0.840867
# Creation time: Sat Jun  5 12:53:42 2010


@<TRIPOS>MOLECULE
frag5-544-197/138278 -- energy: -0.840867
   14    14     1     1     1
SMALL
USER_CHARGES


@<TRIPOS>ATOM
      1 N1          1.0834   -0.3961    0.1048 N.am       1 <1>        0.000
      2 C1          2.1989    0.0792   -0.7123 C.3        1 <1>        0.000
      3 C2          0.0800    0.4564    0.3658 C.2        1 <1>        0.000
      4 C3          1.2326   -1.7535    0.5955 C.3        1 <1>        0.000
      5 C5          3.4626   -0.4301   -0.0007 C.3        1 <1>        0.000
      6 O1          0.0051    1.5837   -0.1003 O.2        1 <1>        0.000
      7 S1          2.9910   -2.1129    0.4851 S.3        1 <1>        0.000
      8 H           2.1977    1.1654   -0.8030 H.spc      1 <1>        0.000
      9 H           2.1355   -0.2915   -1.7354 H.spc      1 <1>        0.000
     10 H          -0.7151    0.1236    1.0330 H.spc      1 <1>        0.000
     11 H           0.6432   -2.4577    0.0084 H.spc      1 <1>        0.000
     12 H           0.8682   -1.8511    1.6181 H.spc      1 <1>        0.000
     13 H           3.7554    0.1917    0.8453 H.spc      1 <1>        0.000
     14 H           4.3493   -0.4018   -0.6340 H.spc      1 <1>        0.000
@<TRIPOS>BOND
     1    1    2 1  
     2    1    3 am 
     3    1    4 1  
     4    2    5 1  
     5    3    6 2  
     6    4    7 1  
     7    5    7 1  
     8    2    8 1  
     9    2    9 1  
    10    3   10 1  
    11    4   11 1  
    12    4   12 1  
    13    5   13 1  
    14    5   14 1  
# Name:          frag5-544-197/138278 -- energy: -0.992117
# Creation time: Sat Jun  5 12:53:42 2010


@<TRIPOS>MOLECULE
frag5-544-197/138278 -- energy: -0.992117
   14    14     1     1     1
SMALL
USER_CHARGES


@<TRIPOS>ATOM
      1 N1          1.1722   -0.2656    0.4358 N.am       1 <1>        0.000
      2 C1          2.4509    0.4184    0.2413 C.3        1 <1>        0.000
      3 C2          0.0187    0.3394    0.1248 C.2        1 <1>        0.000
      4 C3          1.3554   -1.6159    0.9244 C.3        1 <1>        0.000
      5 C5          3.3531   -0.5890   -0.4814 C.3        1 <1>        0.000
      6 O1         -0.0665    1.3704   -0.5258 O.2        1 <1>        0.000
      7 S1          2.7697   -2.2309    0.0190 S.3        1 <1>        0.000
      8 H           2.8840    0.7303    1.1917 H.spc      1 <1>        0.000
      9 H           2.3290    1.3322   -0.3402 H.spc      1 <1>        0.000
     10 H          -0.9062   -0.1184    0.4755 H.spc      1 <1>        0.000
     11 H           0.4698   -2.2314    0.7665 H.spc      1 <1>        0.000
     12 H           1.5169   -1.6423    2.0020 H.spc      1 <1>        0.000
     13 H           4.3999   -0.4438   -0.2147 H.spc      1 <1>        0.000
     14 H           3.2984   -0.4632   -1.5627 H.spc      1 <1>        0.000
@<TRIPOS>BOND
     1    1    2 1  
     2    1    3 am 
     3    1    4 1  
     4    2    5 1  
     5    3    6 2  
     6    4    7 1  
     7    5    7 1  
     8    2    8 1  
     9    2    9 1  
    10    3   10 1  
    11    4   11 1  
    12    4   12 1  
    13    5   13 1  
    14    5   14 1  
# Name:          frag5-544-197/138278 -- energy: -0.960364
# Creation time: Sat Jun  5 12:53:42 2010


@<TRIPOS>MOLECULE
frag5-544-197/138278 -- energy: -0.960364
   14    14     1     1     1
SMALL
USER_CHARGES


@<TRIPOS>ATOM
      1 N1          1.2720   -0.1217   -0.2611 N.am       1 <1>        0.000
      2 C1          2.5271   -0.0331   -0.9929 C.3        1 <1>        0.000
      3 C2          0.3969    0.8631   -0.0142 C.2        1 <1>        0.000
      4 C3          1.1122   -1.4300    0.3457 C.3        1 <1>        0.000
      5 C5          3.5690   -0.8073   -0.1730 C.3        1 <1>        0.000
      6 O1         -0.5239    0.7789    0.7847 O.2        1 <1>        0.000
      7 S1          2.7002   -1.8232    1.0489 S.3        1 <1>        0.000
      8 H           2.8288    1.0061   -1.1237 H.spc      1 <1>        0.000
      9 H           2.4256   -0.4563   -1.9922 H.spc      1 <1>        0.000
     10 H           0.5141    1.7988   -0.5609 H.spc      1 <1>        0.000
     11 H           0.8034   -2.1757   -0.3869 H.spc      1 <1>        0.000
     12 H           0.3289   -1.4264    1.1037 H.spc      1 <1>        0.000
     13 H           4.2382   -0.1102    0.3312 H.spc      1 <1>        0.000
     14 H           4.1624   -1.4426   -0.8305 H.spc      1 <1>        0.000
@<TRIPOS>BOND
     1    1    2 1  
     2    1    3 am 
     3    1    4 1  
     4    2    5 1  
     5    3    6 2  
     6    4    7 1  
     7    5    7 1  
     8    2    8 1  
     9    2    9 1  
    10    3   10 1  
    11    4   11 1  
    12    4   12 1  
    13    5   13 1  
    14    5   14 1  
