#      Rotatable Fragment
#      Build by yxyuan
#
# Name:          frag4-455-109/150395
# Creation time: Sat Jun  5 12:53:37 2010


@<TRIPOS>MOLECULE
frag4-455-109/150395
   14    14     1     1     1
SMALL
USER_CHARGES


@<TRIPOS>ATOM
      1 C5         -1.2411   -0.3581   -0.0576 C.3        1 <1>        0.000
      2 N2         -0.9125    1.0101    0.2026 N.3        1 <1>        0.000
      3 N3         -0.1783   -1.3295    0.0366 N.pl3      1 <1>        0.000
      4 C10         0.4297    1.3869    0.0065 C.3        1 <1>        0.000
      5 C11         1.1160   -0.9176   -0.0151 C.2        1 <1>        0.000
      6 C12         1.5127    0.3815   -0.0589 C.2        1 <1>        0.000
      7 H          -1.5733   -0.3872   -1.0953 H.spc      1 <1>        0.000
      8 H          -1.9620   -0.6374    0.7108 H.spc      1 <1>        0.000
      9 H          -1.1048    1.1616    1.1928 H.spc      1 <1>        0.000
     10 H          -0.3972   -2.3202    0.1415 H.spc      1 <1>        0.000
     11 H           0.6690    1.9699    0.8958 H.spc      1 <1>        0.000
     12 H           0.4315    1.8365   -0.9865 H.spc      1 <1>        0.000
     13 H           1.8911   -1.6839   -0.0219 H.spc      1 <1>        0.000
     14 H           2.5624    0.6646   -0.1373 H.spc      1 <1>        0.000
@<TRIPOS>BOND
     1    1    2 1  
     2    1    3 1  
     3    2    4 1  
     4    3    5 1  
     5    4    6 1  
     6    5    6 2  
     7    1    7 1  
     8    1    8 1  
     9    2    9 1  
    10    3   10 1  
    11    4   11 1  
    12    4   12 1  
    13    5   13 1  
    14    6   14 1  
# Name:          frag4-455-109/150395 -- energy: -0.506280
# Creation time: Sat Jun  5 12:53:37 2010


@<TRIPOS>MOLECULE
frag4-455-109/150395 -- energy: -0.506280
   14    14     1     1     1
SMALL
USER_CHARGES


@<TRIPOS>ATOM
      1 C5         -1.2411   -0.3581   -0.0576 C.3        1 <1>        0.000
      2 N2         -0.9125    1.0101    0.2026 N.3        1 <1>        0.000
      3 N3         -0.1783   -1.3295    0.0366 N.pl3      1 <1>        0.000
      4 C10         0.4297    1.3869    0.0065 C.3        1 <1>        0.000
      5 C11         1.1160   -0.9176   -0.0151 C.2        1 <1>        0.000
      6 C12         1.5127    0.3815   -0.0589 C.2        1 <1>        0.000
      7 H          -1.5733   -0.3872   -1.0953 H.spc      1 <1>        0.000
      8 H          -1.9620   -0.6374    0.7108 H.spc      1 <1>        0.000
      9 H          -1.1048    1.1616    1.1928 H.spc      1 <1>        0.000
     10 H          -0.3972   -2.3202    0.1415 H.spc      1 <1>        0.000
     11 H           0.6690    1.9699    0.8958 H.spc      1 <1>        0.000
     12 H           0.4315    1.8365   -0.9865 H.spc      1 <1>        0.000
     13 H           1.8911   -1.6839   -0.0219 H.spc      1 <1>        0.000
     14 H           2.5624    0.6646   -0.1373 H.spc      1 <1>        0.000
@<TRIPOS>BOND
     1    1    2 1  
     2    1    3 1  
     3    2    4 1  
     4    3    5 1  
     5    4    6 1  
     6    5    6 2  
     7    1    7 1  
     8    1    8 1  
     9    2    9 1  
    10    3   10 1  
    11    4   11 1  
    12    4   12 1  
    13    5   13 1  
    14    6   14 1  
