#      Rotatable Fragment
#      Build by yxyuan
#
# Name:          frag3-149-25/96164
# Creation time: Sat Jun  5 12:53:05 2010


@<TRIPOS>MOLECULE
frag3-149-25/96164
   14    13     1     1     1
SMALL
USER_CHARGES


@<TRIPOS>ATOM
      1 C3         -2.4791    3.1094    0.2762 C.2        1 <1>        0.000
      2 C5         -2.3785    1.7782    0.2998 C.2        1 <1>        0.000
      3 C7         -3.5133    0.8743    0.0777 C.2        1 <1>        0.000
      4 C8         -3.5095   -0.4660    0.1526 C.2        1 <1>        0.000
      5 C11        -2.3747   -1.3398    0.4674 C.2        1 <1>        0.000
      6 C12        -2.4458   -2.6733    0.4501 C.2        1 <1>        0.000
      7 H          -3.4434    3.5798    0.0840 H.spc      1 <1>        0.000
      8 H          -1.5969    3.7258    0.4491 H.spc      1 <1>        0.000
      9 H          -1.4002    1.3388    0.4946 H.spc      1 <1>        0.000
     10 H          -4.4641    1.3430   -0.1761 H.spc      1 <1>        0.000
     11 H          -4.4600   -0.9623   -0.0433 H.spc      1 <1>        0.000
     12 H          -1.4233   -0.8767    0.7292 H.spc      1 <1>        0.000
     13 H          -3.3834   -3.1658    0.1921 H.spc      1 <1>        0.000
     14 H          -1.5663   -3.2692    0.6939 H.spc      1 <1>        0.000
@<TRIPOS>BOND
     1    1    2 2  
     2    2    3 1  
     3    3    4 2  
     4    4    5 1  
     5    5    6 2  
     6    1    7 1  
     7    1    8 1  
     8    2    9 1  
     9    3   10 1  
    10    4   11 1  
    11    5   12 1  
    12    6   13 1  
    13    6   14 1  
# Name:          frag3-149-25/96164
# Creation time: Sat Jun  5 12:53:06 2010


@<TRIPOS>MOLECULE
frag3-149-25/96164
   14    13     1     1     1
SMALL
USER_CHARGES


@<TRIPOS>ATOM
      1 C3         -2.1891   -2.3770    0.5628 C.2        1 <1>        0.000
      2 C5         -2.3440   -1.0521    0.5156 C.2        1 <1>        0.000
      3 C7         -3.6163   -0.3930    0.2014 C.2        1 <1>        0.000
      4 C8         -3.8057    0.8989   -0.1214 C.2        1 <1>        0.000
      5 C11        -2.7855    1.9461   -0.2203 C.2        1 <1>        0.000
      6 C12        -1.9603    2.2599    0.7857 C.2        1 <1>        0.000
      7 H          -3.0365   -3.0323    0.3614 H.spc      1 <1>        0.000
      8 H          -1.2152   -2.8036    0.8028 H.spc      1 <1>        0.000
      9 H          -1.4767   -0.4249    0.7220 H.spc      1 <1>        0.000
     10 H          -4.5074   -1.0200    0.2331 H.spc      1 <1>        0.000
     11 H          -4.8317    1.2002   -0.3328 H.spc      1 <1>        0.000
     12 H          -2.6943    2.4954   -1.1573 H.spc      1 <1>        0.000
     13 H          -2.0294    1.7267    1.7338 H.spc      1 <1>        0.000
     14 H          -1.2191    3.0487    0.6568 H.spc      1 <1>        0.000
@<TRIPOS>BOND
     1    1    2 2  
     2    2    3 1  
     3    3    4 2  
     4    4    5 1  
     5    5    6 2  
     6    1    7 1  
     7    1    8 1  
     8    2    9 1  
     9    3   10 1  
    10    4   11 1  
    11    5   12 1  
    12    6   13 1  
    13    6   14 1  
# Name:          frag3-149-25/96164
# Creation time: Sat Jun  5 12:53:06 2010


@<TRIPOS>MOLECULE
frag3-149-25/96164
   14    13     1     1     1
SMALL
USER_CHARGES


@<TRIPOS>ATOM
      1 C3         -1.8019    1.8082    0.7879 C.2        1 <1>        0.000
      2 C5         -2.6351    1.6657   -0.2478 C.2        1 <1>        0.000
      3 C7         -3.8391    0.8287   -0.2130 C.2        1 <1>        0.000
      4 C8         -3.9299   -0.4291    0.2695 C.2        1 <1>        0.000
      5 C11        -2.8528   -1.2398    0.8442 C.2        1 <1>        0.000
      6 C12        -1.6421   -1.3508    0.2829 C.2        1 <1>        0.000
      7 H          -2.0015    1.2862    1.7237 H.spc      1 <1>        0.000
      8 H          -0.9230    2.4464    0.6965 H.spc      1 <1>        0.000
      9 H          -2.4070    2.2013   -1.1693 H.spc      1 <1>        0.000
     10 H          -4.7521    1.2659   -0.6172 H.spc      1 <1>        0.000
     11 H          -4.9150   -0.8937    0.2268 H.spc      1 <1>        0.000
     12 H          -3.0463   -1.7778    1.7722 H.spc      1 <1>        0.000
     13 H          -1.4213   -0.8237   -0.6453 H.spc      1 <1>        0.000
     14 H          -0.8774   -1.9683    0.7542 H.spc      1 <1>        0.000
@<TRIPOS>BOND
     1    1    2 2  
     2    2    3 1  
     3    3    4 2  
     4    4    5 1  
     5    5    6 2  
     6    1    7 1  
     7    1    8 1  
     8    2    9 1  
     9    3   10 1  
    10    4   11 1  
    11    5   12 1  
    12    6   13 1  
    13    6   14 1  
# Name:          frag3-149-25/96164
# Creation time: Sat Jun  5 12:53:06 2010


@<TRIPOS>MOLECULE
frag3-149-25/96164
   14    13     1     1     1
SMALL
USER_CHARGES


@<TRIPOS>ATOM
      1 C3         -1.6525    1.7787    0.1704 C.2        1 <1>        0.000
      2 C5         -2.8681    1.7061    0.7219 C.2        1 <1>        0.000
      3 C7         -3.9418    0.8465    0.2126 C.2        1 <1>        0.000
      4 C8         -3.8273   -0.4458   -0.1619 C.2        1 <1>        0.000
      5 C11        -2.6191   -1.2746   -0.1354 C.2        1 <1>        0.000
      6 C12        -1.7919   -1.3281    0.9162 C.2        1 <1>        0.000
      7 H          -1.4156    1.1778   -0.7076 H.spc      1 <1>        0.000
      8 H          -0.8983    2.4388    0.5987 H.spc      1 <1>        0.000
      9 H          -3.0727    2.3200    1.5990 H.spc      1 <1>        0.000
     10 H          -4.9313    1.2958    0.1279 H.spc      1 <1>        0.000
     11 H          -4.7358   -0.9266   -0.5247 H.spc      1 <1>        0.000
     12 H          -2.3826   -1.8760   -1.0132 H.spc      1 <1>        0.000
     13 H          -2.0041   -0.7371    1.8072 H.spc      1 <1>        0.000
     14 H          -0.9063   -1.9626    0.8813 H.spc      1 <1>        0.000
@<TRIPOS>BOND
     1    1    2 2  
     2    2    3 1  
     3    3    4 2  
     4    4    5 1  
     5    5    6 2  
     6    1    7 1  
     7    1    8 1  
     8    2    9 1  
     9    3   10 1  
    10    4   11 1  
    11    5   12 1  
    12    6   13 1  
    13    6   14 1  
# Name:          frag3-149-25/96164
# Creation time: Sat Jun  5 12:53:06 2010


@<TRIPOS>MOLECULE
frag3-149-25/96164
   14    13     1     1     1
SMALL
USER_CHARGES


@<TRIPOS>ATOM
      1 C3         -2.1894   -2.2855    0.7105 C.2        1 <1>        0.000
      2 C5         -2.3094   -1.1056    0.0976 C.2        1 <1>        0.000
      3 C7         -3.5866   -0.4062   -0.0763 C.2        1 <1>        0.000
      4 C8         -3.8500    0.8838    0.2021 C.2        1 <1>        0.000
      5 C11        -2.9205    1.8850    0.7309 C.2        1 <1>        0.000
      6 C12        -1.8450    2.3114    0.0589 C.2        1 <1>        0.000
      7 H          -3.0716   -2.7818    1.1148 H.spc      1 <1>        0.000
      8 H          -1.2092   -2.7525    0.8066 H.spc      1 <1>        0.000
      9 H          -1.4078   -0.6359   -0.2955 H.spc      1 <1>        0.000
     10 H          -4.4126   -0.9955   -0.4745 H.spc      1 <1>        0.000
     11 H          -4.8690    1.2215    0.0130 H.spc      1 <1>        0.000
     12 H          -3.1143    2.3025    1.7189 H.spc      1 <1>        0.000
     13 H          -1.6269    1.9110   -0.9312 H.spc      1 <1>        0.000
     14 H          -1.1869    3.0591    0.5015 H.spc      1 <1>        0.000
@<TRIPOS>BOND
     1    1    2 2  
     2    2    3 1  
     3    3    4 2  
     4    4    5 1  
     5    5    6 2  
     6    1    7 1  
     7    1    8 1  
     8    2    9 1  
     9    3   10 1  
    10    4   11 1  
    11    5   12 1  
    12    6   13 1  
    13    6   14 1  
# Name:          frag3-149-25/96164 -- energy: -0.925363
# Creation time: Sat Jun  5 12:53:06 2010


@<TRIPOS>MOLECULE
frag3-149-25/96164 -- energy: -0.925363
   14    13     1     1     1
SMALL
USER_CHARGES


@<TRIPOS>ATOM
      1 C3         -2.4791    3.1094    0.2762 C.2        1 <1>        0.000
      2 C5         -2.3785    1.7782    0.2998 C.2        1 <1>        0.000
      3 C7         -3.5133    0.8743    0.0777 C.2        1 <1>        0.000
      4 C8         -3.5095   -0.4660    0.1526 C.2        1 <1>        0.000
      5 C11        -2.3747   -1.3398    0.4674 C.2        1 <1>        0.000
      6 C12        -2.4458   -2.6733    0.4501 C.2        1 <1>        0.000
      7 H          -3.4434    3.5798    0.0840 H.spc      1 <1>        0.000
      8 H          -1.5969    3.7258    0.4491 H.spc      1 <1>        0.000
      9 H          -1.4002    1.3388    0.4946 H.spc      1 <1>        0.000
     10 H          -4.4641    1.3430   -0.1761 H.spc      1 <1>        0.000
     11 H          -4.4600   -0.9623   -0.0433 H.spc      1 <1>        0.000
     12 H          -1.4233   -0.8767    0.7292 H.spc      1 <1>        0.000
     13 H          -3.3834   -3.1658    0.1921 H.spc      1 <1>        0.000
     14 H          -1.5663   -3.2692    0.6939 H.spc      1 <1>        0.000
@<TRIPOS>BOND
     1    1    2 2  
     2    2    3 1  
     3    3    4 2  
     4    4    5 1  
     5    5    6 2  
     6    1    7 1  
     7    1    8 1  
     8    2    9 1  
     9    3   10 1  
    10    4   11 1  
    11    5   12 1  
    12    6   13 1  
    13    6   14 1  
# Name:          frag3-149-25/96164 -- energy: -1.129462
# Creation time: Sat Jun  5 12:53:06 2010


@<TRIPOS>MOLECULE
frag3-149-25/96164 -- energy: -1.129462
   14    13     1     1     1
SMALL
USER_CHARGES


@<TRIPOS>ATOM
      1 C3         -2.1891   -2.3770    0.5628 C.2        1 <1>        0.000
      2 C5         -2.3440   -1.0521    0.5156 C.2        1 <1>        0.000
      3 C7         -3.6163   -0.3930    0.2014 C.2        1 <1>        0.000
      4 C8         -3.8057    0.8989   -0.1214 C.2        1 <1>        0.000
      5 C11        -2.7855    1.9461   -0.2203 C.2        1 <1>        0.000
      6 C12        -1.9603    2.2599    0.7857 C.2        1 <1>        0.000
      7 H          -3.0365   -3.0323    0.3614 H.spc      1 <1>        0.000
      8 H          -1.2152   -2.8036    0.8028 H.spc      1 <1>        0.000
      9 H          -1.4767   -0.4249    0.7220 H.spc      1 <1>        0.000
     10 H          -4.5074   -1.0200    0.2331 H.spc      1 <1>        0.000
     11 H          -4.8317    1.2002   -0.3328 H.spc      1 <1>        0.000
     12 H          -2.6943    2.4954   -1.1573 H.spc      1 <1>        0.000
     13 H          -2.0294    1.7267    1.7338 H.spc      1 <1>        0.000
     14 H          -1.2191    3.0487    0.6568 H.spc      1 <1>        0.000
@<TRIPOS>BOND
     1    1    2 2  
     2    2    3 1  
     3    3    4 2  
     4    4    5 1  
     5    5    6 2  
     6    1    7 1  
     7    1    8 1  
     8    2    9 1  
     9    3   10 1  
    10    4   11 1  
    11    5   12 1  
    12    6   13 1  
    13    6   14 1  
# Name:          frag3-149-25/96164 -- energy: -1.378761
# Creation time: Sat Jun  5 12:53:06 2010


@<TRIPOS>MOLECULE
frag3-149-25/96164 -- energy: -1.378761
   14    13     1     1     1
SMALL
USER_CHARGES


@<TRIPOS>ATOM
      1 C3         -1.8019    1.8082    0.7879 C.2        1 <1>        0.000
      2 C5         -2.6351    1.6657   -0.2478 C.2        1 <1>        0.000
      3 C7         -3.8391    0.8287   -0.2130 C.2        1 <1>        0.000
      4 C8         -3.9299   -0.4291    0.2695 C.2        1 <1>        0.000
      5 C11        -2.8528   -1.2398    0.8442 C.2        1 <1>        0.000
      6 C12        -1.6421   -1.3508    0.2829 C.2        1 <1>        0.000
      7 H          -2.0015    1.2862    1.7237 H.spc      1 <1>        0.000
      8 H          -0.9230    2.4464    0.6965 H.spc      1 <1>        0.000
      9 H          -2.4070    2.2013   -1.1693 H.spc      1 <1>        0.000
     10 H          -4.7521    1.2659   -0.6172 H.spc      1 <1>        0.000
     11 H          -4.9150   -0.8937    0.2268 H.spc      1 <1>        0.000
     12 H          -3.0463   -1.7778    1.7722 H.spc      1 <1>        0.000
     13 H          -1.4213   -0.8237   -0.6453 H.spc      1 <1>        0.000
     14 H          -0.8774   -1.9683    0.7542 H.spc      1 <1>        0.000
@<TRIPOS>BOND
     1    1    2 2  
     2    2    3 1  
     3    3    4 2  
     4    4    5 1  
     5    5    6 2  
     6    1    7 1  
     7    1    8 1  
     8    2    9 1  
     9    3   10 1  
    10    4   11 1  
    11    5   12 1  
    12    6   13 1  
    13    6   14 1  
# Name:          frag3-149-25/96164 -- energy: -1.378147
# Creation time: Sat Jun  5 12:53:06 2010


@<TRIPOS>MOLECULE
frag3-149-25/96164 -- energy: -1.378147
   14    13     1     1     1
SMALL
USER_CHARGES


@<TRIPOS>ATOM
      1 C3         -1.6525    1.7787    0.1704 C.2        1 <1>        0.000
      2 C5         -2.8681    1.7061    0.7219 C.2        1 <1>        0.000
      3 C7         -3.9418    0.8465    0.2126 C.2        1 <1>        0.000
      4 C8         -3.8273   -0.4458   -0.1619 C.2        1 <1>        0.000
      5 C11        -2.6191   -1.2746   -0.1354 C.2        1 <1>        0.000
      6 C12        -1.7919   -1.3281    0.9162 C.2        1 <1>        0.000
      7 H          -1.4156    1.1778   -0.7076 H.spc      1 <1>        0.000
      8 H          -0.8983    2.4388    0.5987 H.spc      1 <1>        0.000
      9 H          -3.0727    2.3200    1.5990 H.spc      1 <1>        0.000
     10 H          -4.9313    1.2958    0.1279 H.spc      1 <1>        0.000
     11 H          -4.7358   -0.9266   -0.5247 H.spc      1 <1>        0.000
     12 H          -2.3826   -1.8760   -1.0132 H.spc      1 <1>        0.000
     13 H          -2.0041   -0.7371    1.8072 H.spc      1 <1>        0.000
     14 H          -0.9063   -1.9626    0.8813 H.spc      1 <1>        0.000
@<TRIPOS>BOND
     1    1    2 2  
     2    2    3 1  
     3    3    4 2  
     4    4    5 1  
     5    5    6 2  
     6    1    7 1  
     7    1    8 1  
     8    2    9 1  
     9    3   10 1  
    10    4   11 1  
    11    5   12 1  
    12    6   13 1  
    13    6   14 1  
# Name:          frag3-149-25/96164 -- energy: -1.132899
# Creation time: Sat Jun  5 12:53:06 2010


@<TRIPOS>MOLECULE
frag3-149-25/96164 -- energy: -1.132899
   14    13     1     1     1
SMALL
USER_CHARGES


@<TRIPOS>ATOM
      1 C3         -2.1894   -2.2855    0.7105 C.2        1 <1>        0.000
      2 C5         -2.3094   -1.1056    0.0976 C.2        1 <1>        0.000
      3 C7         -3.5866   -0.4062   -0.0763 C.2        1 <1>        0.000
      4 C8         -3.8500    0.8838    0.2021 C.2        1 <1>        0.000
      5 C11        -2.9205    1.8850    0.7309 C.2        1 <1>        0.000
      6 C12        -1.8450    2.3114    0.0589 C.2        1 <1>        0.000
      7 H          -3.0716   -2.7818    1.1148 H.spc      1 <1>        0.000
      8 H          -1.2092   -2.7525    0.8066 H.spc      1 <1>        0.000
      9 H          -1.4078   -0.6359   -0.2955 H.spc      1 <1>        0.000
     10 H          -4.4126   -0.9955   -0.4745 H.spc      1 <1>        0.000
     11 H          -4.8690    1.2215    0.0130 H.spc      1 <1>        0.000
     12 H          -3.1143    2.3025    1.7189 H.spc      1 <1>        0.000
     13 H          -1.6269    1.9110   -0.9312 H.spc      1 <1>        0.000
     14 H          -1.1869    3.0591    0.5015 H.spc      1 <1>        0.000
@<TRIPOS>BOND
     1    1    2 2  
     2    2    3 1  
     3    3    4 2  
     4    4    5 1  
     5    5    6 2  
     6    1    7 1  
     7    1    8 1  
     8    2    9 1  
     9    3   10 1  
    10    4   11 1  
    11    5   12 1  
    12    6   13 1  
    13    6   14 1  
