#      Rotatable Fragment
#      Build by yxyuan
#
# Name:          frag2-045-155/319335
# Creation time: Sat Jun  5 12:53:37 2010


@<TRIPOS>MOLECULE
frag2-045-155/319335
    9     9     1     1     1
SMALL
USER_CHARGES


@<TRIPOS>ATOM
      1 C27         0.4665    1.2378   -0.0022 C.ar       1 <1>        0.000
      2 N3          1.3623    0.2262    0.0422 N.ar       1 <1>        0.000
      3 N4         -0.8733    1.0693   -0.0445 N.ar       1 <1>        0.000
      4 C28         0.8386   -1.0220    0.0404 C.ar       1 <1>        0.000
      5 C29        -1.3068   -0.2128   -0.0423 C.ar       1 <1>        0.000
      6 N5         -0.4884   -1.3004   -0.0125 N.ar       1 <1>        0.000
      7 H           0.8510    2.2577   -0.0040 H.spc      1 <1>        0.000
      8 H           1.5314   -1.8624    0.0845 H.spc      1 <1>        0.000
      9 H          -2.3827   -0.3861   -0.0660 H.spc      1 <1>        0.000
@<TRIPOS>BOND
     1    1    2 ar 
     2    1    3 ar 
     3    2    4 ar 
     4    3    5 ar 
     5    4    6 ar 
     6    5    6 ar 
     7    1    7 1  
     8    4    8 1  
     9    5    9 1  
# Name:          frag2-045-155/319335 -- energy: 0.243658
# Creation time: Sat Jun  5 12:53:37 2010


@<TRIPOS>MOLECULE
frag2-045-155/319335 -- energy: 0.243658
    9     9     1     1     1
SMALL
USER_CHARGES


@<TRIPOS>ATOM
      1 C27         0.4665    1.2378   -0.0022 C.ar       1 <1>        0.000
      2 N3          1.3623    0.2262    0.0422 N.ar       1 <1>        0.000
      3 N4         -0.8733    1.0693   -0.0445 N.ar       1 <1>        0.000
      4 C28         0.8386   -1.0220    0.0404 C.ar       1 <1>        0.000
      5 C29        -1.3068   -0.2128   -0.0423 C.ar       1 <1>        0.000
      6 N5         -0.4884   -1.3004   -0.0125 N.ar       1 <1>        0.000
      7 H           0.8510    2.2577   -0.0040 H.spc      1 <1>        0.000
      8 H           1.5314   -1.8624    0.0845 H.spc      1 <1>        0.000
      9 H          -2.3827   -0.3861   -0.0660 H.spc      1 <1>        0.000
@<TRIPOS>BOND
     1    1    2 ar 
     2    1    3 ar 
     3    2    4 ar 
     4    3    5 ar 
     5    4    6 ar 
     6    5    6 ar 
     7    1    7 1  
     8    4    8 1  
     9    5    9 1  
