#      Rotatable Fragment
#      Build by yxyuan
#
# Name:          frag2-061-24/319335
# Creation time: Sat Jun  5 12:53:48 2010


@<TRIPOS>MOLECULE
frag2-061-24/319335
    9     9     1     1     1
SMALL
USER_CHARGES


@<TRIPOS>ATOM
      1 C1          1.1276    0.3058    0.4040 C.ar       1 <1>        0.000
      2 C3          0.7399   -0.6269   -0.5172 C.ar       1 <1>        0.000
      3 N1          0.1919    1.0670    1.0276 N.ar       1 <1>        0.000
      4 N2         -0.5730   -0.7609   -0.7722 N.ar       1 <1>        0.000
      5 N4         -1.0958    0.9046    0.7402 N.ar       1 <1>        0.000
      6 C8         -1.4987   -0.0115   -0.1625 C.ar       1 <1>        0.000
      7 H           2.1841    0.4380    0.6371 H.spc      1 <1>        0.000
      8 H           1.4757   -1.2453   -1.0312 H.spc      1 <1>        0.000
      9 H          -2.5568   -0.1393   -0.3911 H.spc      1 <1>        0.000
@<TRIPOS>BOND
     1    1    2 ar 
     2    1    3 ar 
     3    2    4 ar 
     4    3    5 ar 
     5    4    6 ar 
     6    5    6 ar 
     7    1    7 1  
     8    2    8 1  
     9    6    9 1  
# Name:          frag2-061-24/319335 -- energy: 0.411631
# Creation time: Sat Jun  5 12:53:48 2010


@<TRIPOS>MOLECULE
frag2-061-24/319335 -- energy: 0.411631
    9     9     1     1     1
SMALL
USER_CHARGES


@<TRIPOS>ATOM
      1 C1          1.1276    0.3058    0.4040 C.ar       1 <1>        0.000
      2 C3          0.7399   -0.6269   -0.5172 C.ar       1 <1>        0.000
      3 N1          0.1919    1.0670    1.0276 N.ar       1 <1>        0.000
      4 N2         -0.5730   -0.7609   -0.7722 N.ar       1 <1>        0.000
      5 N4         -1.0958    0.9046    0.7402 N.ar       1 <1>        0.000
      6 C8         -1.4987   -0.0115   -0.1625 C.ar       1 <1>        0.000
      7 H           2.1841    0.4380    0.6371 H.spc      1 <1>        0.000
      8 H           1.4757   -1.2453   -1.0312 H.spc      1 <1>        0.000
      9 H          -2.5568   -0.1393   -0.3911 H.spc      1 <1>        0.000
@<TRIPOS>BOND
     1    1    2 ar 
     2    1    3 ar 
     3    2    4 ar 
     4    3    5 ar 
     5    4    6 ar 
     6    5    6 ar 
     7    1    7 1  
     8    2    8 1  
     9    6    9 1  
