#      Rotatable Fragment
#      Build by yxyuan
#
# Name:          frag3-179-11/96164
# Creation time: Sat Jun  5 12:53:08 2010


@<TRIPOS>MOLECULE
frag3-179-11/96164
   11    10     1     1     1
SMALL
USER_CHARGES


@<TRIPOS>ATOM
      1 O5         -0.7698    0.3976    0.6510 O.3        1 <1>        0.000
      2 C12         0.1510   -0.2351   -0.0632 C.2        1 <1>        0.000
      3 N1          1.3908    0.2182    0.2061 N.am       1 <1>        0.000
      4 O10        -0.0211   -1.1130   -0.8800 O.2        1 <1>        0.000
      5 S1          2.7191   -0.1291   -0.6093 S.o2       1 <1>        0.000
      6 O12         3.9487    0.4137    0.2225 O.3        1 <1>        0.000
      7 O13         2.6414    0.6991   -1.7960 O.2        1 <1>        0.000
      8 O14         2.9128   -1.5321   -0.5679 O.2        1 <1>        0.000
      9 H          -0.3444    1.0453    1.2177 H.spc      1 <1>        0.000
     10 H           1.4904    0.8424    1.0067 H.spc      1 <1>        0.000
     11 H           4.0447   -0.1047    1.0248 H.spc      1 <1>        0.000
@<TRIPOS>BOND
     1    2    3 am 
     2    1    2 1  
     3    2    4 2  
     4    3    5 1  
     5    5    6 1  
     6    5    7 2  
     7    5    8 2  
     8    1    9 1  
     9    3   10 1  
    10    6   11 1  
# Name:          frag3-179-11/96164
# Creation time: Sat Jun  5 12:53:08 2010


@<TRIPOS>MOLECULE
frag3-179-11/96164
   11    10     1     1     1
SMALL
USER_CHARGES


@<TRIPOS>ATOM
      1 O5         -0.9414    0.2741   -0.0409 O.3        1 <1>        0.000
      2 C12         0.2426   -0.2611    0.1601 C.2        1 <1>        0.000
      3 N1          1.1671    0.3420   -0.6058 N.am       1 <1>        0.000
      4 O10         0.5493   -1.1639    0.9088 O.2        1 <1>        0.000
      5 S1          2.6709   -0.0633   -0.8849 S.o2       1 <1>        0.000
      6 O12         3.3613   -0.0790    0.5413 O.3        1 <1>        0.000
      7 O13         3.2859    1.0729   -1.5358 O.2        1 <1>        0.000
      8 O14         2.6371   -1.4025   -1.3795 O.2        1 <1>        0.000
      9 H          -0.8686    0.9727   -0.6954 H.spc      1 <1>        0.000
     10 H           0.8520    1.1890   -1.0787 H.spc      1 <1>        0.000
     11 H           3.0127   -0.8104    1.0563 H.spc      1 <1>        0.000
@<TRIPOS>BOND
     1    2    3 am 
     2    1    2 1  
     3    2    4 2  
     4    3    5 1  
     5    5    6 1  
     6    5    7 2  
     7    5    8 2  
     8    1    9 1  
     9    3   10 1  
    10    6   11 1  
# Name:          frag3-179-11/96164
# Creation time: Sat Jun  5 12:53:08 2010


@<TRIPOS>MOLECULE
frag3-179-11/96164
   11    10     1     1     1
SMALL
USER_CHARGES


@<TRIPOS>ATOM
      1 O5          0.4533   -1.0748    0.8246 O.3        1 <1>        0.000
      2 C12         0.1105   -0.2028   -0.1338 C.2        1 <1>        0.000
      3 N1          1.1966    0.1578   -0.8773 N.am       1 <1>        0.000
      4 O10        -0.9635    0.2972   -0.4176 O.2        1 <1>        0.000
      5 S1          2.7232   -0.1463   -0.6913 S.o2       1 <1>        0.000
      6 O12         3.2133    0.8504    0.4178 O.3        1 <1>        0.000
      7 O13         3.4078    0.2783   -1.8895 O.2        1 <1>        0.000
      8 O14         2.8317   -1.4405   -0.0697 O.2        1 <1>        0.000
      9 H           1.3934   -1.2601    0.7657 H.spc      1 <1>        0.000
     10 H           0.9768    0.7238   -1.6969 H.spc      1 <1>        0.000
     11 H           2.7957    0.6283    1.2532 H.spc      1 <1>        0.000
@<TRIPOS>BOND
     1    2    3 am 
     2    1    2 1  
     3    2    4 2  
     4    3    5 1  
     5    5    6 1  
     6    5    7 2  
     7    5    8 2  
     8    1    9 1  
     9    3   10 1  
    10    6   11 1  
# Name:          frag3-179-11/96164
# Creation time: Sat Jun  5 12:53:08 2010


@<TRIPOS>MOLECULE
frag3-179-11/96164
   11    10     1     1     1
SMALL
USER_CHARGES


@<TRIPOS>ATOM
      1 O5         -0.9273   -0.6282    0.1315 O.3        1 <1>        0.000
      2 C12         0.2125    0.0466    0.0772 C.2        1 <1>        0.000
      3 N1          1.2159   -0.7784   -0.3110 N.am       1 <1>        0.000
      4 O10         0.4625    1.2170    0.2967 O.2        1 <1>        0.000
      5 S1          2.7213   -0.4463   -0.7701 S.o2       1 <1>        0.000
      6 O12         3.1961    0.6757    0.2712 O.3        1 <1>        0.000
      7 O13         2.6057    0.2643   -2.0152 O.2        1 <1>        0.000
      8 O14         3.4861   -1.6314   -0.5169 O.2        1 <1>        0.000
      9 H          -0.7669   -1.5447   -0.1051 H.spc      1 <1>        0.000
     10 H           0.9776   -1.7702   -0.3121 H.spc      1 <1>        0.000
     11 H           3.2991    0.2811    1.1402 H.spc      1 <1>        0.000
@<TRIPOS>BOND
     1    2    3 am 
     2    1    2 1  
     3    2    4 2  
     4    3    5 1  
     5    5    6 1  
     6    5    7 2  
     7    5    8 2  
     8    1    9 1  
     9    3   10 1  
    10    6   11 1  
# Name:          frag3-179-11/96164
# Creation time: Sat Jun  5 12:53:08 2010


@<TRIPOS>MOLECULE
frag3-179-11/96164
   11    10     1     1     1
SMALL
USER_CHARGES


@<TRIPOS>ATOM
      1 O5          0.0891   -0.7013   -1.2287 O.3        1 <1>        0.000
      2 C12         0.1338   -0.2374    0.0283 C.2        1 <1>        0.000
      3 N1          1.4317    0.0587    0.3533 N.am       1 <1>        0.000
      4 O10        -0.7665   -0.0789    0.8238 O.2        1 <1>        0.000
      5 S1          2.6909   -0.0773   -0.6100 S.o2       1 <1>        0.000
      6 O12         3.9424    0.3222    0.2510 O.3        1 <1>        0.000
      7 O13         2.5310    0.9239   -1.6411 O.2        1 <1>        0.000
      8 O14         2.9205   -1.4905   -0.8133 O.2        1 <1>        0.000
      9 H           0.9751   -0.7069   -1.5982 H.spc      1 <1>        0.000
     10 H           1.6067    0.3973    1.2994 H.spc      1 <1>        0.000
     11 H           4.0723   -0.3277    0.9455 H.spc      1 <1>        0.000
@<TRIPOS>BOND
     1    2    3 am 
     2    1    2 1  
     3    2    4 2  
     4    3    5 1  
     5    5    6 1  
     6    5    7 2  
     7    5    8 2  
     8    1    9 1  
     9    3   10 1  
    10    6   11 1  
# Name:          frag3-179-11/96164
# Creation time: Sat Jun  5 12:53:08 2010


@<TRIPOS>MOLECULE
frag3-179-11/96164
   11    10     1     1     1
SMALL
USER_CHARGES


@<TRIPOS>ATOM
      1 O5          0.2126    0.9774    0.1110 O.3        1 <1>        0.000
      2 C12         0.1531   -0.3432   -0.0921 C.2        1 <1>        0.000
      3 N1          1.2875   -0.8057   -0.6980 N.am       1 <1>        0.000
      4 O10        -0.7037   -1.1231    0.2572 O.2        1 <1>        0.000
      5 S1          2.7229   -0.1584   -0.7329 S.o2       1 <1>        0.000
      6 O12         2.9975    0.3287    0.7443 O.3        1 <1>        0.000
      7 O13         2.6339    1.0656   -1.4865 O.2        1 <1>        0.000
      8 O14         3.6689   -1.2220   -0.9396 O.2        1 <1>        0.000
      9 H           1.0151    1.3251   -0.2849 H.spc      1 <1>        0.000
     10 H           1.1914   -1.6909   -1.1955 H.spc      1 <1>        0.000
     11 H           3.0720   -0.4338    1.3228 H.spc      1 <1>        0.000
@<TRIPOS>BOND
     1    2    3 am 
     2    1    2 1  
     3    2    4 2  
     4    3    5 1  
     5    5    6 1  
     6    5    7 2  
     7    5    8 2  
     8    1    9 1  
     9    3   10 1  
    10    6   11 1  
# Name:          frag3-179-11/96164 -- energy: -0.010092
# Creation time: Sat Jun  5 12:53:08 2010


@<TRIPOS>MOLECULE
frag3-179-11/96164 -- energy: -0.010092
   11    10     1     1     1
SMALL
USER_CHARGES


@<TRIPOS>ATOM
      1 O5         -0.7698    0.3976    0.6510 O.3        1 <1>        0.000
      2 C12         0.1510   -0.2351   -0.0632 C.2        1 <1>        0.000
      3 N1          1.3908    0.2182    0.2061 N.am       1 <1>        0.000
      4 O10        -0.0211   -1.1130   -0.8800 O.2        1 <1>        0.000
      5 S1          2.7191   -0.1291   -0.6093 S.o2       1 <1>        0.000
      6 O12         3.9487    0.4137    0.2225 O.3        1 <1>        0.000
      7 O13         2.6414    0.6991   -1.7960 O.2        1 <1>        0.000
      8 O14         2.9128   -1.5321   -0.5679 O.2        1 <1>        0.000
      9 H          -0.3444    1.0453    1.2177 H.spc      1 <1>        0.000
     10 H           1.4904    0.8424    1.0067 H.spc      1 <1>        0.000
     11 H           4.0447   -0.1047    1.0248 H.spc      1 <1>        0.000
@<TRIPOS>BOND
     1    2    3 am 
     2    1    2 1  
     3    2    4 2  
     4    3    5 1  
     5    5    6 1  
     6    5    7 2  
     7    5    8 2  
     8    1    9 1  
     9    3   10 1  
    10    6   11 1  
# Name:          frag3-179-11/96164 -- energy: 0.543395
# Creation time: Sat Jun  5 12:53:08 2010


@<TRIPOS>MOLECULE
frag3-179-11/96164 -- energy: 0.543395
   11    10     1     1     1
SMALL
USER_CHARGES


@<TRIPOS>ATOM
      1 O5         -0.9414    0.2741   -0.0409 O.3        1 <1>        0.000
      2 C12         0.2426   -0.2611    0.1601 C.2        1 <1>        0.000
      3 N1          1.1671    0.3420   -0.6058 N.am       1 <1>        0.000
      4 O10         0.5493   -1.1639    0.9088 O.2        1 <1>        0.000
      5 S1          2.6709   -0.0633   -0.8849 S.o2       1 <1>        0.000
      6 O12         3.3613   -0.0790    0.5413 O.3        1 <1>        0.000
      7 O13         3.2859    1.0729   -1.5358 O.2        1 <1>        0.000
      8 O14         2.6371   -1.4025   -1.3795 O.2        1 <1>        0.000
      9 H          -0.8686    0.9727   -0.6954 H.spc      1 <1>        0.000
     10 H           0.8520    1.1890   -1.0787 H.spc      1 <1>        0.000
     11 H           3.0127   -0.8104    1.0563 H.spc      1 <1>        0.000
@<TRIPOS>BOND
     1    2    3 am 
     2    1    2 1  
     3    2    4 2  
     4    3    5 1  
     5    5    6 1  
     6    5    7 2  
     7    5    8 2  
     8    1    9 1  
     9    3   10 1  
    10    6   11 1  
# Name:          frag3-179-11/96164 -- energy: 0.647996
# Creation time: Sat Jun  5 12:53:08 2010


@<TRIPOS>MOLECULE
frag3-179-11/96164 -- energy: 0.647996
   11    10     1     1     1
SMALL
USER_CHARGES


@<TRIPOS>ATOM
      1 O5         -0.9273   -0.6282    0.1315 O.3        1 <1>        0.000
      2 C12         0.2125    0.0466    0.0772 C.2        1 <1>        0.000
      3 N1          1.2159   -0.7784   -0.3110 N.am       1 <1>        0.000
      4 O10         0.4625    1.2170    0.2967 O.2        1 <1>        0.000
      5 S1          2.7213   -0.4463   -0.7701 S.o2       1 <1>        0.000
      6 O12         3.1961    0.6757    0.2712 O.3        1 <1>        0.000
      7 O13         2.6057    0.2643   -2.0152 O.2        1 <1>        0.000
      8 O14         3.4861   -1.6314   -0.5169 O.2        1 <1>        0.000
      9 H          -0.7669   -1.5447   -0.1051 H.spc      1 <1>        0.000
     10 H           0.9776   -1.7702   -0.3121 H.spc      1 <1>        0.000
     11 H           3.2991    0.2811    1.1402 H.spc      1 <1>        0.000
@<TRIPOS>BOND
     1    2    3 am 
     2    1    2 1  
     3    2    4 2  
     4    3    5 1  
     5    5    6 1  
     6    5    7 2  
     7    5    8 2  
     8    1    9 1  
     9    3   10 1  
    10    6   11 1  
# Name:          frag3-179-11/96164 -- energy: 1.727739
# Creation time: Sat Jun  5 12:53:08 2010


@<TRIPOS>MOLECULE
frag3-179-11/96164 -- energy: 1.727739
   11    10     1     1     1
SMALL
USER_CHARGES


@<TRIPOS>ATOM
      1 O5          0.2126    0.9774    0.1110 O.3        1 <1>        0.000
      2 C12         0.1531   -0.3432   -0.0921 C.2        1 <1>        0.000
      3 N1          1.2875   -0.8057   -0.6980 N.am       1 <1>        0.000
      4 O10        -0.7037   -1.1231    0.2572 O.2        1 <1>        0.000
      5 S1          2.7229   -0.1584   -0.7329 S.o2       1 <1>        0.000
      6 O12         2.9975    0.3287    0.7443 O.3        1 <1>        0.000
      7 O13         2.6339    1.0656   -1.4865 O.2        1 <1>        0.000
      8 O14         3.6689   -1.2220   -0.9396 O.2        1 <1>        0.000
      9 H           1.0151    1.3251   -0.2849 H.spc      1 <1>        0.000
     10 H           1.1914   -1.6909   -1.1955 H.spc      1 <1>        0.000
     11 H           3.0720   -0.4338    1.3228 H.spc      1 <1>        0.000
@<TRIPOS>BOND
     1    2    3 am 
     2    1    2 1  
     3    2    4 2  
     4    3    5 1  
     5    5    6 1  
     6    5    7 2  
     7    5    8 2  
     8    1    9 1  
     9    3   10 1  
    10    6   11 1  
