#      Rotatable Fragment
#      Build by yxyuan
#
# Name:          frag5-500-674/138278
# Creation time: Sat Jun  5 12:53:39 2010


@<TRIPOS>MOLECULE
frag5-500-674/138278
   13    13     1     1     1
SMALL
USER_CHARGES


@<TRIPOS>ATOM
      1 N3         -2.3534    0.2824    0.0000 N.am       1 <1>        0.000
      2 C10        -3.4434    1.0991   -0.0000 C.2        1 <1>        0.000
      3 C11        -2.6667   -1.1121   -0.0000 C.3        1 <1>        0.000
      4 C12        -4.6986    0.2789    0.0000 C.3        1 <1>        0.000
      5 O3         -3.4252    2.3162    0.0000 O.2        1 <1>        0.000
      6 C13        -4.1916   -1.1714   -0.0000 C.3        1 <1>        0.000
      7 H          -1.3964    0.6354    0.0000 H.spc      1 <1>        0.000
      8 H          -2.2416   -1.6227    0.8641 H.spc      1 <1>        0.000
      9 H          -2.2416   -1.6227   -0.8641 H.spc      1 <1>        0.000
     10 H          -5.3347    0.4952   -0.8583 H.spc      1 <1>        0.000
     11 H          -5.3347    0.4952    0.8583 H.spc      1 <1>        0.000
     12 H          -4.5563   -1.7070    0.8764 H.spc      1 <1>        0.000
     13 H          -4.5563   -1.7070   -0.8764 H.spc      1 <1>        0.000
@<TRIPOS>BOND
     1    1    2 am 
     2    1    3 1  
     3    2    4 1  
     4    2    5 2  
     5    3    6 1  
     6    4    6 1  
     7    1    7 1  
     8    3    8 1  
     9    3    9 1  
    10    4   10 1  
    11    4   11 1  
    12    6   12 1  
    13    6   13 1  
# Name:          frag5-500-674/138278 -- energy: -0.785440
# Creation time: Sat Jun  5 12:53:39 2010


@<TRIPOS>MOLECULE
frag5-500-674/138278 -- energy: -0.785440
   13    13     1     1     1
SMALL
USER_CHARGES


@<TRIPOS>ATOM
      1 N3         -2.3534    0.2824    0.0000 N.am       1 <1>        0.000
      2 C10        -3.4434    1.0991   -0.0000 C.2        1 <1>        0.000
      3 C11        -2.6667   -1.1121   -0.0000 C.3        1 <1>        0.000
      4 C12        -4.6986    0.2789    0.0000 C.3        1 <1>        0.000
      5 O3         -3.4252    2.3162    0.0000 O.2        1 <1>        0.000
      6 C13        -4.1916   -1.1714   -0.0000 C.3        1 <1>        0.000
      7 H          -1.3964    0.6354    0.0000 H.spc      1 <1>        0.000
      8 H          -2.2416   -1.6227    0.8641 H.spc      1 <1>        0.000
      9 H          -2.2416   -1.6227   -0.8641 H.spc      1 <1>        0.000
     10 H          -5.3347    0.4952   -0.8583 H.spc      1 <1>        0.000
     11 H          -5.3347    0.4952    0.8583 H.spc      1 <1>        0.000
     12 H          -4.5563   -1.7070    0.8764 H.spc      1 <1>        0.000
     13 H          -4.5563   -1.7070   -0.8764 H.spc      1 <1>        0.000
@<TRIPOS>BOND
     1    1    2 am 
     2    1    3 1  
     3    2    4 1  
     4    2    5 2  
     5    3    6 1  
     6    4    6 1  
     7    1    7 1  
     8    3    8 1  
     9    3    9 1  
    10    4   10 1  
    11    4   11 1  
    12    6   12 1  
    13    6   13 1  
