#      Rotatable Fragment
#      Build by yxyuan
#
# Name:          frag5-685-22/41815
# Creation time: Sat Jun  5 12:53:04 2010


@<TRIPOS>MOLECULE
frag5-685-22/41815
   15    15     1     1     1
SMALL
USER_CHARGES


@<TRIPOS>ATOM
      1 C1          1.4470    1.0816    0.4408 C.3        1 <1>        0.000
      2 C2          2.2026    1.6002    1.6759 C.3        1 <1>        0.000
      3 C3          1.2311    2.0532    2.7677 C.3        1 <1>        0.000
      4 C4          0.2616    3.0525    2.1970 C.2        1 <1>        0.000
      5 C5         -0.0878    3.0145    0.7610 C.2        1 <1>        0.000
      6 C6          0.4530    2.0917   -0.0510 C.2        1 <1>        0.000
      7 O2         -0.2447    3.9078    2.9141 O.2        1 <1>        0.000
      8 H           0.9120    0.1728    0.7165 H.spc      1 <1>        0.000
      9 H           2.1688    0.8888   -0.3529 H.spc      1 <1>        0.000
     10 H           2.8137    2.4522    1.3780 H.spc      1 <1>        0.000
     11 H           2.8192    0.7930    2.0713 H.spc      1 <1>        0.000
     12 H           1.7903    2.5148    3.5816 H.spc      1 <1>        0.000
     13 H           0.6821    1.1904    3.1450 H.spc      1 <1>        0.000
     14 H          -0.7913    3.7427    0.3574 H.spc      1 <1>        0.000
     15 H           0.1604    2.0762   -1.1009 H.spc      1 <1>        0.000
@<TRIPOS>BOND
     1    1    2 1  
     2    1    6 1  
     3    2    3 1  
     4    3    4 1  
     5    4    5 1  
     6    4    7 2  
     7    5    6 2  
     8    1    8 1  
     9    1    9 1  
    10    2   10 1  
    11    2   11 1  
    12    3   12 1  
    13    3   13 1  
    14    5   14 1  
    15    6   15 1  
# Name:          frag5-685-22/41815 -- energy: -0.889704
# Creation time: Sat Jun  5 12:53:04 2010


@<TRIPOS>MOLECULE
frag5-685-22/41815 -- energy: -0.889704
   15    15     1     1     1
SMALL
USER_CHARGES


@<TRIPOS>ATOM
      1 C1          1.4470    1.0816    0.4408 C.3        1 <1>        0.000
      2 C2          2.2026    1.6002    1.6759 C.3        1 <1>        0.000
      3 C3          1.2311    2.0532    2.7677 C.3        1 <1>        0.000
      4 C4          0.2616    3.0525    2.1970 C.2        1 <1>        0.000
      5 C5         -0.0878    3.0145    0.7610 C.2        1 <1>        0.000
      6 C6          0.4530    2.0917   -0.0510 C.2        1 <1>        0.000
      7 O2         -0.2447    3.9078    2.9141 O.2        1 <1>        0.000
      8 H           0.9120    0.1728    0.7165 H.spc      1 <1>        0.000
      9 H           2.1688    0.8888   -0.3529 H.spc      1 <1>        0.000
     10 H           2.8137    2.4522    1.3780 H.spc      1 <1>        0.000
     11 H           2.8192    0.7930    2.0713 H.spc      1 <1>        0.000
     12 H           1.7903    2.5148    3.5816 H.spc      1 <1>        0.000
     13 H           0.6821    1.1904    3.1450 H.spc      1 <1>        0.000
     14 H          -0.7913    3.7427    0.3574 H.spc      1 <1>        0.000
     15 H           0.1604    2.0762   -1.1009 H.spc      1 <1>        0.000
@<TRIPOS>BOND
     1    1    2 1  
     2    1    6 1  
     3    2    3 1  
     4    3    4 1  
     5    4    5 1  
     6    4    7 2  
     7    5    6 2  
     8    1    8 1  
     9    1    9 1  
    10    2   10 1  
    11    2   11 1  
    12    3   12 1  
    13    3   13 1  
    14    5   14 1  
    15    6   15 1  
