#      Rotatable Fragment
#      Build by yxyuan
#
# Name:          frag4-302-1981/150395
# Creation time: Sat Jun  5 12:53:30 2010


@<TRIPOS>MOLECULE
frag4-302-1981/150395
    6     6     1     1     1
SMALL
USER_CHARGES


@<TRIPOS>ATOM
      1 C7          0.6782    0.5386   -0.0742 C.ar       1 <1>        0.000
      2 N3         -0.8280    0.2463   -0.0697 N.ar       1 <1>        0.000
      3 N4          1.2799   -0.5766    0.1165 N.ar       1 <1>        0.000
      4 N6         -0.9142   -1.0552    0.1499 N.ar       1 <1>        0.000
      5 N7          0.3425   -1.5563    0.2384 N.ar       1 <1>        0.000
      6 H           1.1482    1.5121   -0.2135 H.spc      1 <1>        0.000
@<TRIPOS>BOND
     1    1    2 ar 
     2    1    3 ar 
     3    2    4 ar 
     4    3    5 ar 
     5    4    5 ar 
     6    1    6 1  
# Name:          frag4-302-1981/150395 -- energy: -0.037473
# Creation time: Sat Jun  5 12:53:30 2010


@<TRIPOS>MOLECULE
frag4-302-1981/150395 -- energy: -0.037473
    6     6     1     1     1
SMALL
USER_CHARGES


@<TRIPOS>ATOM
      1 C7          0.6782    0.5386   -0.0742 C.ar       1 <1>        0.000
      2 N3         -0.8280    0.2463   -0.0697 N.ar       1 <1>        0.000
      3 N4          1.2799   -0.5766    0.1165 N.ar       1 <1>        0.000
      4 N6         -0.9142   -1.0552    0.1499 N.ar       1 <1>        0.000
      5 N7          0.3425   -1.5563    0.2384 N.ar       1 <1>        0.000
      6 H           1.1482    1.5121   -0.2135 H.spc      1 <1>        0.000
@<TRIPOS>BOND
     1    1    2 ar 
     2    1    3 ar 
     3    2    4 ar 
     4    3    5 ar 
     5    4    5 ar 
     6    1    6 1  
