#      Rotatable Fragment
#      Build by yxyuan
#
# Name:          frag3-158-19/96164
# Creation time: Sat Jun  5 12:53:06 2010


@<TRIPOS>MOLECULE
frag3-158-19/96164
    8     7     1     1     1
SMALL
USER_CHARGES


@<TRIPOS>ATOM
      1 C13         1.1276    0.2482    0.0061 C.2        1 <1>        0.000
      2 N3          0.0537   -0.5677   -0.1265 N.am       1 <1>        0.000
      3 O2          2.3198   -0.0377   -0.0836 O.2        1 <1>        0.000
      4 C16        -1.1155    0.0429    0.1751 C.2        1 <1>        0.000
      5 O3         -2.2630   -0.3727    0.1489 O.2        1 <1>        0.000
      6 H           0.9054    1.2936    0.2201 H.spc      1 <1>        0.000
      7 H           0.1200   -1.5414   -0.4230 H.spc      1 <1>        0.000
      8 H          -1.0161    1.0801    0.4952 H.spc      1 <1>        0.000
@<TRIPOS>BOND
     1    1    2 am 
     2    1    3 2  
     3    2    4 am 
     4    4    5 2  
     5    1    6 1  
     6    2    7 1  
     7    4    8 1  
# Name:          frag3-158-19/96164
# Creation time: Sat Jun  5 12:53:06 2010


@<TRIPOS>MOLECULE
frag3-158-19/96164
    8     7     1     1     1
SMALL
USER_CHARGES


@<TRIPOS>ATOM
      1 C13        -1.2492   -0.5207   -0.2341 C.2        1 <1>        0.000
      2 N3          0.0615   -0.7792   -0.4985 N.am       1 <1>        0.000
      3 O2         -1.6969    0.2302    0.6284 O.2        1 <1>        0.000
      4 C16         0.9030    0.1820   -0.0150 C.2        1 <1>        0.000
      5 O3          2.1042    0.2007    0.2392 O.2        1 <1>        0.000
      6 H          -1.9808   -1.0366   -0.8559 H.spc      1 <1>        0.000
      7 H           0.3815   -1.6047   -1.0049 H.spc      1 <1>        0.000
      8 H           0.4044    1.1299    0.1873 H.spc      1 <1>        0.000
@<TRIPOS>BOND
     1    1    2 am 
     2    1    3 2  
     3    2    4 am 
     4    4    5 2  
     5    1    6 1  
     6    2    7 1  
     7    4    8 1  
# Name:          frag3-158-19/96164 -- energy: 0.277769
# Creation time: Sat Jun  5 12:53:06 2010


@<TRIPOS>MOLECULE
frag3-158-19/96164 -- energy: 0.277769
    8     7     1     1     1
SMALL
USER_CHARGES


@<TRIPOS>ATOM
      1 C13         1.1276    0.2482    0.0061 C.2        1 <1>        0.000
      2 N3          0.0537   -0.5677   -0.1265 N.am       1 <1>        0.000
      3 O2          2.3198   -0.0377   -0.0836 O.2        1 <1>        0.000
      4 C16        -1.1155    0.0429    0.1751 C.2        1 <1>        0.000
      5 O3         -2.2630   -0.3727    0.1489 O.2        1 <1>        0.000
      6 H           0.9054    1.2936    0.2201 H.spc      1 <1>        0.000
      7 H           0.1200   -1.5414   -0.4230 H.spc      1 <1>        0.000
      8 H          -1.0161    1.0801    0.4952 H.spc      1 <1>        0.000
@<TRIPOS>BOND
     1    1    2 am 
     2    1    3 2  
     3    2    4 am 
     4    4    5 2  
     5    1    6 1  
     6    2    7 1  
     7    4    8 1  
# Name:          frag3-158-19/96164 -- energy: 0.185738
# Creation time: Sat Jun  5 12:53:06 2010


@<TRIPOS>MOLECULE
frag3-158-19/96164 -- energy: 0.185738
    8     7     1     1     1
SMALL
USER_CHARGES


@<TRIPOS>ATOM
      1 C13        -1.2492   -0.5207   -0.2341 C.2        1 <1>        0.000
      2 N3          0.0615   -0.7792   -0.4985 N.am       1 <1>        0.000
      3 O2         -1.6969    0.2302    0.6284 O.2        1 <1>        0.000
      4 C16         0.9030    0.1820   -0.0150 C.2        1 <1>        0.000
      5 O3          2.1042    0.2007    0.2392 O.2        1 <1>        0.000
      6 H          -1.9808   -1.0366   -0.8559 H.spc      1 <1>        0.000
      7 H           0.3815   -1.6047   -1.0049 H.spc      1 <1>        0.000
      8 H           0.4044    1.1299    0.1873 H.spc      1 <1>        0.000
@<TRIPOS>BOND
     1    1    2 am 
     2    1    3 2  
     3    2    4 am 
     4    4    5 2  
     5    1    6 1  
     6    2    7 1  
     7    4    8 1  
