#      Rotatable Fragment
#      Build by yxyuan
#
# Name:          frag4-430-134/150395
# Creation time: Sat Jun  5 12:53:35 2010


@<TRIPOS>MOLECULE
frag4-430-134/150395
   11    11     1     1     1
SMALL
USER_CHARGES


@<TRIPOS>ATOM
      1 C13         1.2193   -0.6019   -0.1705 C.ar       1 <1>        0.000
      2 C17         0.1356   -1.3917   -0.0550 C.ar       1 <1>        0.000
      3 N6          1.1011    0.8017   -0.0843 N.ar       1 <1>        0.000
      4 C18        -1.1273   -0.7357    0.1120 C.ar       1 <1>        0.000
      5 C19        -0.0623    1.3733    0.0442 C.ar       1 <1>        0.000
      6 C20        -1.2669    0.5626    0.1473 C.ar       1 <1>        0.000
      7 H           2.1990   -1.0514   -0.3324 H.spc      1 <1>        0.000
      8 H           0.2149   -2.4783   -0.0870 H.spc      1 <1>        0.000
      9 H          -2.0195   -1.3533    0.2151 H.spc      1 <1>        0.000
     10 H          -0.1339    2.4605    0.0746 H.spc      1 <1>        0.000
     11 H          -2.2499    1.0223    0.2502 H.spc      1 <1>        0.000
@<TRIPOS>BOND
     1    1    2 ar 
     2    1    3 ar 
     3    2    4 ar 
     4    3    5 ar 
     5    4    6 ar 
     6    5    6 ar 
     7    1    7 1  
     8    2    8 1  
     9    4    9 1  
    10    5   10 1  
    11    6   11 1  
# Name:          frag4-430-134/150395 -- energy: 0.261690
# Creation time: Sat Jun  5 12:53:35 2010


@<TRIPOS>MOLECULE
frag4-430-134/150395 -- energy: 0.261690
   11    11     1     1     1
SMALL
USER_CHARGES


@<TRIPOS>ATOM
      1 C13         1.2193   -0.6019   -0.1705 C.ar       1 <1>        0.000
      2 C17         0.1356   -1.3917   -0.0550 C.ar       1 <1>        0.000
      3 N6          1.1011    0.8017   -0.0843 N.ar       1 <1>        0.000
      4 C18        -1.1273   -0.7357    0.1120 C.ar       1 <1>        0.000
      5 C19        -0.0623    1.3733    0.0442 C.ar       1 <1>        0.000
      6 C20        -1.2669    0.5626    0.1473 C.ar       1 <1>        0.000
      7 H           2.1990   -1.0514   -0.3324 H.spc      1 <1>        0.000
      8 H           0.2149   -2.4783   -0.0870 H.spc      1 <1>        0.000
      9 H          -2.0195   -1.3533    0.2151 H.spc      1 <1>        0.000
     10 H          -0.1339    2.4605    0.0746 H.spc      1 <1>        0.000
     11 H          -2.2499    1.0223    0.2502 H.spc      1 <1>        0.000
@<TRIPOS>BOND
     1    1    2 ar 
     2    1    3 ar 
     3    2    4 ar 
     4    3    5 ar 
     5    4    6 ar 
     6    5    6 ar 
     7    1    7 1  
     8    2    8 1  
     9    4    9 1  
    10    5   10 1  
    11    6   11 1  
