#      Rotatable Fragment
#      Build by yxyuan
#
# Name:          frag4-336-166/48856
# Creation time: Sat Jun  5 12:52:54 2010


@<TRIPOS>MOLECULE
frag4-336-166/48856
   12    13     1     1     1
SMALL
USER_CHARGES


@<TRIPOS>ATOM
      1 N1         -1.7937    0.9366    0.0898 N.ar       1 <1>        0.000
      2 C1         -2.5076   -0.3239    0.1019 C.ar       1 <1>        0.000
      3 N2         -1.6502   -1.2857   -0.0410 N.ar       1 <1>        0.000
      4 C2         -0.3910   -0.7751   -0.1218 C.ar       1 <1>        0.000
      5 C3         -0.4463    0.5730    0.0650 C.ar       1 <1>        0.000
      6 C4          0.8139    1.2196    0.2559 C.ar       1 <1>        0.000
      7 N3          1.9278    0.6051    0.1339 N.ar       1 <1>        0.000
      8 C5          1.9122   -0.7274   -0.2002 C.ar       1 <1>        0.000
      9 N4          0.8555   -1.4129   -0.3782 N.ar       1 <1>        0.000
     10 H          -3.5853   -0.4436    0.2126 H.spc      1 <1>        0.000
     11 H           0.8254    2.2781    0.5157 H.spc      1 <1>        0.000
     12 H           2.8709   -1.2318   -0.3210 H.spc      1 <1>        0.000
@<TRIPOS>BOND
     1    8    9 ar 
     2    1    2 ar 
     3    1    5 ar 
     4    2    3 ar 
     5    3    4 ar 
     6    4    5 ar 
     7    4    9 ar 
     8    5    6 ar 
     9    6    7 ar 
    10    7    8 ar 
    11    2   10 1  
    12    6   11 1  
    13    8   12 1  
# Name:          frag4-336-166/48856 -- energy: 0.061790
# Creation time: Sat Jun  5 12:52:54 2010


@<TRIPOS>MOLECULE
frag4-336-166/48856 -- energy: 0.061790
   12    13     1     1     1
SMALL
USER_CHARGES


@<TRIPOS>ATOM
      1 N1         -1.7937    0.9366    0.0898 N.ar       1 <1>        0.000
      2 C1         -2.5076   -0.3239    0.1019 C.ar       1 <1>        0.000
      3 N2         -1.6502   -1.2857   -0.0410 N.ar       1 <1>        0.000
      4 C2         -0.3910   -0.7751   -0.1218 C.ar       1 <1>        0.000
      5 C3         -0.4463    0.5730    0.0650 C.ar       1 <1>        0.000
      6 C4          0.8139    1.2196    0.2559 C.ar       1 <1>        0.000
      7 N3          1.9278    0.6051    0.1339 N.ar       1 <1>        0.000
      8 C5          1.9122   -0.7274   -0.2002 C.ar       1 <1>        0.000
      9 N4          0.8555   -1.4129   -0.3782 N.ar       1 <1>        0.000
     10 H          -3.5853   -0.4436    0.2126 H.spc      1 <1>        0.000
     11 H           0.8254    2.2781    0.5157 H.spc      1 <1>        0.000
     12 H           2.8709   -1.2318   -0.3210 H.spc      1 <1>        0.000
@<TRIPOS>BOND
     1    8    9 ar 
     2    1    2 ar 
     3    1    5 ar 
     4    2    3 ar 
     5    3    4 ar 
     6    4    5 ar 
     7    4    9 ar 
     8    5    6 ar 
     9    6    7 ar 
    10    7    8 ar 
    11    2   10 1  
    12    6   11 1  
    13    8   12 1  
