#      Rotatable Fragment
#      Build by yxyuan
#
# Name:          frag5-678-23/41815
# Creation time: Sat Jun  5 12:53:03 2010


@<TRIPOS>MOLECULE
frag5-678-23/41815
   41    41     1     1     1
SMALL
USER_CHARGES


@<TRIPOS>ATOM
      1 C6          0.9992   -0.0441   -1.2438 C.3        1 <1>        0.000
      2 C7          2.3381    0.4102   -1.8527 C.3        1 <1>        0.000
      3 C8          2.3429    0.4513   -3.3886 C.3        1 <1>        0.000
      4 C9          3.6518    0.8143   -4.1068 C.3        1 <1>        0.000
      5 C10         4.6907   -0.2778   -4.0878 C.2        1 <1>        0.000
      6 O4          5.2675   -0.5575   -2.9063 O.3        1 <1>        0.000
      7 C11         5.8056   -1.8783   -2.8103 C.3        1 <1>        0.000
      8 C20         0.9760   -0.1016    0.2987 C.3        1 <1>        0.000
      9 C12         6.3767   -2.2077   -1.4063 C.3        1 <1>        0.000
     10 C13         5.5542   -3.1135   -0.5219 C.2        1 <1>        0.000
     11 C14         5.4011   -2.9637    0.8011 C.2        1 <1>        0.000
     12 C15         6.0098   -1.9073    1.6044 C.2        1 <1>        0.000
     13 C16         5.3300   -0.9145    2.1995 C.2        1 <1>        0.000
     14 C17         3.8406   -0.7370    2.0844 C.3        1 <1>        0.000
     15 C18         3.4898    0.4136    1.1233 C.3        1 <1>        0.000
     16 C19         1.9830    0.7694    1.0948 C.3        1 <1>        0.000
     17 O7          4.9696   -0.8761   -5.1247 O.2        1 <1>        0.000
     18 H           0.2500    0.6883   -1.5445 H.spc      1 <1>        0.000
     19 H           0.8167   -1.0576   -1.6011 H.spc      1 <1>        0.000
     20 H           2.5260    1.4247   -1.5011 H.spc      1 <1>        0.000
     21 H           3.0948   -0.3118   -1.5458 H.spc      1 <1>        0.000
     22 H           1.6421    1.2425   -3.6552 H.spc      1 <1>        0.000
     23 H           2.1185   -0.5682   -3.7021 H.spc      1 <1>        0.000
     24 H           4.0773    1.6719   -3.5857 H.spc      1 <1>        0.000
     25 H           3.4036    1.0039   -5.1511 H.spc      1 <1>        0.000
     26 H           6.6252   -1.9528   -3.5251 H.spc      1 <1>        0.000
     27 H           4.9950   -2.5794   -3.0090 H.spc      1 <1>        0.000
     28 H           1.2354   -1.1308    0.5467 H.spc      1 <1>        0.000
     29 H          -0.0073    0.2750    0.5804 H.spc      1 <1>        0.000
     30 H           7.3123   -2.7379   -1.5844 H.spc      1 <1>        0.000
     31 H           6.4363   -1.2550   -0.8801 H.spc      1 <1>        0.000
     32 H           5.0461   -3.9535   -0.9955 H.spc      1 <1>        0.000
     33 H           4.7722   -3.6881    1.3185 H.spc      1 <1>        0.000
     34 H           7.0924   -1.9261    1.7297 H.spc      1 <1>        0.000
     35 H           5.8886   -0.1965    2.7999 H.spc      1 <1>        0.000
     36 H           3.4093   -1.6593    1.6952 H.spc      1 <1>        0.000
     37 H           3.4411   -0.5007    3.0706 H.spc      1 <1>        0.000
     38 H           4.0255    1.2983    1.4674 H.spc      1 <1>        0.000
     39 H           3.7664    0.0930    0.1189 H.spc      1 <1>        0.000
     40 H           1.6649    0.6628    2.1319 H.spc      1 <1>        0.000
     41 H           1.9480    1.7385    0.5970 H.spc      1 <1>        0.000
@<TRIPOS>BOND
     1    5    6 1  
     2    2    3 1  
     3    6    7 1  
     4    3    4 1  
     5    9   10 1  
     6    5   17 2  
     7    1    8 1  
     8    7    9 1  
     9    4    5 1  
    10    1    2 1  
    11   16    8 1  
    12   15   16 1  
    13   14   15 1  
    14   13   14 1  
    15   12   13 2  
    16   11   12 1  
    17   10   11 2  
    18    1   18 1  
    19    1   19 1  
    20    2   20 1  
    21    2   21 1  
    22    3   22 1  
    23    3   23 1  
    24    4   24 1  
    25    4   25 1  
    26    7   26 1  
    27    7   27 1  
    28    8   28 1  
    29    8   29 1  
    30    9   30 1  
    31    9   31 1  
    32   10   32 1  
    33   11   33 1  
    34   12   34 1  
    35   13   35 1  
    36   14   36 1  
    37   14   37 1  
    38   15   38 1  
    39   15   39 1  
    40   16   40 1  
    41   16   41 1  
# Name:          frag5-678-23/41815
# Creation time: Sat Jun  5 12:53:03 2010


@<TRIPOS>MOLECULE
frag5-678-23/41815
   41    41     1     1     1
SMALL
USER_CHARGES


@<TRIPOS>ATOM
      1 C6          1.1281    0.7980   -1.0195 C.3        1 <1>        0.000
      2 C7          2.3569    0.8172   -1.8927 C.3        1 <1>        0.000
      3 C8          2.2686    0.0465   -3.1865 C.3        1 <1>        0.000
      4 C9          3.3571    0.2427   -4.1970 C.3        1 <1>        0.000
      5 C10         4.5765   -0.6194   -4.0478 C.2        1 <1>        0.000
      6 O4          5.0442   -1.0018   -2.8467 O.3        1 <1>        0.000
      7 C11         6.2680   -1.7054   -2.9134 C.3        1 <1>        0.000
      8 C20         1.1912    1.3556    0.3837 C.3        1 <1>        0.000
      9 C12         6.9766   -2.0986   -1.6128 C.3        1 <1>        0.000
     10 C13         6.2342   -2.9997   -0.6856 C.2        1 <1>        0.000
     11 C14         5.7701   -2.7195    0.5441 C.2        1 <1>        0.000
     12 C15         5.8333   -1.5335    1.3349 C.2        1 <1>        0.000
     13 C16         4.8702   -0.9462    2.0697 C.2        1 <1>        0.000
     14 C17         3.4551   -1.3827    2.2411 C.3        1 <1>        0.000
     15 C18         2.4496   -0.7520    1.2759 C.3        1 <1>        0.000
     16 C19         2.1029    0.7147    1.4101 C.3        1 <1>        0.000
     17 O7          5.1441   -0.9362   -5.1006 O.2        1 <1>        0.000
     18 H           0.4155    1.4405   -1.5368 H.spc      1 <1>        0.000
     19 H           0.9067   -0.2605   -0.8829 H.spc      1 <1>        0.000
     20 H           2.5163    1.8592   -2.1700 H.spc      1 <1>        0.000
     21 H           3.1498    0.3459   -1.3119 H.spc      1 <1>        0.000
     22 H           1.3574    0.3976   -3.6708 H.spc      1 <1>        0.000
     23 H           2.3240   -1.0042   -2.9018 H.spc      1 <1>        0.000
     24 H           3.6987    1.2706   -4.0754 H.spc      1 <1>        0.000
     25 H           2.9218   -0.0163   -5.1622 H.spc      1 <1>        0.000
     26 H           6.9562   -1.0216   -3.4103 H.spc      1 <1>        0.000
     27 H           6.0197   -2.6522   -3.3930 H.spc      1 <1>        0.000
     28 H           0.1868    1.2102    0.7813 H.spc      1 <1>        0.000
     29 H           1.5852    2.3643    0.2598 H.spc      1 <1>        0.000
     30 H           7.8682   -2.6489   -1.9134 H.spc      1 <1>        0.000
     31 H           7.1318   -1.1692   -1.0649 H.spc      1 <1>        0.000
     32 H           6.0446   -4.0094   -1.0497 H.spc      1 <1>        0.000
     33 H           5.2511   -3.5489    1.0247 H.spc      1 <1>        0.000
     34 H           6.8004   -1.0307    1.3456 H.spc      1 <1>        0.000
     35 H           5.1603   -0.0417    2.6042 H.spc      1 <1>        0.000
     36 H           3.4362   -2.4559    2.0513 H.spc      1 <1>        0.000
     37 H           3.1557   -1.0780    3.2439 H.spc      1 <1>        0.000
     38 H           2.9187   -0.8358    0.2956 H.spc      1 <1>        0.000
     39 H           1.5138   -1.2755    1.4718 H.spc      1 <1>        0.000
     40 H           1.5583    0.7878    2.3515 H.spc      1 <1>        0.000
     41 H           3.0536    1.2371    1.3038 H.spc      1 <1>        0.000
@<TRIPOS>BOND
     1    5    6 1  
     2    2    3 1  
     3    6    7 1  
     4    3    4 1  
     5    9   10 1  
     6    5   17 2  
     7    1    8 1  
     8    7    9 1  
     9    4    5 1  
    10    1    2 1  
    11   16    8 1  
    12   15   16 1  
    13   14   15 1  
    14   13   14 1  
    15   12   13 2  
    16   11   12 1  
    17   10   11 2  
    18    1   18 1  
    19    1   19 1  
    20    2   20 1  
    21    2   21 1  
    22    3   22 1  
    23    3   23 1  
    24    4   24 1  
    25    4   25 1  
    26    7   26 1  
    27    7   27 1  
    28    8   28 1  
    29    8   29 1  
    30    9   30 1  
    31    9   31 1  
    32   10   32 1  
    33   11   33 1  
    34   12   34 1  
    35   13   35 1  
    36   14   36 1  
    37   14   37 1  
    38   15   38 1  
    39   15   39 1  
    40   16   40 1  
    41   16   41 1  
# Name:          frag5-678-23/41815
# Creation time: Sat Jun  5 12:53:03 2010


@<TRIPOS>MOLECULE
frag5-678-23/41815
   41    41     1     1     1
SMALL
USER_CHARGES


@<TRIPOS>ATOM
      1 C6          1.4286    1.1043   -1.3087 C.3        1 <1>        0.000
      2 C7          1.6728   -0.1562   -2.1106 C.3        1 <1>        0.000
      3 C8          2.1865   -0.0253   -3.5353 C.3        1 <1>        0.000
      4 C9          3.5430    0.5847   -3.8145 C.3        1 <1>        0.000
      5 C10         4.6855   -0.3642   -3.5522 C.2        1 <1>        0.000
      6 O4          5.2403   -0.3741   -2.3293 O.3        1 <1>        0.000
      7 C11         6.3367   -1.2666   -2.2022 C.3        1 <1>        0.000
      8 C20         0.9388    0.9909    0.1171 C.3        1 <1>        0.000
      9 C12         6.0536   -2.7648   -2.0722 C.3        1 <1>        0.000
     10 C13         5.7388   -3.3458   -0.7284 C.2        1 <1>        0.000
     11 C14         5.7896   -2.8963    0.5287 C.2        1 <1>        0.000
     12 C15         6.1756   -1.6883    1.1789 C.2        1 <1>        0.000
     13 C16         5.4042   -0.8030    1.8230 C.2        1 <1>        0.000
     14 C17         3.9346   -0.7982    2.0682 C.3        1 <1>        0.000
     15 C18         3.1859    0.0732    1.0851 C.3        1 <1>        0.000
     16 C19         1.6744    0.0928    1.0865 C.3        1 <1>        0.000
     17 O7          5.0377   -1.0834   -4.4774 O.2        1 <1>        0.000
     18 H           2.4071    1.5780   -1.2300 H.spc      1 <1>        0.000
     19 H           0.6274    1.6200   -1.8380 H.spc      1 <1>        0.000
     20 H           2.4588   -0.6867   -1.5731 H.spc      1 <1>        0.000
     21 H           0.6943   -0.6272   -2.2039 H.spc      1 <1>        0.000
     22 H           1.4835    0.6588   -4.0106 H.spc      1 <1>        0.000
     23 H           2.2808   -1.0549   -3.8805 H.spc      1 <1>        0.000
     24 H           3.6642    1.4399   -3.1496 H.spc      1 <1>        0.000
     25 H           3.5732    0.8547   -4.8701 H.spc      1 <1>        0.000
     26 H           6.8219   -0.9878   -1.2668 H.spc      1 <1>        0.000
     27 H           6.8951   -1.1636   -3.1326 H.spc      1 <1>        0.000
     28 H          -0.0561    0.5535    0.0344 H.spc      1 <1>        0.000
     29 H           1.0505    1.9938    0.5291 H.spc      1 <1>        0.000
     30 H           5.1502   -2.9262   -2.6603 H.spc      1 <1>        0.000
     31 H           6.9845   -3.2476   -2.3696 H.spc      1 <1>        0.000
     32 H           5.3860   -4.3753   -0.7903 H.spc      1 <1>        0.000
     33 H           5.4475   -3.6473    1.2408 H.spc      1 <1>        0.000
     34 H           7.2396   -1.4538    1.1479 H.spc      1 <1>        0.000
     35 H           5.9384    0.0533    2.2348 H.spc      1 <1>        0.000
     36 H           3.5718   -1.8199    1.9559 H.spc      1 <1>        0.000
     37 H           3.7620   -0.4012    3.0685 H.spc      1 <1>        0.000
     38 H           3.4708    1.0907    1.3526 H.spc      1 <1>        0.000
     39 H           3.4512   -0.3303    0.1079 H.spc      1 <1>        0.000
     40 H           1.3849   -0.9183    0.8002 H.spc      1 <1>        0.000
     41 H           1.4041    0.4708    2.0725 H.spc      1 <1>        0.000
@<TRIPOS>BOND
     1    5    6 1  
     2    2    3 1  
     3    6    7 1  
     4    3    4 1  
     5    9   10 1  
     6    5   17 2  
     7    1    8 1  
     8    7    9 1  
     9    4    5 1  
    10    1    2 1  
    11   16    8 1  
    12   15   16 1  
    13   14   15 1  
    14   13   14 1  
    15   12   13 2  
    16   11   12 1  
    17   10   11 2  
    18    1   18 1  
    19    1   19 1  
    20    2   20 1  
    21    2   21 1  
    22    3   22 1  
    23    3   23 1  
    24    4   24 1  
    25    4   25 1  
    26    7   26 1  
    27    7   27 1  
    28    8   28 1  
    29    8   29 1  
    30    9   30 1  
    31    9   31 1  
    32   10   32 1  
    33   11   33 1  
    34   12   34 1  
    35   13   35 1  
    36   14   36 1  
    37   14   37 1  
    38   15   38 1  
    39   15   39 1  
    40   16   40 1  
    41   16   41 1  
# Name:          frag5-678-23/41815 -- energy: -6.607258
# Creation time: Sat Jun  5 12:53:03 2010


@<TRIPOS>MOLECULE
frag5-678-23/41815 -- energy: -6.607258
   41    41     1     1     1
SMALL
USER_CHARGES


@<TRIPOS>ATOM
      1 C6          0.9992   -0.0441   -1.2438 C.3        1 <1>        0.000
      2 C7          2.3381    0.4102   -1.8527 C.3        1 <1>        0.000
      3 C8          2.3429    0.4513   -3.3886 C.3        1 <1>        0.000
      4 C9          3.6518    0.8143   -4.1068 C.3        1 <1>        0.000
      5 C10         4.6907   -0.2778   -4.0878 C.2        1 <1>        0.000
      6 O4          5.2675   -0.5575   -2.9063 O.3        1 <1>        0.000
      7 C11         5.8056   -1.8783   -2.8103 C.3        1 <1>        0.000
      8 C20         0.9760   -0.1016    0.2987 C.3        1 <1>        0.000
      9 C12         6.3767   -2.2077   -1.4063 C.3        1 <1>        0.000
     10 C13         5.5542   -3.1135   -0.5219 C.2        1 <1>        0.000
     11 C14         5.4011   -2.9637    0.8011 C.2        1 <1>        0.000
     12 C15         6.0098   -1.9073    1.6044 C.2        1 <1>        0.000
     13 C16         5.3300   -0.9145    2.1995 C.2        1 <1>        0.000
     14 C17         3.8406   -0.7370    2.0844 C.3        1 <1>        0.000
     15 C18         3.4898    0.4136    1.1233 C.3        1 <1>        0.000
     16 C19         1.9830    0.7694    1.0948 C.3        1 <1>        0.000
     17 O7          4.9696   -0.8761   -5.1247 O.2        1 <1>        0.000
     18 H           0.2500    0.6883   -1.5445 H.spc      1 <1>        0.000
     19 H           0.8167   -1.0576   -1.6011 H.spc      1 <1>        0.000
     20 H           2.5260    1.4247   -1.5011 H.spc      1 <1>        0.000
     21 H           3.0948   -0.3118   -1.5458 H.spc      1 <1>        0.000
     22 H           1.6421    1.2425   -3.6552 H.spc      1 <1>        0.000
     23 H           2.1185   -0.5682   -3.7021 H.spc      1 <1>        0.000
     24 H           4.0773    1.6719   -3.5857 H.spc      1 <1>        0.000
     25 H           3.4036    1.0039   -5.1511 H.spc      1 <1>        0.000
     26 H           6.6252   -1.9528   -3.5251 H.spc      1 <1>        0.000
     27 H           4.9950   -2.5794   -3.0090 H.spc      1 <1>        0.000
     28 H           1.2354   -1.1308    0.5467 H.spc      1 <1>        0.000
     29 H          -0.0073    0.2750    0.5804 H.spc      1 <1>        0.000
     30 H           7.3123   -2.7379   -1.5844 H.spc      1 <1>        0.000
     31 H           6.4363   -1.2550   -0.8801 H.spc      1 <1>        0.000
     32 H           5.0461   -3.9535   -0.9955 H.spc      1 <1>        0.000
     33 H           4.7722   -3.6881    1.3185 H.spc      1 <1>        0.000
     34 H           7.0924   -1.9261    1.7297 H.spc      1 <1>        0.000
     35 H           5.8886   -0.1965    2.7999 H.spc      1 <1>        0.000
     36 H           3.4093   -1.6593    1.6952 H.spc      1 <1>        0.000
     37 H           3.4411   -0.5007    3.0706 H.spc      1 <1>        0.000
     38 H           4.0255    1.2983    1.4674 H.spc      1 <1>        0.000
     39 H           3.7664    0.0930    0.1189 H.spc      1 <1>        0.000
     40 H           1.6649    0.6628    2.1319 H.spc      1 <1>        0.000
     41 H           1.9480    1.7385    0.5970 H.spc      1 <1>        0.000
@<TRIPOS>BOND
     1    5    6 1  
     2    2    3 1  
     3    6    7 1  
     4    3    4 1  
     5    9   10 1  
     6    5   17 2  
     7    1    8 1  
     8    7    9 1  
     9    4    5 1  
    10    1    2 1  
    11   16    8 1  
    12   15   16 1  
    13   14   15 1  
    14   13   14 1  
    15   12   13 2  
    16   11   12 1  
    17   10   11 2  
    18    1   18 1  
    19    1   19 1  
    20    2   20 1  
    21    2   21 1  
    22    3   22 1  
    23    3   23 1  
    24    4   24 1  
    25    4   25 1  
    26    7   26 1  
    27    7   27 1  
    28    8   28 1  
    29    8   29 1  
    30    9   30 1  
    31    9   31 1  
    32   10   32 1  
    33   11   33 1  
    34   12   34 1  
    35   13   35 1  
    36   14   36 1  
    37   14   37 1  
    38   15   38 1  
    39   15   39 1  
    40   16   40 1  
    41   16   41 1  
# Name:          frag5-678-23/41815 -- energy: -6.736835
# Creation time: Sat Jun  5 12:53:03 2010


@<TRIPOS>MOLECULE
frag5-678-23/41815 -- energy: -6.736835
   41    41     1     1     1
SMALL
USER_CHARGES


@<TRIPOS>ATOM
      1 C6          1.1281    0.7980   -1.0195 C.3        1 <1>        0.000
      2 C7          2.3569    0.8172   -1.8927 C.3        1 <1>        0.000
      3 C8          2.2686    0.0465   -3.1865 C.3        1 <1>        0.000
      4 C9          3.3571    0.2427   -4.1970 C.3        1 <1>        0.000
      5 C10         4.5765   -0.6194   -4.0478 C.2        1 <1>        0.000
      6 O4          5.0442   -1.0018   -2.8467 O.3        1 <1>        0.000
      7 C11         6.2680   -1.7054   -2.9134 C.3        1 <1>        0.000
      8 C20         1.1912    1.3556    0.3837 C.3        1 <1>        0.000
      9 C12         6.9766   -2.0986   -1.6128 C.3        1 <1>        0.000
     10 C13         6.2342   -2.9997   -0.6856 C.2        1 <1>        0.000
     11 C14         5.7701   -2.7195    0.5441 C.2        1 <1>        0.000
     12 C15         5.8333   -1.5335    1.3349 C.2        1 <1>        0.000
     13 C16         4.8702   -0.9462    2.0697 C.2        1 <1>        0.000
     14 C17         3.4551   -1.3827    2.2411 C.3        1 <1>        0.000
     15 C18         2.4496   -0.7520    1.2759 C.3        1 <1>        0.000
     16 C19         2.1029    0.7147    1.4101 C.3        1 <1>        0.000
     17 O7          5.1441   -0.9362   -5.1006 O.2        1 <1>        0.000
     18 H           0.4155    1.4405   -1.5368 H.spc      1 <1>        0.000
     19 H           0.9067   -0.2605   -0.8829 H.spc      1 <1>        0.000
     20 H           2.5163    1.8592   -2.1700 H.spc      1 <1>        0.000
     21 H           3.1498    0.3459   -1.3119 H.spc      1 <1>        0.000
     22 H           1.3574    0.3976   -3.6708 H.spc      1 <1>        0.000
     23 H           2.3240   -1.0042   -2.9018 H.spc      1 <1>        0.000
     24 H           3.6987    1.2706   -4.0754 H.spc      1 <1>        0.000
     25 H           2.9218   -0.0163   -5.1622 H.spc      1 <1>        0.000
     26 H           6.9562   -1.0216   -3.4103 H.spc      1 <1>        0.000
     27 H           6.0197   -2.6522   -3.3930 H.spc      1 <1>        0.000
     28 H           0.1868    1.2102    0.7813 H.spc      1 <1>        0.000
     29 H           1.5852    2.3643    0.2598 H.spc      1 <1>        0.000
     30 H           7.8682   -2.6489   -1.9134 H.spc      1 <1>        0.000
     31 H           7.1318   -1.1692   -1.0649 H.spc      1 <1>        0.000
     32 H           6.0446   -4.0094   -1.0497 H.spc      1 <1>        0.000
     33 H           5.2511   -3.5489    1.0247 H.spc      1 <1>        0.000
     34 H           6.8004   -1.0307    1.3456 H.spc      1 <1>        0.000
     35 H           5.1603   -0.0417    2.6042 H.spc      1 <1>        0.000
     36 H           3.4362   -2.4559    2.0513 H.spc      1 <1>        0.000
     37 H           3.1557   -1.0780    3.2439 H.spc      1 <1>        0.000
     38 H           2.9187   -0.8358    0.2956 H.spc      1 <1>        0.000
     39 H           1.5138   -1.2755    1.4718 H.spc      1 <1>        0.000
     40 H           1.5583    0.7878    2.3515 H.spc      1 <1>        0.000
     41 H           3.0536    1.2371    1.3038 H.spc      1 <1>        0.000
@<TRIPOS>BOND
     1    5    6 1  
     2    2    3 1  
     3    6    7 1  
     4    3    4 1  
     5    9   10 1  
     6    5   17 2  
     7    1    8 1  
     8    7    9 1  
     9    4    5 1  
    10    1    2 1  
    11   16    8 1  
    12   15   16 1  
    13   14   15 1  
    14   13   14 1  
    15   12   13 2  
    16   11   12 1  
    17   10   11 2  
    18    1   18 1  
    19    1   19 1  
    20    2   20 1  
    21    2   21 1  
    22    3   22 1  
    23    3   23 1  
    24    4   24 1  
    25    4   25 1  
    26    7   26 1  
    27    7   27 1  
    28    8   28 1  
    29    8   29 1  
    30    9   30 1  
    31    9   31 1  
    32   10   32 1  
    33   11   33 1  
    34   12   34 1  
    35   13   35 1  
    36   14   36 1  
    37   14   37 1  
    38   15   38 1  
    39   15   39 1  
    40   16   40 1  
    41   16   41 1  
# Name:          frag5-678-23/41815 -- energy: -7.495850
# Creation time: Sat Jun  5 12:53:03 2010


@<TRIPOS>MOLECULE
frag5-678-23/41815 -- energy: -7.495850
   41    41     1     1     1
SMALL
USER_CHARGES


@<TRIPOS>ATOM
      1 C6          1.4286    1.1043   -1.3087 C.3        1 <1>        0.000
      2 C7          1.6728   -0.1562   -2.1106 C.3        1 <1>        0.000
      3 C8          2.1865   -0.0253   -3.5353 C.3        1 <1>        0.000
      4 C9          3.5430    0.5847   -3.8145 C.3        1 <1>        0.000
      5 C10         4.6855   -0.3642   -3.5522 C.2        1 <1>        0.000
      6 O4          5.2403   -0.3741   -2.3293 O.3        1 <1>        0.000
      7 C11         6.3367   -1.2666   -2.2022 C.3        1 <1>        0.000
      8 C20         0.9388    0.9909    0.1171 C.3        1 <1>        0.000
      9 C12         6.0536   -2.7648   -2.0722 C.3        1 <1>        0.000
     10 C13         5.7388   -3.3458   -0.7284 C.2        1 <1>        0.000
     11 C14         5.7896   -2.8963    0.5287 C.2        1 <1>        0.000
     12 C15         6.1756   -1.6883    1.1789 C.2        1 <1>        0.000
     13 C16         5.4042   -0.8030    1.8230 C.2        1 <1>        0.000
     14 C17         3.9346   -0.7982    2.0682 C.3        1 <1>        0.000
     15 C18         3.1859    0.0732    1.0851 C.3        1 <1>        0.000
     16 C19         1.6744    0.0928    1.0865 C.3        1 <1>        0.000
     17 O7          5.0377   -1.0834   -4.4774 O.2        1 <1>        0.000
     18 H           2.4071    1.5780   -1.2300 H.spc      1 <1>        0.000
     19 H           0.6274    1.6200   -1.8380 H.spc      1 <1>        0.000
     20 H           2.4588   -0.6867   -1.5731 H.spc      1 <1>        0.000
     21 H           0.6943   -0.6272   -2.2039 H.spc      1 <1>        0.000
     22 H           1.4835    0.6588   -4.0106 H.spc      1 <1>        0.000
     23 H           2.2808   -1.0549   -3.8805 H.spc      1 <1>        0.000
     24 H           3.6642    1.4399   -3.1496 H.spc      1 <1>        0.000
     25 H           3.5732    0.8547   -4.8701 H.spc      1 <1>        0.000
     26 H           6.8219   -0.9878   -1.2668 H.spc      1 <1>        0.000
     27 H           6.8951   -1.1636   -3.1326 H.spc      1 <1>        0.000
     28 H          -0.0561    0.5535    0.0344 H.spc      1 <1>        0.000
     29 H           1.0505    1.9938    0.5291 H.spc      1 <1>        0.000
     30 H           5.1502   -2.9262   -2.6603 H.spc      1 <1>        0.000
     31 H           6.9845   -3.2476   -2.3696 H.spc      1 <1>        0.000
     32 H           5.3860   -4.3753   -0.7903 H.spc      1 <1>        0.000
     33 H           5.4475   -3.6473    1.2408 H.spc      1 <1>        0.000
     34 H           7.2396   -1.4538    1.1479 H.spc      1 <1>        0.000
     35 H           5.9384    0.0533    2.2348 H.spc      1 <1>        0.000
     36 H           3.5718   -1.8199    1.9559 H.spc      1 <1>        0.000
     37 H           3.7620   -0.4012    3.0685 H.spc      1 <1>        0.000
     38 H           3.4708    1.0907    1.3526 H.spc      1 <1>        0.000
     39 H           3.4512   -0.3303    0.1079 H.spc      1 <1>        0.000
     40 H           1.3849   -0.9183    0.8002 H.spc      1 <1>        0.000
     41 H           1.4041    0.4708    2.0725 H.spc      1 <1>        0.000
@<TRIPOS>BOND
     1    5    6 1  
     2    2    3 1  
     3    6    7 1  
     4    3    4 1  
     5    9   10 1  
     6    5   17 2  
     7    1    8 1  
     8    7    9 1  
     9    4    5 1  
    10    1    2 1  
    11   16    8 1  
    12   15   16 1  
    13   14   15 1  
    14   13   14 1  
    15   12   13 2  
    16   11   12 1  
    17   10   11 2  
    18    1   18 1  
    19    1   19 1  
    20    2   20 1  
    21    2   21 1  
    22    3   22 1  
    23    3   23 1  
    24    4   24 1  
    25    4   25 1  
    26    7   26 1  
    27    7   27 1  
    28    8   28 1  
    29    8   29 1  
    30    9   30 1  
    31    9   31 1  
    32   10   32 1  
    33   11   33 1  
    34   12   34 1  
    35   13   35 1  
    36   14   36 1  
    37   14   37 1  
    38   15   38 1  
    39   15   39 1  
    40   16   40 1  
    41   16   41 1  
