#      Rotatable Fragment
#      Build by yxyuan
#
# Name:          frag5-643-78/138278
# Creation time: Sat Jun  5 12:53:49 2010


@<TRIPOS>MOLECULE
frag5-643-78/138278
   12    12     1     1     1
SMALL
USER_CHARGES


@<TRIPOS>ATOM
      1 C9          0.3780    0.7114    0.0329 C.ar       1 <1>        0.000
      2 C11         1.5718    0.0304   -0.0446 C.ar       1 <1>        0.000
      3 N3          0.3185    2.0785    0.0231 N.ar       1 <1>        0.000
      4 C12         2.7620    0.7654   -0.2031 C.ar       1 <1>        0.000
      5 C14         1.4793    2.7942   -0.0909 C.ar       1 <1>        0.000
      6 C15         2.7162    2.1815   -0.1763 C.ar       1 <1>        0.000
      7 S2          4.3393    0.0065   -0.1286 S.3        1 <1>        0.000
      8 H          -0.5496    0.1435    0.1044 H.spc      1 <1>        0.000
      9 H           1.5951   -1.0577    0.0156 H.spc      1 <1>        0.000
     10 H           1.4273    3.8827   -0.1152 H.spc      1 <1>        0.000
     11 H           3.6313    2.7720   -0.2218 H.spc      1 <1>        0.000
     12 H           5.2816    0.9274   -0.3098 H.spc      1 <1>        0.000
@<TRIPOS>BOND
     1    1    2 ar 
     2    1    3 ar 
     3    2    4 ar 
     4    3    5 ar 
     5    4    6 ar 
     6    4    7 1  
     7    5    6 ar 
     8    1    8 1  
     9    2    9 1  
    10    5   10 1  
    11    6   11 1  
    12    7   12 1  
# Name:          frag5-643-78/138278 -- energy: -0.119552
# Creation time: Sat Jun  5 12:53:49 2010


@<TRIPOS>MOLECULE
frag5-643-78/138278 -- energy: -0.119552
   12    12     1     1     1
SMALL
USER_CHARGES


@<TRIPOS>ATOM
      1 C9          0.3780    0.7114    0.0329 C.ar       1 <1>        0.000
      2 C11         1.5718    0.0304   -0.0446 C.ar       1 <1>        0.000
      3 N3          0.3185    2.0785    0.0231 N.ar       1 <1>        0.000
      4 C12         2.7620    0.7654   -0.2031 C.ar       1 <1>        0.000
      5 C14         1.4793    2.7942   -0.0909 C.ar       1 <1>        0.000
      6 C15         2.7162    2.1815   -0.1763 C.ar       1 <1>        0.000
      7 S2          4.3393    0.0065   -0.1286 S.3        1 <1>        0.000
      8 H          -0.5496    0.1435    0.1044 H.spc      1 <1>        0.000
      9 H           1.5951   -1.0577    0.0156 H.spc      1 <1>        0.000
     10 H           1.4273    3.8827   -0.1152 H.spc      1 <1>        0.000
     11 H           3.6313    2.7720   -0.2218 H.spc      1 <1>        0.000
     12 H           5.2816    0.9274   -0.3098 H.spc      1 <1>        0.000
@<TRIPOS>BOND
     1    1    2 ar 
     2    1    3 ar 
     3    2    4 ar 
     4    3    5 ar 
     5    4    6 ar 
     6    4    7 1  
     7    5    6 ar 
     8    1    8 1  
     9    2    9 1  
    10    5   10 1  
    11    6   11 1  
    12    7   12 1  
