#      Rotatable Fragment
#      Build by yxyuan
#
# Name:          frag4-297-1219/48856
# Creation time: Sat Jun  5 12:52:47 2010


@<TRIPOS>MOLECULE
frag4-297-1219/48856
   18    18     1     1     1
SMALL
USER_CHARGES


@<TRIPOS>ATOM
      1 N5         -4.2882   -2.1915    1.9371 N.4        1 <1>        0.000
      2 C18        -4.1943   -0.9180    2.6859 C.3        1 <1>        0.000
      3 C19        -5.5832   -0.3499    3.0202 C.3        1 <1>        0.000
      4 C20        -6.4209   -1.3865    3.7910 C.3        1 <1>        0.000
      5 C21        -6.4829   -2.7132    3.0123 C.3        1 <1>        0.000
      6 C22        -5.0673   -3.2102    2.6761 C.3        1 <1>        0.000
      7 H          -3.3438   -2.5506    1.7972 H.spc      1 <1>        0.000
      8 H          -4.7604   -2.0079    1.0518 H.spc      1 <1>        0.000
      9 H          -3.6675   -0.1932    2.0652 H.spc      1 <1>        0.000
     10 H          -3.6672   -1.1079    3.6209 H.spc      1 <1>        0.000
     11 H          -6.0962   -0.1012    2.0912 H.spc      1 <1>        0.000
     12 H          -5.4618    0.5381    3.6405 H.spc      1 <1>        0.000
     13 H          -5.9581   -1.5659    4.7614 H.spc      1 <1>        0.000
     14 H          -7.4328   -1.0017    3.9176 H.spc      1 <1>        0.000
     15 H          -7.0305   -2.5523    2.0837 H.spc      1 <1>        0.000
     16 H          -6.9828   -3.4610    3.6280 H.spc      1 <1>        0.000
     17 H          -5.1556   -4.0964    2.0477 H.spc      1 <1>        0.000
     18 H          -4.5492   -3.4265    3.6104 H.spc      1 <1>        0.000
@<TRIPOS>BOND
     1    4    5 1  
     2    5    6 1  
     3    1    2 1  
     4    1    6 1  
     5    2    3 1  
     6    3    4 1  
     7    1    7 1  
     8    1    8 1  
     9    2    9 1  
    10    2   10 1  
    11    3   11 1  
    12    3   12 1  
    13    4   13 1  
    14    4   14 1  
    15    5   15 1  
    16    5   16 1  
    17    6   17 1  
    18    6   18 1  
# Name:          frag4-297-1219/48856 -- energy: -1.633561
# Creation time: Sat Jun  5 12:52:47 2010


@<TRIPOS>MOLECULE
frag4-297-1219/48856 -- energy: -1.633561
   18    18     1     1     1
SMALL
USER_CHARGES


@<TRIPOS>ATOM
      1 N5         -4.2882   -2.1915    1.9371 N.4        1 <1>        0.000
      2 C18        -4.1943   -0.9180    2.6859 C.3        1 <1>        0.000
      3 C19        -5.5832   -0.3499    3.0202 C.3        1 <1>        0.000
      4 C20        -6.4209   -1.3865    3.7910 C.3        1 <1>        0.000
      5 C21        -6.4829   -2.7132    3.0123 C.3        1 <1>        0.000
      6 C22        -5.0673   -3.2102    2.6761 C.3        1 <1>        0.000
      7 H          -3.3438   -2.5506    1.7972 H.spc      1 <1>        0.000
      8 H          -4.7604   -2.0079    1.0518 H.spc      1 <1>        0.000
      9 H          -3.6675   -0.1932    2.0652 H.spc      1 <1>        0.000
     10 H          -3.6672   -1.1079    3.6209 H.spc      1 <1>        0.000
     11 H          -6.0962   -0.1012    2.0912 H.spc      1 <1>        0.000
     12 H          -5.4618    0.5381    3.6405 H.spc      1 <1>        0.000
     13 H          -5.9581   -1.5659    4.7614 H.spc      1 <1>        0.000
     14 H          -7.4328   -1.0017    3.9176 H.spc      1 <1>        0.000
     15 H          -7.0305   -2.5523    2.0837 H.spc      1 <1>        0.000
     16 H          -6.9828   -3.4610    3.6280 H.spc      1 <1>        0.000
     17 H          -5.1556   -4.0964    2.0477 H.spc      1 <1>        0.000
     18 H          -4.5492   -3.4265    3.6104 H.spc      1 <1>        0.000
@<TRIPOS>BOND
     1    4    5 1  
     2    5    6 1  
     3    1    2 1  
     4    1    6 1  
     5    2    3 1  
     6    3    4 1  
     7    1    7 1  
     8    1    8 1  
     9    2    9 1  
    10    2   10 1  
    11    3   11 1  
    12    3   12 1  
    13    4   13 1  
    14    4   14 1  
    15    5   15 1  
    16    5   16 1  
    17    6   17 1  
    18    6   18 1  
