#      Rotatable Fragment
#      Build by yxyuan
#
# Name:          frag3-135-30/31924
# Creation time: Sat Jun  5 12:52:03 2010


@<TRIPOS>MOLECULE
frag3-135-30/31924
    9     8     1     1     1
SMALL
USER_CHARGES


@<TRIPOS>ATOM
      1 N1         -1.7082    0.6454   -0.7327 N.am       1 <1>        0.000
      2 O1         -2.0487   -0.2812   -1.6749 O.3        1 <1>        0.000
      3 C7         -2.5766    1.6095   -0.3720 C.2        1 <1>        0.000
      4 O3         -2.3360    2.3443    0.5782 O.2        1 <1>        0.000
      5 N2         -3.7192    1.7537   -1.0743 N.am       1 <1>        0.000
      6 H          -0.7866    0.6074   -0.2972 H.spc      1 <1>        0.000
      7 H          -1.3154   -0.8867   -1.8062 H.spc      1 <1>        0.000
      8 H          -4.3891    2.4780   -0.8153 H.spc      1 <1>        0.000
      9 H          -3.9133    1.1385   -1.8644 H.spc      1 <1>        0.000
@<TRIPOS>BOND
     1    1    2 1  
     2    1    3 am 
     3    3    4 2  
     4    3    5 am 
     5    1    6 1  
     6    2    7 1  
     7    5    8 1  
     8    5    9 1  
# Name:          frag3-135-30/31924
# Creation time: Sat Jun  5 12:52:03 2010


@<TRIPOS>MOLECULE
frag3-135-30/31924
    9     8     1     1     1
SMALL
USER_CHARGES


@<TRIPOS>ATOM
      1 N1         -2.4463    0.4468   -1.2195 N.am       1 <1>        0.000
      2 O1         -1.2110   -0.1200   -1.0648 O.3        1 <1>        0.000
      3 C7         -2.7647    1.5641   -0.5173 C.2        1 <1>        0.000
      4 O3         -2.0496    1.9767    0.3698 O.2        1 <1>        0.000
      5 N2         -3.9172    2.2041   -0.8438 N.am       1 <1>        0.000
      6 H          -3.1244    0.0323   -1.8589 H.spc      1 <1>        0.000
      7 H          -1.1437   -0.8961   -1.6258 H.spc      1 <1>        0.000
      8 H          -4.1932    3.0466   -0.3394 H.spc      1 <1>        0.000
      9 H          -4.5067    1.8423   -1.5934 H.spc      1 <1>        0.000
@<TRIPOS>BOND
     1    1    2 1  
     2    1    3 am 
     3    3    4 2  
     4    3    5 am 
     5    1    6 1  
     6    2    7 1  
     7    5    8 1  
     8    5    9 1  
# Name:          frag3-135-30/31924 -- energy: -0.182979
# Creation time: Sat Jun  5 12:52:03 2010


@<TRIPOS>MOLECULE
frag3-135-30/31924 -- energy: -0.182979
    9     8     1     1     1
SMALL
USER_CHARGES


@<TRIPOS>ATOM
      1 N1         -1.7082    0.6454   -0.7327 N.am       1 <1>        0.000
      2 O1         -2.0487   -0.2812   -1.6749 O.3        1 <1>        0.000
      3 C7         -2.5766    1.6095   -0.3720 C.2        1 <1>        0.000
      4 O3         -2.3360    2.3443    0.5782 O.2        1 <1>        0.000
      5 N2         -3.7192    1.7537   -1.0743 N.am       1 <1>        0.000
      6 H          -0.7866    0.6074   -0.2972 H.spc      1 <1>        0.000
      7 H          -1.3154   -0.8867   -1.8062 H.spc      1 <1>        0.000
      8 H          -4.3891    2.4780   -0.8153 H.spc      1 <1>        0.000
      9 H          -3.9133    1.1385   -1.8644 H.spc      1 <1>        0.000
@<TRIPOS>BOND
     1    1    2 1  
     2    1    3 am 
     3    3    4 2  
     4    3    5 am 
     5    1    6 1  
     6    2    7 1  
     7    5    8 1  
     8    5    9 1  
# Name:          frag3-135-30/31924 -- energy: -0.276293
# Creation time: Sat Jun  5 12:52:03 2010


@<TRIPOS>MOLECULE
frag3-135-30/31924 -- energy: -0.276293
    9     8     1     1     1
SMALL
USER_CHARGES


@<TRIPOS>ATOM
      1 N1         -2.4463    0.4468   -1.2195 N.am       1 <1>        0.000
      2 O1         -1.2110   -0.1200   -1.0648 O.3        1 <1>        0.000
      3 C7         -2.7647    1.5641   -0.5173 C.2        1 <1>        0.000
      4 O3         -2.0496    1.9767    0.3698 O.2        1 <1>        0.000
      5 N2         -3.9172    2.2041   -0.8438 N.am       1 <1>        0.000
      6 H          -3.1244    0.0323   -1.8589 H.spc      1 <1>        0.000
      7 H          -1.1437   -0.8961   -1.6258 H.spc      1 <1>        0.000
      8 H          -4.1932    3.0466   -0.3394 H.spc      1 <1>        0.000
      9 H          -4.5067    1.8423   -1.5934 H.spc      1 <1>        0.000
@<TRIPOS>BOND
     1    1    2 1  
     2    1    3 am 
     3    3    4 2  
     4    3    5 am 
     5    1    6 1  
     6    2    7 1  
     7    5    8 1  
     8    5    9 1  
