#      Rotatable Fragment
#      Build by yxyuan
#
# Name:          frag5-510-459/138278
# Creation time: Sat Jun  5 12:53:40 2010


@<TRIPOS>MOLECULE
frag5-510-459/138278
   15    15     1     1     1
SMALL
USER_CHARGES


@<TRIPOS>ATOM
      1 C20         0.9654    0.1106    0.2250 C.ar       1 <1>        0.000
      2 C21         1.0085    1.5014    0.2585 C.ar       1 <1>        0.000
      3 C22         2.1483   -0.6107    0.0919 C.ar       1 <1>        0.000
      4 C23         2.2216    2.1875    0.1513 C.ar       1 <1>        0.000
      5 C24         3.3844    0.0382    0.0205 C.ar       1 <1>        0.000
      6 C25         3.4182    1.4448    0.0722 C.ar       1 <1>        0.000
      7 O1          2.2390    3.5669    0.1277 O.3        1 <1>        0.000
      8 O2          4.5505   -0.6924   -0.0954 O.3        1 <1>        0.000
      9 O3          4.6409    2.0922    0.0386 O.3        1 <1>        0.000
     10 H           0.0112   -0.4105    0.3025 H.spc      1 <1>        0.000
     11 H           0.0818    2.0643    0.3701 H.spc      1 <1>        0.000
     12 H           2.1102   -1.6989    0.0426 H.spc      1 <1>        0.000
     13 H           3.1456    3.8731    0.0509 H.spc      1 <1>        0.000
     14 H           5.2998   -0.0934   -0.1313 H.spc      1 <1>        0.000
     15 H           5.3448    1.4416   -0.0151 H.spc      1 <1>        0.000
@<TRIPOS>BOND
     1    1    2 ar 
     2    1    3 ar 
     3    2    4 ar 
     4    4    6 ar 
     5    4    7 1  
     6    3    5 ar 
     7    5    8 1  
     8    5    6 ar 
     9    6    9 1  
    10    1   10 1  
    11    2   11 1  
    12    3   12 1  
    13    7   13 1  
    14    8   14 1  
    15    9   15 1  
