#      Rotatable Fragment
#      Build by yxyuan
#
# Name:          frag5-676-62/138278
# Creation time: Sat Jun  5 12:51:52 2010


@<TRIPOS>MOLECULE
frag5-676-62/138278
   15    16     1     1     1
SMALL
USER_CHARGES


@<TRIPOS>ATOM
      1 N1         -1.3040    0.8070    0.1318 N.ar       1 <1>        0.000
      2 C1          0.0510    0.6770    0.1972 C.ar       1 <1>        0.000
      3 C2         -1.9345   -0.2274   -0.2120 C.ar       1 <1>        0.000
      4 C4          0.3115   -0.6381   -0.1599 C.ar       1 <1>        0.000
      5 C5          1.1075    1.5212    0.5183 C.ar       1 <1>        0.000
      6 N2         -0.9807   -1.1774   -0.4129 N.ar       1 <1>        0.000
      7 N3         -3.1605   -0.4049   -0.3521 N.2        1 <1>        0.000
      8 C7          1.5939   -1.1520   -0.2100 C.ar       1 <1>        0.000
      9 C8          2.4257    1.0240    0.4760 C.ar       1 <1>        0.000
     10 C10         2.6627   -0.3139    0.1108 C.ar       1 <1>        0.000
     11 H           0.9185    2.5571    0.7999 H.spc      1 <1>        0.000
     12 H          -3.8100    0.3621   -0.1782 H.spc      1 <1>        0.000
     13 H           1.7666   -2.1900   -0.4941 H.spc      1 <1>        0.000
     14 H           3.2621    1.6765    0.7264 H.spc      1 <1>        0.000
     15 H           3.6828   -0.6965    0.0784 H.spc      1 <1>        0.000
@<TRIPOS>BOND
     1    5    9 ar 
     2    9   10 ar 
     3    8   10 ar 
     4    4    6 ar 
     5    1    2 ar 
     6    1    3 ar 
     7    2    4 ar 
     8    2    5 ar 
     9    3    6 ar 
    10    3    7 2  
    11    4    8 ar 
    12    5   11 1  
    13    7   12 1  
    14    8   13 1  
    15    9   14 1  
    16   10   15 1  
# Name:          frag5-676-62/138278 -- energy: -0.393477
# Creation time: Sat Jun  5 12:51:52 2010


@<TRIPOS>MOLECULE
frag5-676-62/138278 -- energy: -0.393477
   15    16     1     1     1
SMALL
USER_CHARGES


@<TRIPOS>ATOM
      1 N1         -1.3040    0.8070    0.1318 N.ar       1 <1>        0.000
      2 C1          0.0510    0.6770    0.1972 C.ar       1 <1>        0.000
      3 C2         -1.9345   -0.2274   -0.2120 C.ar       1 <1>        0.000
      4 C4          0.3115   -0.6381   -0.1599 C.ar       1 <1>        0.000
      5 C5          1.1075    1.5212    0.5183 C.ar       1 <1>        0.000
      6 N2         -0.9807   -1.1774   -0.4129 N.ar       1 <1>        0.000
      7 N3         -3.1605   -0.4049   -0.3521 N.2        1 <1>        0.000
      8 C7          1.5939   -1.1520   -0.2100 C.ar       1 <1>        0.000
      9 C8          2.4257    1.0240    0.4760 C.ar       1 <1>        0.000
     10 C10         2.6627   -0.3139    0.1108 C.ar       1 <1>        0.000
     11 H           0.9185    2.5571    0.7999 H.spc      1 <1>        0.000
     12 H          -3.8100    0.3621   -0.1782 H.spc      1 <1>        0.000
     13 H           1.7666   -2.1900   -0.4941 H.spc      1 <1>        0.000
     14 H           3.2621    1.6765    0.7264 H.spc      1 <1>        0.000
     15 H           3.6828   -0.6965    0.0784 H.spc      1 <1>        0.000
@<TRIPOS>BOND
     1    5    9 ar 
     2    9   10 ar 
     3    8   10 ar 
     4    4    6 ar 
     5    1    2 ar 
     6    1    3 ar 
     7    2    4 ar 
     8    2    5 ar 
     9    3    6 ar 
    10    3    7 2  
    11    4    8 ar 
    12    5   11 1  
    13    7   12 1  
    14    8   13 1  
    15    9   14 1  
    16   10   15 1  
