#      Rotatable Fragment
#      Build by yxyuan
#
# Name:          frag4-425-138/150395
# Creation time: Sat Jun  5 12:53:35 2010


@<TRIPOS>MOLECULE
frag4-425-138/150395
   43    46     1     1     1
SMALL
USER_CHARGES


@<TRIPOS>ATOM
      1 C1         -2.2039   -0.5782   -0.2403 C.3        1 <1>        0.000
      2 C2         -0.8857   -1.2349    0.2961 C.3        1 <1>        0.000
      3 C3         -3.4801   -1.2958    0.2617 C.3        1 <1>        0.000
      4 C4         -2.2752    0.9692   -0.1164 C.3        1 <1>        0.000
      5 C5          0.3838   -0.5651   -0.2110 C.3        1 <1>        0.000
      6 C6         -0.9018   -2.7269    0.0385 C.3        1 <1>        0.000
      7 C7         -3.3528   -2.8194    0.2781 C.2        1 <1>        0.000
      8 C8         -4.7490   -0.8642   -0.4654 C.3        1 <1>        0.000
      9 C10        -0.8516    1.5343    0.0531 C.3        1 <1>        0.000
     10 C11         0.5345    0.8981    0.2308 C.3        1 <1>        0.000
     11 C12         1.7691   -1.0963    0.0628 C.3        1 <1>        0.000
     12 C13        -2.0574   -3.4158    0.6914 C.3        1 <1>        0.000
     13 C14        -4.3773   -3.6451    0.0040 C.2        1 <1>        0.000
     14 C15        -5.9612   -1.5916   -0.0275 C.3        1 <1>        0.000
     15 C16         1.8139    1.2844   -0.4525 C.3        1 <1>        0.000
     16 C18         2.6966    0.0606   -0.2637 C.3        1 <1>        0.000
     17 C19        -5.6242   -2.9939   -0.2548 C.3        1 <1>        0.000
     18 H          -2.1615   -0.7415   -1.3172 H.spc      1 <1>        0.000
     19 H          -0.8631   -1.0738    1.3739 H.spc      1 <1>        0.000
     20 H          -3.5791   -0.9687    1.2967 H.spc      1 <1>        0.000
     21 H          -2.7280    1.3862   -1.0159 H.spc      1 <1>        0.000
     22 H          -2.8794    1.2378    0.7502 H.spc      1 <1>        0.000
     23 H           0.1466   -0.7739   -1.2542 H.spc      1 <1>        0.000
     24 H           0.0146   -3.1469    0.4531 H.spc      1 <1>        0.000
     25 H          -0.9875   -2.8788   -1.0375 H.spc      1 <1>        0.000
     26 H          -4.6061   -1.0764   -1.5249 H.spc      1 <1>        0.000
     27 H          -4.9062    0.1923   -0.2481 H.spc      1 <1>        0.000
     28 H          -0.9629    1.9706    1.0458 H.spc      1 <1>        0.000
     29 H          -0.7173    1.9493   -0.9458 H.spc      1 <1>        0.000
     30 H           0.7113    1.2326    1.2530 H.spc      1 <1>        0.000
     31 H           1.8808   -1.4284    1.0950 H.spc      1 <1>        0.000
     32 H           1.9924   -1.9785   -0.5371 H.spc      1 <1>        0.000
     33 H          -2.0488   -4.4635    0.3907 H.spc      1 <1>        0.000
     34 H          -1.9574   -3.3081    1.7714 H.spc      1 <1>        0.000
     35 H          -4.2663   -4.7292   -0.0193 H.spc      1 <1>        0.000
     36 H          -6.2151   -1.3883    1.0128 H.spc      1 <1>        0.000
     37 H          -6.8517   -1.2838   -0.5756 H.spc      1 <1>        0.000
     38 H           1.6682    1.5380   -1.5025 H.spc      1 <1>        0.000
     39 H           2.2560    2.1885   -0.0340 H.spc      1 <1>        0.000
     40 H           3.4174    0.2202    0.5382 H.spc      1 <1>        0.000
     41 H           3.2743   -0.1457   -1.1647 H.spc      1 <1>        0.000
     42 H          -5.6714   -3.0501   -1.3423 H.spc      1 <1>        0.000
     43 H          -6.2756   -3.4884    0.4658 H.spc      1 <1>        0.000
@<TRIPOS>BOND
     1    4    9 1  
     2    2    6 1  
     3    2    5 1  
     4    1    3 1  
     5    1    4 1  
     6    3    8 1  
     7    1    2 1  
     8    3    7 1  
     9   15   16 1  
    10   14   17 1  
    11   13   17 1  
    12   11   16 1  
    13   10   15 1  
    14    8   14 1  
    15    7   12 1  
    16    9   10 1  
    17    7   13 2  
    18    6   12 1  
    19    5   11 1  
    20    5   10 1  
    21    1   18 1  
    22    2   19 1  
    23    3   20 1  
    24    4   21 1  
    25    4   22 1  
    26    5   23 1  
    27    6   24 1  
    28    6   25 1  
    29    8   26 1  
    30    8   27 1  
    31    9   28 1  
    32    9   29 1  
    33   10   30 1  
    34   11   31 1  
    35   11   32 1  
    36   12   33 1  
    37   12   34 1  
    38   13   35 1  
    39   14   36 1  
    40   14   37 1  
    41   15   38 1  
    42   15   39 1  
    43   16   40 1  
    44   16   41 1  
    45   17   42 1  
    46   17   43 1  
# Name:          frag4-425-138/150395 -- energy: -7.009970
# Creation time: Sat Jun  5 12:53:35 2010


@<TRIPOS>MOLECULE
frag4-425-138/150395 -- energy: -7.009970
   43    46     1     1     1
SMALL
USER_CHARGES


@<TRIPOS>ATOM
      1 C1         -2.2039   -0.5782   -0.2403 C.3        1 <1>        0.000
      2 C2         -0.8857   -1.2349    0.2961 C.3        1 <1>        0.000
      3 C3         -3.4801   -1.2958    0.2617 C.3        1 <1>        0.000
      4 C4         -2.2752    0.9692   -0.1164 C.3        1 <1>        0.000
      5 C5          0.3838   -0.5651   -0.2110 C.3        1 <1>        0.000
      6 C6         -0.9018   -2.7269    0.0385 C.3        1 <1>        0.000
      7 C7         -3.3528   -2.8194    0.2781 C.2        1 <1>        0.000
      8 C8         -4.7490   -0.8642   -0.4654 C.3        1 <1>        0.000
      9 C10        -0.8516    1.5343    0.0531 C.3        1 <1>        0.000
     10 C11         0.5345    0.8981    0.2308 C.3        1 <1>        0.000
     11 C12         1.7691   -1.0963    0.0628 C.3        1 <1>        0.000
     12 C13        -2.0574   -3.4158    0.6914 C.3        1 <1>        0.000
     13 C14        -4.3773   -3.6451    0.0040 C.2        1 <1>        0.000
     14 C15        -5.9612   -1.5916   -0.0275 C.3        1 <1>        0.000
     15 C16         1.8139    1.2844   -0.4525 C.3        1 <1>        0.000
     16 C18         2.6966    0.0606   -0.2637 C.3        1 <1>        0.000
     17 C19        -5.6242   -2.9939   -0.2548 C.3        1 <1>        0.000
     18 H          -2.1615   -0.7415   -1.3172 H.spc      1 <1>        0.000
     19 H          -0.8631   -1.0738    1.3739 H.spc      1 <1>        0.000
     20 H          -3.5791   -0.9687    1.2967 H.spc      1 <1>        0.000
     21 H          -2.7280    1.3862   -1.0159 H.spc      1 <1>        0.000
     22 H          -2.8794    1.2378    0.7502 H.spc      1 <1>        0.000
     23 H           0.1466   -0.7739   -1.2542 H.spc      1 <1>        0.000
     24 H           0.0146   -3.1469    0.4531 H.spc      1 <1>        0.000
     25 H          -0.9875   -2.8788   -1.0375 H.spc      1 <1>        0.000
     26 H          -4.6061   -1.0764   -1.5249 H.spc      1 <1>        0.000
     27 H          -4.9062    0.1923   -0.2481 H.spc      1 <1>        0.000
     28 H          -0.9629    1.9706    1.0458 H.spc      1 <1>        0.000
     29 H          -0.7173    1.9493   -0.9458 H.spc      1 <1>        0.000
     30 H           0.7113    1.2326    1.2530 H.spc      1 <1>        0.000
     31 H           1.8808   -1.4284    1.0950 H.spc      1 <1>        0.000
     32 H           1.9924   -1.9785   -0.5371 H.spc      1 <1>        0.000
     33 H          -2.0488   -4.4635    0.3907 H.spc      1 <1>        0.000
     34 H          -1.9574   -3.3081    1.7714 H.spc      1 <1>        0.000
     35 H          -4.2663   -4.7292   -0.0193 H.spc      1 <1>        0.000
     36 H          -6.2151   -1.3883    1.0128 H.spc      1 <1>        0.000
     37 H          -6.8517   -1.2838   -0.5756 H.spc      1 <1>        0.000
     38 H           1.6682    1.5380   -1.5025 H.spc      1 <1>        0.000
     39 H           2.2560    2.1885   -0.0340 H.spc      1 <1>        0.000
     40 H           3.4174    0.2202    0.5382 H.spc      1 <1>        0.000
     41 H           3.2743   -0.1457   -1.1647 H.spc      1 <1>        0.000
     42 H          -5.6714   -3.0501   -1.3423 H.spc      1 <1>        0.000
     43 H          -6.2756   -3.4884    0.4658 H.spc      1 <1>        0.000
@<TRIPOS>BOND
     1    4    9 1  
     2    2    6 1  
     3    2    5 1  
     4    1    3 1  
     5    1    4 1  
     6    3    8 1  
     7    1    2 1  
     8    3    7 1  
     9   15   16 1  
    10   14   17 1  
    11   13   17 1  
    12   11   16 1  
    13   10   15 1  
    14    8   14 1  
    15    7   12 1  
    16    9   10 1  
    17    7   13 2  
    18    6   12 1  
    19    5   11 1  
    20    5   10 1  
    21    1   18 1  
    22    2   19 1  
    23    3   20 1  
    24    4   21 1  
    25    4   22 1  
    26    5   23 1  
    27    6   24 1  
    28    6   25 1  
    29    8   26 1  
    30    8   27 1  
    31    9   28 1  
    32    9   29 1  
    33   10   30 1  
    34   11   31 1  
    35   11   32 1  
    36   12   33 1  
    37   12   34 1  
    38   13   35 1  
    39   14   36 1  
    40   14   37 1  
    41   15   38 1  
    42   15   39 1  
    43   16   40 1  
    44   16   41 1  
    45   17   42 1  
    46   17   43 1  
