#      Rotatable Fragment
#      Build by yxyuan
#
# Name:          frag5-658-68/138278
# Creation time: Sat Jun  5 12:51:51 2010


@<TRIPOS>MOLECULE
frag5-658-68/138278
   27    28     1     1     1
SMALL
USER_CHARGES


@<TRIPOS>ATOM
      1 N1          1.6289   -0.1030    0.0363 N.am       1 <1>        0.000
      2 S1          0.3538   -0.7480   -0.5995 S.o2       1 <1>        0.000
      3 C1          2.7030   -0.9313    0.4397 C.3        1 <1>        0.000
      4 C2          1.9504    1.2850   -0.0338 C.3        1 <1>        0.000
      5 C3         -0.2356   -2.0178    0.4059 C.ar       1 <1>        0.000
      6 O1         -0.5808    0.3319   -0.6129 O.2        1 <1>        0.000
      7 O2          0.8522   -1.3133   -1.8168 O.2        1 <1>        0.000
      8 C4          3.8718   -0.1059    0.0152 C.3        1 <1>        0.000
      9 C6          3.4069    1.3123    0.3293 C.3        1 <1>        0.000
     10 C7         -0.2746   -3.3986    0.0737 C.ar       1 <1>        0.000
     11 C8         -0.7459   -1.7264    1.6922 C.ar       1 <1>        0.000
     12 C9         -0.9181   -4.3483    0.8550 C.ar       1 <1>        0.000
     13 C10        -1.3089   -2.6693    2.5314 C.ar       1 <1>        0.000
     14 C11        -1.4129   -3.9882    2.1050 C.ar       1 <1>        0.000
     15 H           2.6823   -1.9277   -0.0018 H.spc      1 <1>        0.000
     16 H           2.6974   -1.1757    1.5019 H.spc      1 <1>        0.000
     17 H           1.7512    1.7160   -1.0150 H.spc      1 <1>        0.000
     18 H           1.3378    1.8948    0.6302 H.spc      1 <1>        0.000
     19 H           4.7943   -0.3762    0.5290 H.spc      1 <1>        0.000
     20 H           4.1352   -0.2463   -1.0331 H.spc      1 <1>        0.000
     21 H           3.5754    1.5889    1.3701 H.spc      1 <1>        0.000
     22 H           3.9636    2.0691   -0.2234 H.spc      1 <1>        0.000
     23 H           0.2244   -3.7277   -0.8378 H.spc      1 <1>        0.000
     24 H          -0.6920   -0.6958    2.0430 H.spc      1 <1>        0.000
     25 H          -1.0352   -5.3694    0.4920 H.spc      1 <1>        0.000
     26 H          -1.6683   -2.3811    3.5193 H.spc      1 <1>        0.000
     27 H          -1.8794   -4.7362    2.7460 H.spc      1 <1>        0.000
@<TRIPOS>BOND
     1   13   14 ar 
     2    4    9 1  
     3    5   11 ar 
     4    2    5 1  
     5   11   13 ar 
     6   12   14 ar 
     7    8    9 1  
     8    1    4 1  
     9    2    6 2  
    10    5   10 ar 
    11    1    2 1  
    12    2    7 2  
    13    1    3 1  
    14   10   12 ar 
    15    3    8 1  
    16    3   15 1  
    17    3   16 1  
    18    4   17 1  
    19    4   18 1  
    20    8   19 1  
    21    8   20 1  
    22    9   21 1  
    23    9   22 1  
    24   10   23 1  
    25   11   24 1  
    26   12   25 1  
    27   13   26 1  
    28   14   27 1  
# Name:          frag5-658-68/138278
# Creation time: Sat Jun  5 12:51:51 2010


@<TRIPOS>MOLECULE
frag5-658-68/138278
   27    28     1     1     1
SMALL
USER_CHARGES


@<TRIPOS>ATOM
      1 N1          1.8717   -0.4609   -0.1135 N.am       1 <1>        0.000
      2 S1          0.3411   -0.6353   -0.3829 S.o2       1 <1>        0.000
      3 C1          2.7062   -0.0070   -1.1780 C.3        1 <1>        0.000
      4 C2          2.5301   -0.3245    1.1310 C.3        1 <1>        0.000
      5 C3         -0.2921   -1.9251    0.5471 C.ar       1 <1>        0.000
      6 O1         -0.2224    0.6111    0.0565 O.2        1 <1>        0.000
      7 O2          0.3010   -1.0089   -1.7724 O.2        1 <1>        0.000
      8 C4          3.3612    1.1759   -0.5586 C.3        1 <1>        0.000
      9 C6          3.5822    0.7142    0.8766 C.3        1 <1>        0.000
     10 C7         -1.0287   -1.8298    1.7562 C.ar       1 <1>        0.000
     11 C8         -0.2264   -3.2434    0.0357 C.ar       1 <1>        0.000
     12 C9         -1.4902   -2.9348    2.4620 C.ar       1 <1>        0.000
     13 C10        -0.7611   -4.3524    0.6647 C.ar       1 <1>        0.000
     14 C11        -1.3824   -4.2000    1.8963 C.ar       1 <1>        0.000
     15 H           2.1595    0.2259   -2.0917 H.spc      1 <1>        0.000
     16 H           3.4104   -0.7601   -1.5315 H.spc      1 <1>        0.000
     17 H           1.8471   -0.0324    1.9286 H.spc      1 <1>        0.000
     18 H           2.9560   -1.2662    1.4772 H.spc      1 <1>        0.000
     19 H           4.2837    1.4662   -1.0614 H.spc      1 <1>        0.000
     20 H           2.7606    2.0828   -0.6285 H.spc      1 <1>        0.000
     21 H           4.5846    0.3093    1.0156 H.spc      1 <1>        0.000
     22 H           3.5023    1.5436    1.5794 H.spc      1 <1>        0.000
     23 H          -1.2440   -0.8375    2.1525 H.spc      1 <1>        0.000
     24 H           0.2796   -3.3943   -0.9179 H.spc      1 <1>        0.000
     25 H          -1.9327   -2.8103    3.4503 H.spc      1 <1>        0.000
     26 H          -0.6954   -5.3355    0.1985 H.spc      1 <1>        0.000
     27 H          -1.7842   -5.0687    2.4178 H.spc      1 <1>        0.000
@<TRIPOS>BOND
     1   13   14 ar 
     2    4    9 1  
     3    5   11 ar 
     4    2    5 1  
     5   11   13 ar 
     6   12   14 ar 
     7    8    9 1  
     8    1    4 1  
     9    2    6 2  
    10    5   10 ar 
    11    1    2 1  
    12    2    7 2  
    13    1    3 1  
    14   10   12 ar 
    15    3    8 1  
    16    3   15 1  
    17    3   16 1  
    18    4   17 1  
    19    4   18 1  
    20    8   19 1  
    21    8   20 1  
    22    9   21 1  
    23    9   22 1  
    24   10   23 1  
    25   11   24 1  
    26   12   25 1  
    27   13   26 1  
    28   14   27 1  
# Name:          frag5-658-68/138278
# Creation time: Sat Jun  5 12:51:51 2010


@<TRIPOS>MOLECULE
frag5-658-68/138278
   27    28     1     1     1
SMALL
USER_CHARGES


@<TRIPOS>ATOM
      1 N1          1.6736   -0.0700   -0.5320 N.am       1 <1>        0.000
      2 S1          0.2526   -0.6757   -0.8938 S.o2       1 <1>        0.000
      3 C1          1.8406    1.0054    0.3767 C.3        1 <1>        0.000
      4 C2          2.9428   -0.6821   -0.6942 C.3        1 <1>        0.000
      5 C3         -0.1973   -1.7758    0.3566 C.ar       1 <1>        0.000
      6 O1         -0.6396    0.4464   -0.8287 O.2        1 <1>        0.000
      7 O2          0.4907   -1.4627   -2.0805 O.2        1 <1>        0.000
      8 C4          2.8273    0.5077    1.3608 C.3        1 <1>        0.000
      9 C6          3.5721   -0.5803    0.6457 C.3        1 <1>        0.000
     10 C7         -0.8703   -1.5169    1.5801 C.ar       1 <1>        0.000
     11 C8         -0.0074   -3.1662    0.2071 C.ar       1 <1>        0.000
     12 C9         -1.1815   -2.4707    2.5653 C.ar       1 <1>        0.000
     13 C10        -0.4201   -4.1704    1.0791 C.ar       1 <1>        0.000
     14 C11        -0.9933   -3.8097    2.2786 C.ar       1 <1>        0.000
     15 H           0.9007    1.2915    0.8488 H.spc      1 <1>        0.000
     16 H           2.1820    1.9127   -0.1217 H.spc      1 <1>        0.000
     17 H           2.8603   -1.7153   -1.0316 H.spc      1 <1>        0.000
     18 H           3.5384   -0.1941   -1.4657 H.spc      1 <1>        0.000
     19 H           3.4952    1.2996    1.6997 H.spc      1 <1>        0.000
     20 H           2.3450    0.1398    2.2664 H.spc      1 <1>        0.000
     21 H           4.6351   -0.3515    0.5698 H.spc      1 <1>        0.000
     22 H           3.5126   -1.5250    1.1862 H.spc      1 <1>        0.000
     23 H          -1.1724   -0.4874    1.7725 H.spc      1 <1>        0.000
     24 H           0.5206   -3.4898   -0.6899 H.spc      1 <1>        0.000
     25 H          -1.5642   -2.1598    3.5374 H.spc      1 <1>        0.000
     26 H          -0.2921   -5.2208    0.8177 H.spc      1 <1>        0.000
     27 H          -1.2957   -4.5733    2.9952 H.spc      1 <1>        0.000
@<TRIPOS>BOND
     1   13   14 ar 
     2    4    9 1  
     3    5   11 ar 
     4    2    5 1  
     5   11   13 ar 
     6   12   14 ar 
     7    8    9 1  
     8    1    4 1  
     9    2    6 2  
    10    5   10 ar 
    11    1    2 1  
    12    2    7 2  
    13    1    3 1  
    14   10   12 ar 
    15    3    8 1  
    16    3   15 1  
    17    3   16 1  
    18    4   17 1  
    19    4   18 1  
    20    8   19 1  
    21    8   20 1  
    22    9   21 1  
    23    9   22 1  
    24   10   23 1  
    25   11   24 1  
    26   12   25 1  
    27   13   26 1  
    28   14   27 1  
# Name:          frag5-658-68/138278
# Creation time: Sat Jun  5 12:51:51 2010


@<TRIPOS>MOLECULE
frag5-658-68/138278
   27    28     1     1     1
SMALL
USER_CHARGES


@<TRIPOS>ATOM
      1 N1          1.7179   -0.1765    0.0287 N.am       1 <1>        0.000
      2 S1          0.5948   -1.0190   -0.6424 S.o2       1 <1>        0.000
      3 C1          3.0151   -0.7359    0.1555 C.3        1 <1>        0.000
      4 C2          1.6403    1.2199    0.2818 C.3        1 <1>        0.000
      5 C3         -0.1824   -2.0475    0.4998 C.ar       1 <1>        0.000
      6 O1         -0.3249   -0.0283   -1.1076 O.2        1 <1>        0.000
      7 O2          1.3173   -1.8349   -1.5761 O.2        1 <1>        0.000
      8 C4          3.8567    0.4679   -0.1392 C.3        1 <1>        0.000
      9 C6          3.0765    1.5905    0.5408 C.3        1 <1>        0.000
     10 C7         -0.0748   -2.0953    1.9126 C.ar       1 <1>        0.000
     11 C8         -1.1352   -2.9471   -0.0373 C.ar       1 <1>        0.000
     12 C9         -0.7185   -3.0521    2.6872 C.ar       1 <1>        0.000
     13 C10        -1.8563   -3.8472    0.7228 C.ar       1 <1>        0.000
     14 C11        -1.6362   -3.9155    2.0943 C.ar       1 <1>        0.000
     15 H           3.2025   -1.5846   -0.5023 H.spc      1 <1>        0.000
     16 H           3.2123   -1.1930    1.1252 H.spc      1 <1>        0.000
     17 H           1.2000    1.7777   -0.5447 H.spc      1 <1>        0.000
     18 H           0.9814    1.4647    1.1149 H.spc      1 <1>        0.000
     19 H           4.8788    0.3748    0.2279 H.spc      1 <1>        0.000
     20 H           4.0039    0.6354   -1.2061 H.spc      1 <1>        0.000
     21 H           3.3031    1.6751    1.6036 H.spc      1 <1>        0.000
     22 H           3.3327    2.5756    0.1509 H.spc      1 <1>        0.000
     23 H           0.5405   -1.3479    2.4135 H.spc      1 <1>        0.000
     24 H          -1.3097   -2.9281   -1.1131 H.spc      1 <1>        0.000
     25 H          -0.5063   -3.1266    3.7537 H.spc      1 <1>        0.000
     26 H          -2.5920   -4.4988    0.2514 H.spc      1 <1>        0.000
     27 H          -2.1786   -4.6403    2.7013 H.spc      1 <1>        0.000
@<TRIPOS>BOND
     1   13   14 ar 
     2    4    9 1  
     3    5   11 ar 
     4    2    5 1  
     5   11   13 ar 
     6   12   14 ar 
     7    8    9 1  
     8    1    4 1  
     9    2    6 2  
    10    5   10 ar 
    11    1    2 1  
    12    2    7 2  
    13    1    3 1  
    14   10   12 ar 
    15    3    8 1  
    16    3   15 1  
    17    3   16 1  
    18    4   17 1  
    19    4   18 1  
    20    8   19 1  
    21    8   20 1  
    22    9   21 1  
    23    9   22 1  
    24   10   23 1  
    25   11   24 1  
    26   12   25 1  
    27   13   26 1  
    28   14   27 1  
# Name:          frag5-658-68/138278
# Creation time: Sat Jun  5 12:51:51 2010


@<TRIPOS>MOLECULE
frag5-658-68/138278
   27    28     1     1     1
SMALL
USER_CHARGES


@<TRIPOS>ATOM
      1 N1          1.5592    0.0023   -0.0388 N.am       1 <1>        0.000
      2 S1          0.1560   -0.5026   -0.5115 S.o2       1 <1>        0.000
      3 C1          2.3106   -0.6020    1.0019 C.3        1 <1>        0.000
      4 C2          2.3854    0.9387   -0.7527 C.3        1 <1>        0.000
      5 C3         -0.3225   -1.8242    0.4722 C.ar       1 <1>        0.000
      6 O1         -0.7160    0.6147   -0.2735 O.2        1 <1>        0.000
      7 O2          0.4185   -1.0282   -1.8314 O.2        1 <1>        0.000
      8 C4          3.6946   -0.5369    0.5035 C.3        1 <1>        0.000
      9 C6          3.7344    0.8172   -0.1456 C.3        1 <1>        0.000
     10 C7         -1.3049   -1.8272    1.4857 C.ar       1 <1>        0.000
     11 C8          0.2139   -3.1224    0.2674 C.ar       1 <1>        0.000
     12 C9         -1.6216   -2.9250    2.2890 C.ar       1 <1>        0.000
     13 C10        -0.1509   -4.2675    0.9633 C.ar       1 <1>        0.000
     14 C11        -1.0665   -4.1577    1.9913 C.ar       1 <1>        0.000
     15 H           1.9888   -1.6216    1.2138 H.spc      1 <1>        0.000
     16 H           2.1852   -0.0948    1.9585 H.spc      1 <1>        0.000
     17 H           2.4061    0.7211   -1.8206 H.spc      1 <1>        0.000
     18 H           2.0002    1.9551   -0.6716 H.spc      1 <1>        0.000
     19 H           4.4406   -0.6594    1.2887 H.spc      1 <1>        0.000
     20 H           3.9442   -1.3487   -0.1797 H.spc      1 <1>        0.000
     21 H           3.9521    1.6175    0.5617 H.spc      1 <1>        0.000
     22 H           4.5363    0.9102   -0.8780 H.spc      1 <1>        0.000
     23 H          -1.8580   -0.9032    1.6541 H.spc      1 <1>        0.000
     24 H           0.9780   -3.2297   -0.5025 H.spc      1 <1>        0.000
     25 H          -2.2960   -2.8128    3.1379 H.spc      1 <1>        0.000
     26 H           0.2776   -5.2353    0.7029 H.spc      1 <1>        0.000
     27 H          -1.3512   -5.0388    2.5664 H.spc      1 <1>        0.000
@<TRIPOS>BOND
     1   13   14 ar 
     2    4    9 1  
     3    5   11 ar 
     4    2    5 1  
     5   11   13 ar 
     6   12   14 ar 
     7    8    9 1  
     8    1    4 1  
     9    2    6 2  
    10    5   10 ar 
    11    1    2 1  
    12    2    7 2  
    13    1    3 1  
    14   10   12 ar 
    15    3    8 1  
    16    3   15 1  
    17    3   16 1  
    18    4   17 1  
    19    4   18 1  
    20    8   19 1  
    21    8   20 1  
    22    9   21 1  
    23    9   22 1  
    24   10   23 1  
    25   11   24 1  
    26   12   25 1  
    27   13   26 1  
    28   14   27 1  
# Name:          frag5-658-68/138278
# Creation time: Sat Jun  5 12:51:51 2010


@<TRIPOS>MOLECULE
frag5-658-68/138278
   27    28     1     1     1
SMALL
USER_CHARGES


@<TRIPOS>ATOM
      1 N1          1.6889   -0.1109   -0.3136 N.am       1 <1>        0.000
      2 S1          0.4514   -0.9267   -0.8002 S.o2       1 <1>        0.000
      3 C1          2.9618   -0.1986   -0.9093 C.3        1 <1>        0.000
      4 C2          1.6302    0.9348    0.6282 C.3        1 <1>        0.000
      5 C3         -0.1909   -1.9443    0.4497 C.ar       1 <1>        0.000
      6 O1         -0.4890    0.0991   -1.1148 O.2        1 <1>        0.000
      7 O2          0.9872   -1.7560   -1.8326 O.2        1 <1>        0.000
      8 C4          3.8323    0.0632    0.2990 C.3        1 <1>        0.000
      9 C6          2.9756    0.8277    1.3187 C.3        1 <1>        0.000
     10 C7         -0.3806   -1.6634    1.8231 C.ar       1 <1>        0.000
     11 C8         -0.6959   -3.1972    0.0247 C.ar       1 <1>        0.000
     12 C9         -0.8709   -2.6046    2.7171 C.ar       1 <1>        0.000
     13 C10        -1.2675   -4.1147    0.8848 C.ar       1 <1>        0.000
     14 C11        -1.3425   -3.8292    2.2460 C.ar       1 <1>        0.000
     15 H           3.1208    0.4910   -1.7383 H.spc      1 <1>        0.000
     16 H           3.1606   -1.1449   -1.4125 H.spc      1 <1>        0.000
     17 H           1.4591    1.9107    0.1738 H.spc      1 <1>        0.000
     18 H           0.7886    0.8452    1.3150 H.spc      1 <1>        0.000
     19 H           4.1903   -0.8743    0.7245 H.spc      1 <1>        0.000
     20 H           4.7099    0.6467    0.0207 H.spc      1 <1>        0.000
     21 H           2.9152    0.3208    2.2818 H.spc      1 <1>        0.000
     22 H           3.3952    1.8003    1.5759 H.spc      1 <1>        0.000
     23 H          -0.1319   -0.6689    2.1935 H.spc      1 <1>        0.000
     24 H          -0.6303   -3.4501   -1.0335 H.spc      1 <1>        0.000
     25 H          -0.8873   -2.3871    3.7851 H.spc      1 <1>        0.000
     26 H          -1.6577   -5.0570    0.5003 H.spc      1 <1>        0.000
     27 H          -1.7665   -4.5574    2.9375 H.spc      1 <1>        0.000
@<TRIPOS>BOND
     1   13   14 ar 
     2    4    9 1  
     3    5   11 ar 
     4    2    5 1  
     5   11   13 ar 
     6   12   14 ar 
     7    8    9 1  
     8    1    4 1  
     9    2    6 2  
    10    5   10 ar 
    11    1    2 1  
    12    2    7 2  
    13    1    3 1  
    14   10   12 ar 
    15    3    8 1  
    16    3   15 1  
    17    3   16 1  
    18    4   17 1  
    19    4   18 1  
    20    8   19 1  
    21    8   20 1  
    22    9   21 1  
    23    9   22 1  
    24   10   23 1  
    25   11   24 1  
    26   12   25 1  
    27   13   26 1  
    28   14   27 1  
# Name:          frag5-658-68/138278 -- energy: -3.393896
# Creation time: Sat Jun  5 12:51:51 2010


@<TRIPOS>MOLECULE
frag5-658-68/138278 -- energy: -3.393896
   27    28     1     1     1
SMALL
USER_CHARGES


@<TRIPOS>ATOM
      1 N1          1.6289   -0.1030    0.0363 N.am       1 <1>        0.000
      2 S1          0.3538   -0.7480   -0.5995 S.o2       1 <1>        0.000
      3 C1          2.7030   -0.9313    0.4397 C.3        1 <1>        0.000
      4 C2          1.9504    1.2850   -0.0338 C.3        1 <1>        0.000
      5 C3         -0.2356   -2.0178    0.4059 C.ar       1 <1>        0.000
      6 O1         -0.5808    0.3319   -0.6129 O.2        1 <1>        0.000
      7 O2          0.8522   -1.3133   -1.8168 O.2        1 <1>        0.000
      8 C4          3.8718   -0.1059    0.0152 C.3        1 <1>        0.000
      9 C6          3.4069    1.3123    0.3293 C.3        1 <1>        0.000
     10 C7         -0.2746   -3.3986    0.0737 C.ar       1 <1>        0.000
     11 C8         -0.7459   -1.7264    1.6922 C.ar       1 <1>        0.000
     12 C9         -0.9181   -4.3483    0.8550 C.ar       1 <1>        0.000
     13 C10        -1.3089   -2.6693    2.5314 C.ar       1 <1>        0.000
     14 C11        -1.4129   -3.9882    2.1050 C.ar       1 <1>        0.000
     15 H           2.6823   -1.9277   -0.0018 H.spc      1 <1>        0.000
     16 H           2.6974   -1.1757    1.5019 H.spc      1 <1>        0.000
     17 H           1.7512    1.7160   -1.0150 H.spc      1 <1>        0.000
     18 H           1.3378    1.8948    0.6302 H.spc      1 <1>        0.000
     19 H           4.7943   -0.3762    0.5290 H.spc      1 <1>        0.000
     20 H           4.1352   -0.2463   -1.0331 H.spc      1 <1>        0.000
     21 H           3.5754    1.5889    1.3701 H.spc      1 <1>        0.000
     22 H           3.9636    2.0691   -0.2234 H.spc      1 <1>        0.000
     23 H           0.2244   -3.7277   -0.8378 H.spc      1 <1>        0.000
     24 H          -0.6920   -0.6958    2.0430 H.spc      1 <1>        0.000
     25 H          -1.0352   -5.3694    0.4920 H.spc      1 <1>        0.000
     26 H          -1.6683   -2.3811    3.5193 H.spc      1 <1>        0.000
     27 H          -1.8794   -4.7362    2.7460 H.spc      1 <1>        0.000
@<TRIPOS>BOND
     1   13   14 ar 
     2    4    9 1  
     3    5   11 ar 
     4    2    5 1  
     5   11   13 ar 
     6   12   14 ar 
     7    8    9 1  
     8    1    4 1  
     9    2    6 2  
    10    5   10 ar 
    11    1    2 1  
    12    2    7 2  
    13    1    3 1  
    14   10   12 ar 
    15    3    8 1  
    16    3   15 1  
    17    3   16 1  
    18    4   17 1  
    19    4   18 1  
    20    8   19 1  
    21    8   20 1  
    22    9   21 1  
    23    9   22 1  
    24   10   23 1  
    25   11   24 1  
    26   12   25 1  
    27   13   26 1  
    28   14   27 1  
# Name:          frag5-658-68/138278 -- energy: -2.804324
# Creation time: Sat Jun  5 12:51:51 2010


@<TRIPOS>MOLECULE
frag5-658-68/138278 -- energy: -2.804324
   27    28     1     1     1
SMALL
USER_CHARGES


@<TRIPOS>ATOM
      1 N1          1.8717   -0.4609   -0.1135 N.am       1 <1>        0.000
      2 S1          0.3411   -0.6353   -0.3829 S.o2       1 <1>        0.000
      3 C1          2.7062   -0.0070   -1.1780 C.3        1 <1>        0.000
      4 C2          2.5301   -0.3245    1.1310 C.3        1 <1>        0.000
      5 C3         -0.2921   -1.9251    0.5471 C.ar       1 <1>        0.000
      6 O1         -0.2224    0.6111    0.0565 O.2        1 <1>        0.000
      7 O2          0.3010   -1.0089   -1.7724 O.2        1 <1>        0.000
      8 C4          3.3612    1.1759   -0.5586 C.3        1 <1>        0.000
      9 C6          3.5822    0.7142    0.8766 C.3        1 <1>        0.000
     10 C7         -1.0287   -1.8298    1.7562 C.ar       1 <1>        0.000
     11 C8         -0.2264   -3.2434    0.0357 C.ar       1 <1>        0.000
     12 C9         -1.4902   -2.9348    2.4620 C.ar       1 <1>        0.000
     13 C10        -0.7611   -4.3524    0.6647 C.ar       1 <1>        0.000
     14 C11        -1.3824   -4.2000    1.8963 C.ar       1 <1>        0.000
     15 H           2.1595    0.2259   -2.0917 H.spc      1 <1>        0.000
     16 H           3.4104   -0.7601   -1.5315 H.spc      1 <1>        0.000
     17 H           1.8471   -0.0324    1.9286 H.spc      1 <1>        0.000
     18 H           2.9560   -1.2662    1.4772 H.spc      1 <1>        0.000
     19 H           4.2837    1.4662   -1.0614 H.spc      1 <1>        0.000
     20 H           2.7606    2.0828   -0.6285 H.spc      1 <1>        0.000
     21 H           4.5846    0.3093    1.0156 H.spc      1 <1>        0.000
     22 H           3.5023    1.5436    1.5794 H.spc      1 <1>        0.000
     23 H          -1.2440   -0.8375    2.1525 H.spc      1 <1>        0.000
     24 H           0.2796   -3.3943   -0.9179 H.spc      1 <1>        0.000
     25 H          -1.9327   -2.8103    3.4503 H.spc      1 <1>        0.000
     26 H          -0.6954   -5.3355    0.1985 H.spc      1 <1>        0.000
     27 H          -1.7842   -5.0687    2.4178 H.spc      1 <1>        0.000
@<TRIPOS>BOND
     1   13   14 ar 
     2    4    9 1  
     3    5   11 ar 
     4    2    5 1  
     5   11   13 ar 
     6   12   14 ar 
     7    8    9 1  
     8    1    4 1  
     9    2    6 2  
    10    5   10 ar 
    11    1    2 1  
    12    2    7 2  
    13    1    3 1  
    14   10   12 ar 
    15    3    8 1  
    16    3   15 1  
    17    3   16 1  
    18    4   17 1  
    19    4   18 1  
    20    8   19 1  
    21    8   20 1  
    22    9   21 1  
    23    9   22 1  
    24   10   23 1  
    25   11   24 1  
    26   12   25 1  
    27   13   26 1  
    28   14   27 1  
# Name:          frag5-658-68/138278 -- energy: -3.417257
# Creation time: Sat Jun  5 12:51:51 2010


@<TRIPOS>MOLECULE
frag5-658-68/138278 -- energy: -3.417257
   27    28     1     1     1
SMALL
USER_CHARGES


@<TRIPOS>ATOM
      1 N1          1.6736   -0.0700   -0.5320 N.am       1 <1>        0.000
      2 S1          0.2526   -0.6757   -0.8938 S.o2       1 <1>        0.000
      3 C1          1.8406    1.0054    0.3767 C.3        1 <1>        0.000
      4 C2          2.9428   -0.6821   -0.6942 C.3        1 <1>        0.000
      5 C3         -0.1973   -1.7758    0.3566 C.ar       1 <1>        0.000
      6 O1         -0.6396    0.4464   -0.8287 O.2        1 <1>        0.000
      7 O2          0.4907   -1.4627   -2.0805 O.2        1 <1>        0.000
      8 C4          2.8273    0.5077    1.3608 C.3        1 <1>        0.000
      9 C6          3.5721   -0.5803    0.6457 C.3        1 <1>        0.000
     10 C7         -0.8703   -1.5169    1.5801 C.ar       1 <1>        0.000
     11 C8         -0.0074   -3.1662    0.2071 C.ar       1 <1>        0.000
     12 C9         -1.1815   -2.4707    2.5653 C.ar       1 <1>        0.000
     13 C10        -0.4201   -4.1704    1.0791 C.ar       1 <1>        0.000
     14 C11        -0.9933   -3.8097    2.2786 C.ar       1 <1>        0.000
     15 H           0.9007    1.2915    0.8488 H.spc      1 <1>        0.000
     16 H           2.1820    1.9127   -0.1217 H.spc      1 <1>        0.000
     17 H           2.8603   -1.7153   -1.0316 H.spc      1 <1>        0.000
     18 H           3.5384   -0.1941   -1.4657 H.spc      1 <1>        0.000
     19 H           3.4952    1.2996    1.6997 H.spc      1 <1>        0.000
     20 H           2.3450    0.1398    2.2664 H.spc      1 <1>        0.000
     21 H           4.6351   -0.3515    0.5698 H.spc      1 <1>        0.000
     22 H           3.5126   -1.5250    1.1862 H.spc      1 <1>        0.000
     23 H          -1.1724   -0.4874    1.7725 H.spc      1 <1>        0.000
     24 H           0.5206   -3.4898   -0.6899 H.spc      1 <1>        0.000
     25 H          -1.5642   -2.1598    3.5374 H.spc      1 <1>        0.000
     26 H          -0.2921   -5.2208    0.8177 H.spc      1 <1>        0.000
     27 H          -1.2957   -4.5733    2.9952 H.spc      1 <1>        0.000
@<TRIPOS>BOND
     1   13   14 ar 
     2    4    9 1  
     3    5   11 ar 
     4    2    5 1  
     5   11   13 ar 
     6   12   14 ar 
     7    8    9 1  
     8    1    4 1  
     9    2    6 2  
    10    5   10 ar 
    11    1    2 1  
    12    2    7 2  
    13    1    3 1  
    14   10   12 ar 
    15    3    8 1  
    16    3   15 1  
    17    3   16 1  
    18    4   17 1  
    19    4   18 1  
    20    8   19 1  
    21    8   20 1  
    22    9   21 1  
    23    9   22 1  
    24   10   23 1  
    25   11   24 1  
    26   12   25 1  
    27   13   26 1  
    28   14   27 1  
# Name:          frag5-658-68/138278 -- energy: -2.412417
# Creation time: Sat Jun  5 12:51:51 2010


@<TRIPOS>MOLECULE
frag5-658-68/138278 -- energy: -2.412417
   27    28     1     1     1
SMALL
USER_CHARGES


@<TRIPOS>ATOM
      1 N1          1.7179   -0.1765    0.0287 N.am       1 <1>        0.000
      2 S1          0.5948   -1.0190   -0.6424 S.o2       1 <1>        0.000
      3 C1          3.0151   -0.7359    0.1555 C.3        1 <1>        0.000
      4 C2          1.6403    1.2199    0.2818 C.3        1 <1>        0.000
      5 C3         -0.1824   -2.0475    0.4998 C.ar       1 <1>        0.000
      6 O1         -0.3249   -0.0283   -1.1076 O.2        1 <1>        0.000
      7 O2          1.3173   -1.8349   -1.5761 O.2        1 <1>        0.000
      8 C4          3.8567    0.4679   -0.1392 C.3        1 <1>        0.000
      9 C6          3.0765    1.5905    0.5408 C.3        1 <1>        0.000
     10 C7         -0.0748   -2.0953    1.9126 C.ar       1 <1>        0.000
     11 C8         -1.1352   -2.9471   -0.0373 C.ar       1 <1>        0.000
     12 C9         -0.7185   -3.0521    2.6872 C.ar       1 <1>        0.000
     13 C10        -1.8563   -3.8472    0.7228 C.ar       1 <1>        0.000
     14 C11        -1.6362   -3.9155    2.0943 C.ar       1 <1>        0.000
     15 H           3.2025   -1.5846   -0.5023 H.spc      1 <1>        0.000
     16 H           3.2123   -1.1930    1.1252 H.spc      1 <1>        0.000
     17 H           1.2000    1.7777   -0.5447 H.spc      1 <1>        0.000
     18 H           0.9814    1.4647    1.1149 H.spc      1 <1>        0.000
     19 H           4.8788    0.3748    0.2279 H.spc      1 <1>        0.000
     20 H           4.0039    0.6354   -1.2061 H.spc      1 <1>        0.000
     21 H           3.3031    1.6751    1.6036 H.spc      1 <1>        0.000
     22 H           3.3327    2.5756    0.1509 H.spc      1 <1>        0.000
     23 H           0.5405   -1.3479    2.4135 H.spc      1 <1>        0.000
     24 H          -1.3097   -2.9281   -1.1131 H.spc      1 <1>        0.000
     25 H          -0.5063   -3.1266    3.7537 H.spc      1 <1>        0.000
     26 H          -2.5920   -4.4988    0.2514 H.spc      1 <1>        0.000
     27 H          -2.1786   -4.6403    2.7013 H.spc      1 <1>        0.000
@<TRIPOS>BOND
     1   13   14 ar 
     2    4    9 1  
     3    5   11 ar 
     4    2    5 1  
     5   11   13 ar 
     6   12   14 ar 
     7    8    9 1  
     8    1    4 1  
     9    2    6 2  
    10    5   10 ar 
    11    1    2 1  
    12    2    7 2  
    13    1    3 1  
    14   10   12 ar 
    15    3    8 1  
    16    3   15 1  
    17    3   16 1  
    18    4   17 1  
    19    4   18 1  
    20    8   19 1  
    21    8   20 1  
    22    9   21 1  
    23    9   22 1  
    24   10   23 1  
    25   11   24 1  
    26   12   25 1  
    27   13   26 1  
    28   14   27 1  
# Name:          frag5-658-68/138278 -- energy: -3.177990
# Creation time: Sat Jun  5 12:51:51 2010


@<TRIPOS>MOLECULE
frag5-658-68/138278 -- energy: -3.177990
   27    28     1     1     1
SMALL
USER_CHARGES


@<TRIPOS>ATOM
      1 N1          1.5592    0.0023   -0.0388 N.am       1 <1>        0.000
      2 S1          0.1560   -0.5026   -0.5115 S.o2       1 <1>        0.000
      3 C1          2.3106   -0.6020    1.0019 C.3        1 <1>        0.000
      4 C2          2.3854    0.9387   -0.7527 C.3        1 <1>        0.000
      5 C3         -0.3225   -1.8242    0.4722 C.ar       1 <1>        0.000
      6 O1         -0.7160    0.6147   -0.2735 O.2        1 <1>        0.000
      7 O2          0.4185   -1.0282   -1.8314 O.2        1 <1>        0.000
      8 C4          3.6946   -0.5369    0.5035 C.3        1 <1>        0.000
      9 C6          3.7344    0.8172   -0.1456 C.3        1 <1>        0.000
     10 C7         -1.3049   -1.8272    1.4857 C.ar       1 <1>        0.000
     11 C8          0.2139   -3.1224    0.2674 C.ar       1 <1>        0.000
     12 C9         -1.6216   -2.9250    2.2890 C.ar       1 <1>        0.000
     13 C10        -0.1509   -4.2675    0.9633 C.ar       1 <1>        0.000
     14 C11        -1.0665   -4.1577    1.9913 C.ar       1 <1>        0.000
     15 H           1.9888   -1.6216    1.2138 H.spc      1 <1>        0.000
     16 H           2.1852   -0.0948    1.9585 H.spc      1 <1>        0.000
     17 H           2.4061    0.7211   -1.8206 H.spc      1 <1>        0.000
     18 H           2.0002    1.9551   -0.6716 H.spc      1 <1>        0.000
     19 H           4.4406   -0.6594    1.2887 H.spc      1 <1>        0.000
     20 H           3.9442   -1.3487   -0.1797 H.spc      1 <1>        0.000
     21 H           3.9521    1.6175    0.5617 H.spc      1 <1>        0.000
     22 H           4.5363    0.9102   -0.8780 H.spc      1 <1>        0.000
     23 H          -1.8580   -0.9032    1.6541 H.spc      1 <1>        0.000
     24 H           0.9780   -3.2297   -0.5025 H.spc      1 <1>        0.000
     25 H          -2.2960   -2.8128    3.1379 H.spc      1 <1>        0.000
     26 H           0.2776   -5.2353    0.7029 H.spc      1 <1>        0.000
     27 H          -1.3512   -5.0388    2.5664 H.spc      1 <1>        0.000
@<TRIPOS>BOND
     1   13   14 ar 
     2    4    9 1  
     3    5   11 ar 
     4    2    5 1  
     5   11   13 ar 
     6   12   14 ar 
     7    8    9 1  
     8    1    4 1  
     9    2    6 2  
    10    5   10 ar 
    11    1    2 1  
    12    2    7 2  
    13    1    3 1  
    14   10   12 ar 
    15    3    8 1  
    16    3   15 1  
    17    3   16 1  
    18    4   17 1  
    19    4   18 1  
    20    8   19 1  
    21    8   20 1  
    22    9   21 1  
    23    9   22 1  
    24   10   23 1  
    25   11   24 1  
    26   12   25 1  
    27   13   26 1  
    28   14   27 1  
# Name:          frag5-658-68/138278 -- energy: -2.797350
# Creation time: Sat Jun  5 12:51:51 2010


@<TRIPOS>MOLECULE
frag5-658-68/138278 -- energy: -2.797350
   27    28     1     1     1
SMALL
USER_CHARGES


@<TRIPOS>ATOM
      1 N1          1.6889   -0.1109   -0.3136 N.am       1 <1>        0.000
      2 S1          0.4514   -0.9267   -0.8002 S.o2       1 <1>        0.000
      3 C1          2.9618   -0.1986   -0.9093 C.3        1 <1>        0.000
      4 C2          1.6302    0.9348    0.6282 C.3        1 <1>        0.000
      5 C3         -0.1909   -1.9443    0.4497 C.ar       1 <1>        0.000
      6 O1         -0.4890    0.0991   -1.1148 O.2        1 <1>        0.000
      7 O2          0.9872   -1.7560   -1.8326 O.2        1 <1>        0.000
      8 C4          3.8323    0.0632    0.2990 C.3        1 <1>        0.000
      9 C6          2.9756    0.8277    1.3187 C.3        1 <1>        0.000
     10 C7         -0.3806   -1.6634    1.8231 C.ar       1 <1>        0.000
     11 C8         -0.6959   -3.1972    0.0247 C.ar       1 <1>        0.000
     12 C9         -0.8709   -2.6046    2.7171 C.ar       1 <1>        0.000
     13 C10        -1.2675   -4.1147    0.8848 C.ar       1 <1>        0.000
     14 C11        -1.3425   -3.8292    2.2460 C.ar       1 <1>        0.000
     15 H           3.1208    0.4910   -1.7383 H.spc      1 <1>        0.000
     16 H           3.1606   -1.1449   -1.4125 H.spc      1 <1>        0.000
     17 H           1.4591    1.9107    0.1738 H.spc      1 <1>        0.000
     18 H           0.7886    0.8452    1.3150 H.spc      1 <1>        0.000
     19 H           4.1903   -0.8743    0.7245 H.spc      1 <1>        0.000
     20 H           4.7099    0.6467    0.0207 H.spc      1 <1>        0.000
     21 H           2.9152    0.3208    2.2818 H.spc      1 <1>        0.000
     22 H           3.3952    1.8003    1.5759 H.spc      1 <1>        0.000
     23 H          -0.1319   -0.6689    2.1935 H.spc      1 <1>        0.000
     24 H          -0.6303   -3.4501   -1.0335 H.spc      1 <1>        0.000
     25 H          -0.8873   -2.3871    3.7851 H.spc      1 <1>        0.000
     26 H          -1.6577   -5.0570    0.5003 H.spc      1 <1>        0.000
     27 H          -1.7665   -4.5574    2.9375 H.spc      1 <1>        0.000
@<TRIPOS>BOND
     1   13   14 ar 
     2    4    9 1  
     3    5   11 ar 
     4    2    5 1  
     5   11   13 ar 
     6   12   14 ar 
     7    8    9 1  
     8    1    4 1  
     9    2    6 2  
    10    5   10 ar 
    11    1    2 1  
    12    2    7 2  
    13    1    3 1  
    14   10   12 ar 
    15    3    8 1  
    16    3   15 1  
    17    3   16 1  
    18    4   17 1  
    19    4   18 1  
    20    8   19 1  
    21    8   20 1  
    22    9   21 1  
    23    9   22 1  
    24   10   23 1  
    25   11   24 1  
    26   12   25 1  
    27   13   26 1  
    28   14   27 1  
